@<TRIPOS>MOLECULE
tmp/3fhmA01.pdb
 151 144 0 0 0
SMALL
GASTEIGER

@<TRIPOS>ATOM
      1  N        -10.0600    7.9820   35.3670 N.3    18  LYS18      -0.1245
      2  CA       -11.2130    7.1840   34.9090 C.3    18  LYS18       0.1561
      3  C        -11.1710    5.6790   35.2710 C.2    18  LYS18       0.2260
      4  O        -12.2060    5.1180   35.6220 O.2    18  LYS18      -0.2867
      5  CB       -11.5000    7.4000   33.4240 C.3    18  LYS18       0.0271
      6  CG       -10.6980    6.5270   32.4930 C.3    18  LYS18       0.0035
      7  CD       -11.4640    6.2590   31.2310 C.3    18  LYS18       0.0206
      8  CE       -10.7870    5.1980   30.3690 C.3    18  LYS18       0.1093
      9  NZ       -11.2990    3.7740   30.5450 N.3    18  LYS18      -0.1314
     10  N         -9.5190   -0.5780   34.0290 N.3    21  ASP21      -0.1225
     11  CA       -10.2050   -1.7740   33.5630 C.3    21  ASP21       0.1805
     12  C        -10.5730   -1.7990   32.0930 C.2    21  ASP21       0.2598
     13  O        -10.7920   -0.7470   31.5040 O.2    21  ASP21      -0.2718
     14  CB       -11.3960   -2.1040   34.4310 C.3    21  ASP21       0.1424
     15  CG       -11.0670   -3.2560   35.4180 C.2    21  ASP21       0.3668
     16  OD1      -10.9960   -2.9790   36.6530 O.co2  21  ASP21      -0.2456
     17  OD2      -10.8300   -4.4270   34.9590 O.co2  21  ASP21      -0.2456
     18  N        -10.5630   -2.9800   31.4750 N.am   22  VAL22      -0.1966
     19  CA       -11.0950   -3.1060   30.1040 C.3    22  VAL22       0.1727
     20  C        -12.1850   -4.1650   29.9680 C.2    22  VAL22       0.2616
     21  O        -11.9690   -5.3150   30.3720 O.2    22  VAL22      -0.2715
     22  CB       -10.0350   -3.4480   29.0410 C.3    22  VAL22       0.0290
     23  CG1      -10.5390   -3.0160   27.6750 C.3    22  VAL22       0.0023
     24  CG2       -8.7000   -2.7870   29.3440 C.3    22  VAL22       0.0023
     25  N        -13.3350   -3.7920   29.3860 N.am   23  VAL23      -0.1977
     26  CA       -14.3490   -4.7850   29.0800 C.3    23  VAL23       0.1596
     27  C        -14.0620   -5.5510   27.7930 C.2    23  VAL23       0.2287
     28  O        -13.7430   -4.9740   26.7450 O.2    23  VAL23      -0.2864
     29  CB       -15.7720   -4.2470   29.0280 C.3    23  VAL23       0.0276
     30  CG1      -16.7560   -5.3890   29.3450 C.3    23  VAL23       0.0022
     31  CG2      -15.9600   -3.1300   30.0580 C.3    23  VAL23       0.0022
     32  N        -22.7650    0.3610   29.0330 N.3    42  LYS42      -0.1231
     33  CA       -22.8210    1.7170   28.4760 C.3    42  LYS42       0.1693
     34  C        -21.5250    2.1150   27.7960 C.2    42  LYS42       0.2592
     35  O        -21.0550    3.2100   28.0010 O.2    42  LYS42      -0.2718
     36  CB       -23.0900    2.7360   29.5830 C.3    42  LYS42       0.0285
     37  CG       -24.5010    3.0020   29.8630 C.3    42  LYS42       0.0035
     38  CD       -24.5850    3.9860   30.9930 C.3    42  LYS42       0.0206
     39  CE       -26.0560    4.1510   31.3950 C.3    42  LYS42       0.1093
     40  NZ       -26.8490    5.0330   30.4260 N.3    42  LYS42      -0.1314
     41  N        -20.9200    1.2500   27.0080 N.am   43  ILE43      -0.1966
     42  CA       -19.7240    1.6480   26.2570 C.3    43  ILE43       0.1727
     43  C        -19.8620    1.4890   24.7330 C.2    43  ILE43       0.2617
     44  O        -20.7850    0.9080   24.2910 O.2    43  ILE43      -0.2715
     45  CB       -18.4730    0.9510   26.8360 C.3    43  ILE43       0.0290
     46  CG1      -18.5290   -0.5800   26.6190 C.3    43  ILE43       0.0022
     47  CG2      -18.3680    1.3030   28.2550 C.3    43  ILE43       0.0023
     48  CD1      -17.8420   -1.4260   27.7240 C.3    43  ILE43       0.0001
     49  N        -18.9690    2.0480   23.9470 N.am   44  GLY44      -0.1940
     50  CA       -19.0570    1.9330   22.5090 C.3    44  GLY44       0.2014
     51  C        -18.1660    0.8710   21.8660 C.2    44  GLY44       0.2639
     52  O        -18.2330    0.6730   20.6470 O.2    44  GLY44      -0.2714
     53  N        -17.3550    0.1790   22.6700 N.am   45  ALA45      -0.1963
     54  CA       -16.3110   -0.6630   22.2090 C.3    45  ALA45       0.1728
     55  C        -16.1150   -1.8490   23.1490 C.2    45  ALA45       0.2616
     56  O        -16.3670   -1.7650   24.3610 O.2    45  ALA45      -0.2715
     57  CB       -15.0660    0.1070   22.1670 C.3    45  ALA45       0.0334
     58  N        -15.6930   -2.9760   22.5780 N.am   46  VAL46      -0.1963
     59  CA       -15.2530   -4.1230   23.3490 C.3    46  VAL46       0.1727
     60  C        -14.0550   -4.7480   22.6470 C.2    46  VAL46       0.2616
     61  O        -13.9970   -4.7990   21.4010 O.2    46  VAL46      -0.2715
     62  CB       -16.3650   -5.1980   23.7160 C.3    46  VAL46       0.0290
     63  CG1      -17.2620   -4.7150   24.9090 C.3    46  VAL46       0.0023
     64  CG2      -17.1660   -5.6340   22.5790 C.3    46  VAL46       0.0023
     65  N        -13.0760   -5.1720   23.4380 N.am   47  VAL47      -0.1977
     66  CA       -11.8590   -5.7690   22.8950 C.3    47  VAL47       0.1596
     67  C        -12.0610   -7.2890   22.8500 C.2    47  VAL47       0.2287
     68  O        -12.5140   -7.8960   23.8540 O.2    47  VAL47      -0.2864
     69  CB       -10.5860   -5.3960   23.7570 C.3    47  VAL47       0.0276
     70  CG1       -9.3250   -5.9130   23.1670 C.3    47  VAL47       0.0022
     71  CG2      -10.4780   -3.9050   23.9030 C.3    47  VAL47       0.0022
     72  N        -19.6280   -0.0640   18.0090 N.3    61  GLU61      -0.1245
     73  CA       -20.9350    0.2920   17.3810 C.3    61  GLU61       0.1567
     74  C        -20.8430    0.5410   15.8130 C.2    61  GLU61       0.2260
     75  O        -21.8070    0.2850   15.0550 O.2    61  GLU61      -0.2867
     76  CB       -21.5680    1.4890   18.1060 C.3    61  GLU61       0.0388
     77  CG       -20.6160    2.7280   18.2000 C.3    61  GLU61       0.1160
     78  CD       -20.7990    3.6340   19.4690 C.2    61  GLU61       0.3649
     79  OE1      -19.8050    4.3290   19.7920 O.co2  61  GLU61      -0.2457
     80  OE2      -21.8860    3.6680   20.1120 O.co2  61  GLU61      -0.2457
     81  N        -12.0370    6.0040   17.1790 N.3   110  ARG110     -0.1182
     82  CA       -12.3100    6.7590   18.4030 C.3   110  ARG110      0.1910
     83  C        -11.8690    6.0680   19.7020 C.2   110  ARG110      0.2634
     84  O        -12.1890    6.5430   20.8610 O.2   110  ARG110     -0.2714
     85  CB       -13.8380    6.9320   18.4940 C.2   110  ARG110      0.0007
     86  CG       -14.4150    8.0190   17.6190 C.2   110  ARG110      0.0176
     87  CD       -15.9240    8.2890   17.7840 C.3   110  ARG110      0.2464
     88  NE       -16.7560    7.2090   17.2460 N.pl3 110  ARG110     -0.0815
     89  CZ       -18.0200    7.3150   16.8590 C.cat 110  ARG110      0.5349
     90  NH1      -18.6690    6.2730   16.4350 N.pl3 110  ARG110      0.1354
     91  NH2      -18.6460    8.4440   16.8710 N.pl3 110  ARG110      0.1354
     92  N        -11.2110    4.9120   19.5360 N.am  111  HIS111     -0.1973
     93  CA       -10.8340    4.0720   20.6660 C.3   111  HIS111      0.1656
     94  C         -9.3830    3.6930   20.4590 C.2   111  HIS111      0.2291
     95  O         -8.9480    3.2940   19.3190 O.2   111  HIS111     -0.2864
     96  CB       -11.7640    2.8730   20.7900 C.3   111  HIS111      0.0771
     97  CG       -13.1370    3.2110   21.3190 C.ar  111  HIS111      0.0820
     98  ND1      -14.2660    3.2470   20.5070 N.ar  111  HIS111     -0.2267
     99  CD2      -13.5560    3.5600   22.5810 C.ar  111  HIS111      0.1154
    100  CE1      -15.3180    3.5510   21.2600 C.ar  111  HIS111      0.1986
    101  NE2      -14.9180    3.7600   22.5180 N.ar  111  HIS111     -0.2212
    102  N         -7.8810    1.4970   28.3420 N.3   123  ILE123     -0.1245
    103  CA        -8.4300    1.9580   27.0720 C.3   123  ILE123      0.1561
    104  C         -8.7810    3.4070   27.1890 C.2   123  ILE123      0.2260
    105  O         -9.3740    3.8140   28.2130 O.2   123  ILE123     -0.2867
    106  CB        -9.6550    1.0700   26.5920 C.3   123  ILE123      0.0252
    107  CG1       -9.9470    1.2690   25.0880 C.3   123  ILE123      0.0019
    108  CG2      -10.8780    1.1340   27.5820 C.3   123  ILE123      0.0019
    109  CD1      -10.8400    0.2050   24.4520 C.3   123  ILE123      0.0001
    110  N        -10.7290    6.6530   25.1640 N.3   125  SER125     -0.1202
    111  CA       -11.6940    7.0100   24.1510 C.3   125  SER125      0.2020
    112  C        -11.7180    8.5330   23.8540 C.2   125  SER125      0.2619
    113  O        -11.3580    9.3780   24.7280 O.2   125  SER125     -0.2717
    114  CB       -13.0340    6.6550   24.6780 C.3   125  SER125      0.2103
    115  OG       -13.5720    7.8630   25.1250 O.3   125  SER125     -0.2182
    116  N        -12.1550    8.8790   22.6250 N.am  126  ILE126     -0.1965
    117  CA       -12.3050   10.2960   22.2380 C.3   126  ILE126      0.1727
    118  C        -13.0140   11.1860   23.3190 C.2   126  ILE126      0.2617
    119  O        -12.7100   12.3400   23.4280 O.2   126  ILE126     -0.2715
    120  CB       -12.9900   10.4270   20.8630 C.3   126  ILE126      0.0290
    121  CG1      -12.7020   11.8140   20.2510 C.3   126  ILE126      0.0022
    122  CG2      -14.5220   10.1900   20.9450 C.3   126  ILE126      0.0023
    123  CD1      -13.1780   11.9520   18.7880 C.3   126  ILE126      0.0001
    124  N        -13.9280   10.6420   24.0990 N.am  127  GLY127     -0.1940
    125  CA       -14.6950   11.4260   25.0690 C.3   127  GLY127      0.2014
    126  C        -13.8430   11.6890   26.3000 C.2   127  GLY127      0.2638
    127  O        -13.9900   12.7180   26.9470 O.2   127  GLY127     -0.2714
    128  N        -12.9190   10.7710   26.6210 N.am  128  ASP128     -0.1971
    129  CA       -11.8790   10.9780   27.6600 C.3   128  ASP128      0.1709
    130  C        -10.9430   12.1860   27.2930 C.2   128  ASP128      0.2293
    131  O        -10.8100   13.1710   28.0560 O.2   128  ASP128     -0.2864
    132  CB       -11.0690    9.6710   27.8480 C.3   128  ASP128      0.1436
    133  CG       -11.9510    8.4420   28.3250 C.2   128  ASP128      0.3671
    134  OD1      -12.8170    8.5150   29.2460 O.co2 128  ASP128     -0.2456
    135  OD2      -11.7400    7.3370   27.7870 O.co2 128  ASP128     -0.2456
    136  N        -11.4810   14.5240   25.1450 N.3   130  VAL130     -0.1231
    137  CA       -12.2080   15.7950   25.1450 C.3   130  VAL130      0.1692
    138  C        -12.4570   16.3670   26.5700 C.2   130  VAL130      0.2591
    139  O        -12.1440   17.5220   26.8460 O.2   130  VAL130     -0.2718
    140  CB       -13.5500   15.7330   24.3790 C.3   130  VAL130      0.0266
    141  CG1      -14.3880   17.0640   24.6810 C.3   130  VAL130      0.0020
    142  CG2      -13.3530   15.4810   22.8530 C.3   130  VAL130      0.0020
    143  N        -13.0240   15.5580   27.4640 N.am  131  LYS131     -0.1980
    144  CA       -13.1970   15.9600   28.8410 C.3   131  LYS131      0.1596
    145  C        -11.8880   16.4960   29.4610 C.2   131  LYS131      0.2287
    146  O        -11.9150   17.5200   30.1590 O.2   131  LYS131     -0.2864
    147  CB       -13.7470   14.8140   29.6420 C.3   131  LYS131      0.0298
    148  CG       -13.5970   14.9840   31.1370 C.3   131  LYS131      0.0038
    149  CD       -14.6090   14.0880   31.8890 C.3   131  LYS131      0.0206
    150  CE       -14.9610   14.5740   33.3140 C.3   131  LYS131      0.1093
    151  NZ       -16.0040   13.7190   33.9800 N.3   131  LYS131     -0.1314
@<TRIPOS>BOND
     1    75    74    2
     2    74    73    1
     3    90    89    1
     4    89    91    1
     5    89    88    2
     6    81    82    1
     7    88    87    1
     8    73    72    1
     9    73    76    1
    10    86    87    1
    11    86    85    2
    12    76    77    1
    13    77    78    1
    14    82    85    1
    15    82    83    1
    16   123   121    1
    17    95    94    2
    18    78    79   ar
    19    78    80   ar
    20    92    83   am
    21    92    93    1
    22    83    84    2
    23   121   120    1
    24    94    93    1
    25    98   100   ar
    26    98    97   ar
    27    52    51    2
    28    93    96    1
    29    96    97    1
    30   120   122    1
    31   120   117    1
    32   100   101   ar
    33    97    99   ar
    34    61    60    2
    35    51    50    1
    36    51    53   am
    37    57    54    1
    38    54    53    1
    39    54    55    1
    40   117   116    1
    41   117   118    1
    42    50    49    1
    43   101    99   ar
    44    58    55   am
    45    58    59    1
    46    64    62    1
    47   116   112   am
    48    60    59    1
    49    60    65   am
    50    67    66    1
    51    67    68    2
    52   142   140    1
    53    66    65    1
    54    66    69    1
    55    55    56    2
    56    70    69    1
    57   118   119    2
    58   118   124   am
    59    59    62    1
    60    62    63    1
    61    69    71    1
    62   112   111    1
    63   112   113    2
    64    49    43   am
    65   124   125    1
    66   111   114    1
    67   111   110    1
    68    44    43    2
    69   140   141    1
    70   140   137    1
    71   109   107    1
    72   114   115    1
    73    43    42    1
    74   125   126    1
    75   107   106    1
    76   136   137    1
    77   137   138    1
    78    42    45    1
    79    42    41    1
    80   126   128   am
    81   126   127    2
    82   138   139    2
    83   138   143   am
    84   106   103    1
    85   106   108    1
    86    46    45    1
    87    46    48    1
    88   128   129    1
    89    28    27    2
    90    45    47    1
    91    41    34   am
    92   103   104    1
    93   103   102    1
    94   104   105    2
    95   130   129    1
    96   130   131    2
    97   143   144    1
    98   129   132    1
    99    23    22    1
   100   135   133   ar
   101    27    26    1
   102    34    35    2
   103    34    33    1
   104   132   133    1
   105   133   134   ar
   106    33    32    1
   107    33    36    1
   108   144   145    1
   109   144   147    1
   110    29    26    1
   111    29    30    1
   112    29    31    1
   113    22    24    1
   114    22    19    1
   115    26    25    1
   116    25    20   am
   117   145   146    2
   118    36    37    1
   119   147   148    1
   120    37    38    1
   121    20    19    1
   122    20    21    2
   123    19    18    1
   124     8     9    1
   125     8     7    1
   126    40    39    1
   127    38    39    1
   128   148   149    1
   129     7     6    1
   130    18    12   am
   131    13    12    2
   132   149   150    1
   133    12    11    1
   134     6     5    1
   135   150   151    1
   136     5     2    1
   137    11    10    1
   138    11    14    1
   139    14    15    1
   140     2     3    1
   141     2     1    1
   142    17    15   ar
   143     3     4    2
   144    15    16   ar
