@<TRIPOS>MOLECULE
tmp/3fhmA00.pdb
 122 119 0 0 0
SMALL
GASTEIGER

@<TRIPOS>ATOM
      1  N        -10.9820   -5.7000   17.7100 N.3    58  ILE58      -0.1245
      2  CA       -11.7710   -4.7120   18.4270 C.3    58  ILE58       0.1561
      3  C        -13.0890   -4.5370   17.6290 C.2    58  ILE58       0.2260
      4  O        -13.1020   -4.5030   16.3870 O.2    58  ILE58      -0.2867
      5  CB       -10.9100   -3.4230   18.6980 C.3    58  ILE58       0.0252
      6  CG1      -11.6020   -2.4750   19.6230 C.3    58  ILE58       0.0019
      7  CG2      -10.5930   -2.6390   17.4200 C.3    58  ILE58       0.0019
      8  CD1      -10.9300   -1.1340   19.5070 C.3    58  ILE58       0.0001
      9  N        -16.7330   -2.2680   17.5090 N.3    60  THR60      -0.1203
     10  CA       -17.4360   -1.0500   18.0330 C.3    60  THR60       0.1994
     11  C        -18.8230   -0.9560   17.4290 C.2    60  THR60       0.2618
     12  O        -19.1400   -1.6750   16.3710 O.2    60  THR60      -0.2717
     13  CB       -16.6850    0.2690   17.6340 C.3    60  THR60       0.1784
     14  OG1      -16.8840    0.5890   16.2320 O.3    60  THR60      -0.2211
     15  CG2      -15.1830    0.1350   17.9190 C.3    60  THR60       0.0376
     16  N        -19.6280   -0.0640   18.0090 N.am   61  GLU61      -0.1965
     17  CA       -20.9350    0.2920   17.3810 C.3    61  GLU61       0.1733
     18  C        -20.8430    0.5410   15.8130 C.2    61  GLU61       0.2616
     19  O        -21.8070    0.2850   15.0550 O.2    61  GLU61      -0.2715
     20  CB       -21.5680    1.4890   18.1060 C.3    61  GLU61       0.0429
     21  CG       -20.6160    2.7280   18.2000 C.3    61  GLU61       0.1163
     22  CD       -20.7990    3.6340   19.4690 C.2    61  GLU61       0.3649
     23  OE1      -19.8050    4.3290   19.7920 O.co2  61  GLU61      -0.2457
     24  OE2      -21.8860    3.6680   20.1120 O.co2  61  GLU61      -0.2457
     25  N        -19.6840    1.0270   15.3370 N.am   62  ARG62      -0.1963
     26  CA       -19.5960    1.3130   13.9450 C.3    62  ARG62       0.1729
     27  C        -19.5050    0.0080   13.1270 C.2    62  ARG62       0.2616
     28  O        -20.0680   -0.0660   12.0430 O.2    62  ARG62      -0.2715
     29  CB       -18.4490    2.2560   13.6550 C.3    62  ARG62       0.0348
     30  CG       -18.1570    2.4880   12.1530 C.3    62  ARG62       0.0492
     31  CD       -19.2140    3.3730   11.5550 C.3    62  ARG62       0.2205
     32  NE       -19.4980    4.5770   12.3380 N.pl3  62  ARG62      -0.0865
     33  CZ       -19.0380    5.7940   12.0370 C.cat  62  ARG62       0.5346
     34  NH1      -18.2990    5.9540   10.9390 N.pl3  62  ARG62       0.1354
     35  NH2      -19.3410    6.8410   12.8250 N.pl3  62  ARG62       0.1354
     36  N        -18.8530   -1.0250   13.6590 N.am   63  ASP63      -0.1971
     37  CA       -18.8900   -2.3270   13.0110 C.3    63  ASP63       0.1709
     38  C        -20.3050   -2.9220   12.9990 C.2    63  ASP63       0.2293
     39  O        -20.6650   -3.6160   12.0100 O.2    63  ASP63      -0.2864
     40  CB       -17.8890   -3.2830   13.6300 C.3    63  ASP63       0.1436
     41  CG       -16.4880   -2.8990   13.3070 C.2    63  ASP63       0.3671
     42  OD1      -16.1990   -2.8720   12.1060 O.co2  63  ASP63      -0.2456
     43  OD2      -15.6950   -2.5850   14.2260 O.co2  63  ASP63      -0.2456
     44  N        -12.2390   -5.5100   13.6970 N.3    85  THR85      -0.1218
     45  CA       -11.0040   -5.0130   13.0990 C.3    85  THR85       0.1862
     46  C         -9.8220   -5.7100   13.7730 C.2    85  THR85       0.2287
     47  O         -9.6560   -5.5730   15.0100 O.2    85  THR85      -0.2866
     48  CB       -10.9730   -3.4660   13.2050 C.3    85  THR85       0.1770
     49  OG1      -11.6920   -2.9620   12.0790 O.3    85  THR85      -0.2211
     50  CG2       -9.5660   -2.8640   13.1660 C.3    85  THR85       0.0375
     51  N         -6.2860   -5.5850   12.8990 N.3    87  ASN87      -0.1225
     52  CA        -5.1330   -4.7020   13.1310 C.3    87  ASN87       0.1785
     53  C         -5.4020   -3.5470   14.0530 C.2    87  ASN87       0.2597
     54  O         -5.8100   -2.4730   13.6120 O.2    87  ASN87      -0.2718
     55  CB        -4.6110   -4.1250   11.8450 C.3    87  ASN87       0.1169
     56  CG        -3.3290   -4.7320   11.4550 C.2    87  ASN87       0.2627
     57  OD1       -2.2750   -4.0720   11.5200 O.2    87  ASN87      -0.2716
     58  ND2       -3.3760   -6.0260   11.0730 N.am   87  ASN87      -0.0877
     59  N         -5.1170   -3.7740   15.3220 N.am   88  VAL88      -0.1966
     60  CA        -5.4280   -2.8690   16.3920 C.3    88  VAL88       0.1727
     61  C         -4.2930   -1.8800   16.6740 C.2    88  VAL88       0.2616
     62  O         -3.2350   -2.3310   17.1040 O.2    88  VAL88      -0.2715
     63  CB        -5.6230   -3.7210   17.6570 C.3    88  VAL88       0.0290
     64  CG1       -6.0010   -2.8920   18.8790 C.3    88  VAL88       0.0023
     65  CG2       -6.6720   -4.7650   17.4140 C.3    88  VAL88       0.0023
     66  N         -4.5050   -0.5620   16.4670 N.am   89  VAL89      -0.1977
     67  CA        -3.5140    0.4990   16.8210 C.3    89  VAL89       0.1596
     68  C         -3.5940    0.8590   18.3430 C.2    89  VAL89       0.2287
     69  O         -4.6820    0.9860   18.8740 O.2    89  VAL89      -0.2864
     70  CB        -3.6980    1.7920   15.9590 C.3    89  VAL89       0.0276
     71  CG1       -2.7150    2.8680   16.3490 C.3    89  VAL89       0.0022
     72  CG2       -3.5610    1.5080   14.5170 C.3    89  VAL89       0.0022
     73  N         -9.2530    7.5950   11.6690 N.3   108  ARG108     -0.1231
     74  CA       -10.7540    7.6400   11.6750 C.3   108  ARG108      0.1694
     75  C        -11.3660    6.5530   12.5720 C.2   108  ARG108      0.2592
     76  O        -12.3110    5.8350   12.2120 O.2   108  ARG108     -0.2718
     77  CB       -11.3880    7.7030   10.2560 C.3   108  ARG108      0.0321
     78  CG       -10.4420    8.0750    9.1350 C.3   108  ARG108      0.0489
     79  CD       -11.2140    8.4790    7.8980 C.3   108  ARG108      0.2205
     80  NE       -11.6040    9.8910    7.9920 N.pl3 108  ARG108     -0.0865
     81  CZ       -12.8530   10.3740    7.9620 C.cat 108  ARG108      0.5346
     82  NH1      -13.8910    9.5710    7.8110 N.pl3 108  ARG108      0.1354
     83  NH2      -13.0730   11.6860    8.0530 N.pl3 108  ARG108      0.1354
     84  N        -10.8250    6.4430   13.7660 N.am  109  PHE109     -0.1962
     85  CA       -11.4890    5.6730   14.8140 C.3   109  PHE109      0.1771
     86  C        -11.3390    6.4580   16.1210 C.2   109  PHE109      0.2623
     87  O        -10.5390    7.4160   16.1450 O.2   109  PHE109     -0.2715
     88  CB       -10.8770    4.2740   14.9200 C.3   109  PHE109      0.0574
     89  CG        -9.3930    4.2660   14.9530 C.ar  109  PHE109     -0.0200
     90  CD1       -8.6780    3.9750   13.8220 C.ar  109  PHE109     -0.0042
     91  CD2       -8.6930    4.5850   16.1250 C.ar  109  PHE109     -0.0042
     92  CE1       -7.2650    3.9810   13.8100 C.ar  109  PHE109     -0.0003
     93  CE2       -7.2720    4.5860   16.1130 C.ar  109  PHE109     -0.0003
     94  CZ        -6.5750    4.2650   14.9240 C.ar  109  PHE109     -0.0000
     95  N        -12.0370    6.0040   17.1790 N.am  110  ARG110     -0.1918
     96  CA       -12.3100    6.7590   18.4030 C.3   110  ARG110      0.1945
     97  C        -11.8690    6.0680   19.7020 C.2   110  ARG110      0.2658
     98  O        -12.1890    6.5430   20.8610 O.2   110  ARG110     -0.2711
     99  CB       -13.8380    6.9320   18.4940 C.2   110  ARG110      0.0033
    100  CG       -14.4150    8.0190   17.6190 C.2   110  ARG110      0.0179
    101  CD       -15.9240    8.2890   17.7840 C.3   110  ARG110      0.2464
    102  NE       -16.7560    7.2090   17.2460 N.pl3 110  ARG110     -0.0815
    103  CZ       -18.0200    7.3150   16.8590 C.cat 110  ARG110      0.5349
    104  NH1      -18.6690    6.2730   16.4350 N.pl3 110  ARG110      0.1354
    105  NH2      -18.6460    8.4440   16.8710 N.pl3 110  ARG110      0.1354
    106  N        -11.2110    4.9120   19.5360 N.am  111  HIS111     -0.1970
    107  CA       -10.8340    4.0720   20.6660 C.3   111  HIS111      0.1656
    108  C         -9.3830    3.6930   20.4590 C.2   111  HIS111      0.2291
    109  O         -8.9480    3.2940   19.3190 O.2   111  HIS111     -0.2864
    110  CB       -11.7640    2.8730   20.7900 C.3   111  HIS111      0.0771
    111  CG       -13.1370    3.2110   21.3190 C.ar  111  HIS111      0.0820
    112  ND1      -14.2660    3.2470   20.5070 N.ar  111  HIS111     -0.2267
    113  CD2      -13.5560    3.5600   22.5810 C.ar  111  HIS111      0.1154
    114  CE1      -15.3180    3.5510   21.2600 C.ar  111  HIS111      0.1986
    115  NE2      -14.9180    3.7600   22.5180 N.ar  111  HIS111     -0.2212
    116  N         -6.5620    1.3320   22.6400 N.3   113  PRO113     -0.2116
    117  CA        -6.1420    0.4100   23.7010 C.3   113  PRO113      0.1372
    118  C         -4.7640    0.8290   24.1670 C.2   113  PRO113      0.2244
    119  O         -3.9210    1.1610   23.3210 O.2   113  PRO113     -0.2868
    120  CB        -6.0590   -0.9570   22.9580 C.3   113  PRO113      0.0268
    121  CG        -6.9530   -0.8410   21.8290 C.3   113  PRO113      0.0207
    122  CD        -6.7410    0.6060   21.3690 C.3   113  PRO113      0.0892
@<TRIPOS>BOND
     1    82    81    1
     2    79    80    1
     3    79    78    1
     4    81    80    2
     5    81    83    1
     6    78    77    1
     7    77    74    1
     8    34    33    1
     9    58    56   am
    10    56    57    2
    11    56    55    1
    12    31    30    1
    13    31    32    1
    14    73    74    1
    15    74    75    1
    16    55    52    1
    17    39    38    2
    18    33    32    2
    19    33    35    1
    20    28    27    2
    21    49    48    1
    22    42    41   ar
    23    30    29    1
    24    76    75    2
    25    75    84   am
    26    51    52    1
    27    38    37    1
    28    37    40    1
    29    37    36    1
    30    45    48    1
    31    45    44    1
    32    45    46    1
    33    27    36   am
    34    27    26    1
    35    52    53    1
    36    50    48    1
    37    41    40    1
    38    41    43   ar
    39    54    53    2
    40    29    26    1
    41    84    85    1
    42    46    47    2
    43    92    90   ar
    44    92    94   ar
    45    90    89   ar
    46    26    25    1
    47    53    59   am
    48    72    70    1
    49    85    88    1
    50    85    86    1
    51    88    89    1
    52    94    93   ar
    53    89    91   ar
    54    19    18    2
    55    59    60    1
    56    25    18   am
    57    18    17    1
    58    70    71    1
    59    70    67    1
    60    93    91   ar
    61    86    87    2
    62    86    95   am
    63    14    13    1
    64    12    11    2
    65     4     3    2
    66    60    61    1
    67    60    63    1
    68   104   103    1
    69    66    61   am
    70    66    67    1
    71    61    62    2
    72    67    68    1
    73   103   105    1
    74   103   102    2
    75    95    96    1
    76   102   101    1
    77    17    16    1
    78    17    20    1
    79    65    63    1
    80     7     5    1
    81    11    16   am
    82    11    10    1
    83     9    10    1
    84   100   101    1
    85   100    99    2
    86     3     2    1
    87    13    15    1
    88    13    10    1
    89    63    64    1
    90     1     2    1
    91    20    21    1
    92    21    22    1
    93    68    69    2
    94    96    99    1
    95    96    97    1
    96     2     5    1
    97     5     6    1
    98   109   108    2
    99    22    23   ar
   100    22    24   ar
   101     8     6    1
   102   106    97   am
   103   106   107    1
   104    97    98    2
   105   108   107    1
   106   112   114   ar
   107   112   111   ar
   108   107   110    1
   109   110   111    1
   110   114   115   ar
   111   111   113   ar
   112   122   121    1
   113   122   116    1
   114   121   120    1
   115   115   113   ar
   116   116   117    1
   117   120   117    1
   118   119   118    2
   119   117   118    1
