@<TRIPOS>MOLECULE
tmp/3fhqB01.pdb
 146 144 0 0 0
SMALL
GASTEIGER

@<TRIPOS>ATOM
      1  N        -22.1790   43.5940   49.5770 N.3    57  LEU57      -0.1245
      2  CA       -22.5660   44.1630   50.8550 C.3    57  LEU57       0.1561
      3  C        -23.9430   43.6410   51.1120 C.2    57  LEU57       0.2260
      4  O        -24.9140   44.1500   50.5420 O.2    57  LEU57      -0.2867
      5  CB       -22.6150   45.7020   50.8010 C.3    57  LEU57       0.0270
      6  CG       -21.3120   46.5120   50.8930 C.3    57  LEU57       0.0019
      7  CD1      -20.2370   45.9800   49.9570 C.3    57  LEU57       0.0001
      8  CD2      -21.5690   47.9730   50.6110 C.3    57  LEU57       0.0001
      9  N        -23.3500   43.4250   55.9840 N.3    92  TRP92      -0.1241
     10  CA       -23.9600   44.7210   56.1160 C.3    92  TRP92       0.1605
     11  C        -24.7550   44.8880   57.3910 C.2    92  TRP92       0.2264
     12  O        -25.7440   44.2030   57.6060 O.2    92  TRP92      -0.2867
     13  CB       -24.8500   45.0340   54.9340 C.3    92  TRP92       0.0550
     14  CG       -25.1210   46.4860   54.9080 C.ar   92  TRP92       0.0003
     15  CD1      -26.3210   47.1080   55.0900 C.ar   92  TRP92       0.0946
     16  CD2      -24.1440   47.5180   54.7540 C.ar   92  TRP92       0.0152
     17  NE1      -26.1560   48.4780   55.0190 N.ar   92  TRP92      -0.2442
     18  CE2      -24.8290   48.7550   54.8210 C.ar   92  TRP92       0.0810
     19  CE3      -22.7560   47.5170   54.5730 C.ar   92  TRP92       0.0012
     20  CZ2      -24.1790   49.9680   54.6930 C.ar   92  TRP92       0.0191
     21  CZ3      -22.1070   48.7330   54.4430 C.ar   92  TRP92       0.0001
     22  CH2      -22.8200   49.9430   54.5030 C.ar   92  TRP92       0.0015
     23  N        -19.9120   51.3250   60.6320 N.3   124  PHE124     -0.1241
     24  CA       -20.9180   52.1610   59.9810 C.3   124  PHE124      0.1605
     25  C        -21.0950   53.5040   60.6760 C.2   124  PHE124      0.2264
     26  O        -21.8330   53.5930   61.6570 O.2   124  PHE124     -0.2867
     27  CB       -22.2700   51.4250   59.9310 C.3   124  PHE124      0.0534
     28  CG       -23.3490   52.1860   59.2010 C.ar  124  PHE124     -0.0203
     29  CD1      -23.3030   52.3320   57.8170 C.ar  124  PHE124     -0.0042
     30  CD2      -24.4040   52.7480   59.8930 C.ar  124  PHE124     -0.0042
     31  CE1      -24.2900   53.0370   57.1390 C.ar  124  PHE124     -0.0003
     32  CE2      -25.3800   53.4460   59.2260 C.ar  124  PHE124     -0.0003
     33  CZ       -25.3230   53.5920   57.8440 C.ar  124  PHE124     -0.0000
     34  N        -15.1770   46.7530   56.5490 N.3   168  PHE168     -0.1241
     35  CA       -15.6430   47.7630   55.6160 C.3   168  PHE168      0.1605
     36  C        -15.7600   49.0360   56.4490 C.2   168  PHE168      0.2264
     37  O        -16.3420   49.0120   57.5280 O.2   168  PHE168     -0.2867
     38  CB       -17.0000   47.3720   55.0190 C.3   168  PHE168      0.0534
     39  CG       -17.5320   48.3480   53.9950 C.ar  168  PHE168     -0.0203
     40  CD1      -17.1780   48.2360   52.6550 C.ar  168  PHE168     -0.0042
     41  CD2      -18.3890   49.3730   54.3660 C.ar  168  PHE168     -0.0042
     42  CE1      -17.6750   49.1270   51.6990 C.ar  168  PHE168     -0.0003
     43  CE2      -18.8800   50.2680   53.4310 C.ar  168  PHE168     -0.0003
     44  CZ       -18.5260   50.1450   52.0950 C.ar  168  PHE168     -0.0000
     45  N        -17.3050   52.7580   56.5430 N.3   170  ASN170     -0.1240
     46  CA       -18.3400   53.5570   55.9050 C.3   170  ASN170      0.1653
     47  C        -18.5150   54.8630   56.6760 C.2   170  ASN170      0.2266
     48  O        -19.1660   54.8900   57.7280 O.2   170  ASN170     -0.2867
     49  CB       -19.6320   52.7370   55.8670 C.3   170  ASN170      0.1155
     50  CG       -20.8240   53.5100   55.3220 C.2   170  ASN170      0.2627
     51  OD1      -21.3680   53.1780   54.2610 O.2   170  ASN170     -0.2716
     52  ND2      -21.2040   54.5840   56.0270 N.am  170  ASN170     -0.0877
     53  N        -20.0030   58.3470   56.7390 N.3   172  GLU172     -0.1245
     54  CA       -20.9930   59.2170   56.1330 C.3   172  GLU172      0.1567
     55  C        -21.4850   60.2450   57.1400 C.2   172  GLU172      0.2260
     56  O        -22.4310   60.9680   56.8740 O.2   172  GLU172     -0.2867
     57  CB       -22.1720   58.4030   55.5880 C.3   172  GLU172      0.0388
     58  CG       -21.8660   57.6360   54.3150 C.3   172  GLU172      0.1160
     59  CD       -23.1050   56.9920   53.7000 C.2   172  GLU172      0.3649
     60  OE1      -23.4620   57.3730   52.5600 O.co2 172  GLU172     -0.2457
     61  OE2      -23.7290   56.1180   54.3560 O.co2 172  GLU172     -0.2457
     62  N        -15.2890   53.0210   51.8770 N.3   204  TYR204     -0.1241
     63  CA       -16.3880   53.5520   51.0800 C.3   204  TYR204      0.1605
     64  C        -15.9640   54.9150   50.4930 C.2   204  TYR204      0.2264
     65  O        -15.3970   55.7600   51.1860 O.2   204  TYR204     -0.2867
     66  CB       -17.6770   53.5650   51.9050 C.3   204  TYR204      0.0534
     67  CG       -18.8910   54.1230   51.1860 C.ar  204  TYR204     -0.0201
     68  CD1      -19.1380   53.8270   49.8510 C.ar  204  TYR204     -0.0009
     69  CD2      -19.8080   54.9190   51.8580 C.ar  204  TYR204     -0.0009
     70  CE1      -20.2340   54.3300   49.2000 C.ar  204  TYR204      0.0417
     71  CE2      -20.9170   55.4210   51.2100 C.ar  204  TYR204      0.0417
     72  CZ       -21.1220   55.1310   49.8810 C.ar  204  TYR204      0.1957
     73  OH       -22.2340   55.6420   49.2480 O.3   204  TYR204     -0.2866
     74  N        -14.9260   51.0620   47.6530 N.3   239  PHE239     -0.1241
     75  CA       -16.2470   50.8200   47.0930 C.3   239  PHE239      0.1605
     76  C        -16.7490   52.1470   46.5720 C.2   239  PHE239      0.2264
     77  O        -17.0760   53.0240   47.3680 O.2   239  PHE239     -0.2867
     78  CB       -17.1820   50.2810   48.1740 C.3   239  PHE239      0.0534
     79  CG       -18.5650   49.9100   47.6830 C.ar  239  PHE239     -0.0203
     80  CD1      -18.9030   48.5770   47.4580 C.ar  239  PHE239     -0.0042
     81  CD2      -19.5390   50.8950   47.4760 C.ar  239  PHE239     -0.0042
     82  CE1      -20.1770   48.2260   47.0190 C.ar  239  PHE239     -0.0003
     83  CE2      -20.8210   50.5490   47.0360 C.ar  239  PHE239     -0.0003
     84  CZ       -21.1350   49.2100   46.8080 C.ar  239  PHE239     -0.0000
     85  N        -19.2350   54.9050   45.0270 N.3   241  ASN241     -0.1225
     86  CA       -20.6660   55.2330   45.0660 C.3   241  ASN241      0.1785
     87  C        -21.3420   55.1140   43.7050 C.2   241  ASN241      0.2597
     88  O        -20.6800   55.1120   42.6810 O.2   241  ASN241     -0.2718
     89  CB       -20.8900   56.6340   45.6410 C.3   241  ASN241      0.1169
     90  CG       -22.3260   56.8550   46.1070 C.2   241  ASN241      0.2627
     91  OD1      -22.8690   56.0560   46.8780 O.2   241  ASN241     -0.2716
     92  ND2      -22.9480   57.9420   45.6380 N.am  241  ASN241     -0.0877
     93  N        -22.6720   55.0620   43.7090 N.am  242  PHE242     -0.1962
     94  CA       -23.4590   54.5600   42.5750 C.3   242  PHE242      0.1771
     95  C        -23.6180   55.4470   41.3200 C.2   242  PHE242      0.2619
     96  O        -23.9770   54.9400   40.2410 O.2   242  PHE242     -0.2715
     97  CB       -24.8520   54.1440   43.0640 C.3   242  PHE242      0.0574
     98  CG       -24.8360   53.3610   44.3570 C.ar  242  PHE242     -0.0200
     99  CD1      -25.3910   53.8930   45.5170 C.ar  242  PHE242     -0.0042
    100  CD2      -24.2550   52.1030   44.4140 C.ar  242  PHE242     -0.0042
    101  CE1      -25.3820   53.1830   46.6950 C.ar  242  PHE242     -0.0003
    102  CE2      -24.2350   51.3960   45.5910 C.ar  242  PHE242     -0.0003
    103  CZ       -24.7900   51.9360   46.7350 C.ar  242  PHE242     -0.0000
    104  N        -23.3680   56.7450   41.4380 N.am  243  TRP243     -0.1974
    105  CA       -23.8010   57.6640   40.3810 C.3   243  TRP243      0.1640
    106  C        -22.7410   57.8910   39.2910 C.2   243  TRP243      0.2290
    107  O        -22.2260   58.9950   39.0960 O.2   243  TRP243     -0.2864
    108  CB       -24.3710   58.9650   40.9840 C.3   243  TRP243      0.0576
    109  CG       -25.3440   58.6180   42.0940 C.ar  243  TRP243      0.0006
    110  CD1      -26.3830   57.7280   42.0210 C.ar  243  TRP243      0.0946
    111  CD2      -25.3300   59.1040   43.4440 C.ar  243  TRP243      0.0152
    112  NE1      -27.0190   57.6400   43.2360 N.ar  243  TRP243     -0.2442
    113  CE2      -26.3930   58.4790   44.1250 C.ar  243  TRP243      0.0810
    114  CE3      -24.5320   60.0220   44.1380 C.ar  243  TRP243      0.0012
    115  CZ2      -26.6720   58.7380   45.4720 C.ar  243  TRP243      0.0191
    116  CZ3      -24.8150   60.2770   45.4700 C.ar  243  TRP243      0.0001
    117  CH2      -25.8740   59.6400   46.1210 C.ar  243  TRP243      0.0015
    118  N        -26.5270   49.9420   43.3230 N.3   269  ASP269     -0.1239
    119  CA       -27.5030   49.8590   44.3970 C.3   269  ASP269      0.1674
    120  C        -28.6800   49.0050   43.9430 C.2   269  ASP269      0.2266
    121  O        -29.4680   49.4350   43.1020 O.2   269  ASP269     -0.2867
    122  CB       -27.9990   51.2530   44.7560 C.3   269  ASP269      0.1410
    123  CG       -28.8920   51.2660   45.9850 C.2   269  ASP269      0.3668
    124  OD1      -29.2160   50.1890   46.5130 O.co2 269  ASP269     -0.2456
    125  OD2      -29.2800   52.3700   46.4210 O.co2 269  ASP269     -0.2456
    126  N        -30.7510   47.4070   46.1960 N.3   271  GLU271     -0.1245
    127  CA       -31.5640   47.1380   47.3600 C.3   271  GLU271      0.1567
    128  C        -33.0460   47.1010   47.0340 C.2   271  GLU271      0.2260
    129  O        -33.7360   46.1630   47.4280 O.2   271  GLU271     -0.2867
    130  CB       -31.2950   48.1350   48.4800 C.3   271  GLU271      0.0388
    131  CG       -32.0100   47.7530   49.7500 C.3   271  GLU271      0.1160
    132  CD       -31.7380   48.6980   50.9060 C.2   271  GLU271      0.3649
    133  OE1      -31.0380   49.7240   50.7060 O.co2 271  GLU271     -0.2457
    134  OE2      -32.2360   48.4100   52.0160 O.co2 271  GLU271     -0.2457
    135  N        -24.4270   46.5720   46.2310 N.3   298  TYR298     -0.1241
    136  CA       -25.0300   47.0100   47.4830 C.3   298  TYR298      0.1605
    137  C        -26.3530   46.2300   47.5970 C.2   298  TYR298      0.2264
    138  O        -27.2630   46.3770   46.7510 O.2   298  TYR298     -0.2867
    139  CB       -25.1420   48.5380   47.5480 C.3   298  TYR298      0.0534
    140  CG       -25.7330   48.9420   48.8480 C.ar  298  TYR298     -0.0201
    141  CD1      -25.0660   48.6750   50.0380 C.ar  298  TYR298     -0.0009
    142  CD2      -26.9990   49.5010   48.9090 C.ar  298  TYR298     -0.0009
    143  CE1      -25.6300   48.9820   51.2610 C.ar  298  TYR298      0.0417
    144  CE2      -27.5800   49.8040   50.1250 C.ar  298  TYR298      0.0417
    145  CZ       -26.8860   49.5470   51.3060 C.ar  298  TYR298      0.1957
    146  OH       -27.4320   49.8670   52.5330 O.3   298  TYR298     -0.2866
@<TRIPOS>BOND
     1   107   106    2
     2   106   105    1
     3    96    95    2
     4   105   108    1
     5   105   104    1
     6   108   109    1
     7    95   104   am
     8    95    94    1
     9   110   109   ar
    10   110   112   ar
    11   109   111   ar
    12    94    97    1
    13    94    93    1
    14    88    87    2
    15    97    98    1
    16   121   120    2
    17   112   113   ar
    18   118   119    1
    19   111   113   ar
    20   111   114   ar
    21    87    93   am
    22    87    86    1
    23   120   119    1
    24   113   115   ar
    25   114   116   ar
    26    98   100   ar
    27    98    99   ar
    28   119   122    1
    29   100   102   ar
    30   122   123    1
    31    85    86    1
    32    86    89    1
    33   116   117   ar
    34   115   117   ar
    35    99   101   ar
    36   102   103   ar
    37    92    90   am
    38    89    90    1
    39   123   125   ar
    40   123   124   ar
    41    90    91    2
    42   126   127    1
    43   135   136    1
    44    76    75    1
    45    76    77    2
    46   101   103   ar
    47   138   137    2
    48    84    82   ar
    49    84    83   ar
    50    82    80   ar
    51   128   127    1
    52   128   129    2
    53    83    81   ar
    54    75    74    1
    55    75    78    1
    56   127   130    1
    57    80    79   ar
    58    81    79   ar
    59   136   139    1
    60   136   137    1
    61   139   140    1
    62    79    78    1
    63   130   131    1
    64   140   142   ar
    65   140   141   ar
    66   142   144   ar
    67    70    68   ar
    68    70    72   ar
    69    73    72    1
    70     1     2    1
    71   131   132    1
    72    68    67   ar
    73    72    71   ar
    74     7     6    1
    75   141   143   ar
    76   144   145   ar
    77    64    63    1
    78    64    65    2
    79     4     3    2
    80     8     6    1
    81   133   132   ar
    82     5     2    1
    83     5     6    1
    84     2     3    1
    85   132   134   ar
    86    63    62    1
    87    63    66    1
    88    67    69   ar
    89    67    66    1
    90    71    69   ar
    91   143   145   ar
    92   145   146    1
    93    42    44   ar
    94    42    40   ar
    95    44    43   ar
    96    60    59   ar
    97    40    39   ar
    98    43    41   ar
    99    59    58    1
   100    59    61   ar
   101    39    41   ar
   102    39    38    1
   103    51    50    2
   104    58    57    1
   105    21    22   ar
   106    21    19   ar
   107    22    20   ar
   108    19    16   ar
   109    20    18   ar
   110    16    18   ar
   111    16    14   ar
   112    18    17   ar
   113    14    13    1
   114    14    15   ar
   115    13    10    1
   116    38    35    1
   117    17    15   ar
   118    50    49    1
   119    50    52   am
   120    57    54    1
   121    35    36    1
   122    35    34    1
   123    49    46    1
   124    46    45    1
   125    46    47    1
   126     9    10    1
   127    10    11    1
   128    54    53    1
   129    54    55    1
   130    36    37    2
   131    47    48    2
   132    56    55    2
   133    31    29   ar
   134    31    33   ar
   135    11    12    2
   136    29    28   ar
   137    33    32   ar
   138    28    30   ar
   139    28    27    1
   140    32    30   ar
   141    27    24    1
   142    24    23    1
   143    24    25    1
   144    25    26    2
