@<TRIPOS>MOLECULE
tmp/3fhqB00.pdb
 120 118 0 0 0
SMALL
GASTEIGER

@<TRIPOS>ATOM
      1  N        -23.3500   43.4250   55.9840 N.3    92  TRP92      -0.1241
      2  CA       -23.9600   44.7210   56.1160 C.3    92  TRP92       0.1605
      3  C        -24.7550   44.8880   57.3910 C.2    92  TRP92       0.2264
      4  O        -25.7440   44.2030   57.6060 O.2    92  TRP92      -0.2867
      5  CB       -24.8500   45.0340   54.9340 C.3    92  TRP92       0.0550
      6  CG       -25.1210   46.4860   54.9080 C.ar   92  TRP92       0.0003
      7  CD1      -26.3210   47.1080   55.0900 C.ar   92  TRP92       0.0946
      8  CD2      -24.1440   47.5180   54.7540 C.ar   92  TRP92       0.0152
      9  NE1      -26.1560   48.4780   55.0190 N.ar   92  TRP92      -0.2442
     10  CE2      -24.8290   48.7550   54.8210 C.ar   92  TRP92       0.0810
     11  CE3      -22.7560   47.5170   54.5730 C.ar   92  TRP92       0.0012
     12  CZ2      -24.1790   49.9680   54.6930 C.ar   92  TRP92       0.0191
     13  CZ3      -22.1070   48.7330   54.4430 C.ar   92  TRP92       0.0001
     14  CH2      -22.8200   49.9430   54.5030 C.ar   92  TRP92       0.0015
     15  N        -25.1850   47.7190   61.2730 N.3    94  GLY94      -0.1210
     16  CA       -24.8730   48.9390   61.9720 C.3    94  GLY94       0.1956
     17  C        -26.0020   49.9550   61.9120 C.2    94  GLY94       0.2613
     18  O        -26.6040   50.1910   60.8620 O.2    94  GLY94      -0.2717
     19  N        -26.2760   50.5730   63.0480 N.am   95  SER95      -0.1938
     20  CA       -27.2520   51.6520   63.1170 C.3    95  SER95       0.2055
     21  C        -26.9910   52.5140   64.3400 C.2    95  SER95       0.2642
     22  O        -26.4160   52.0470   65.3420 O.2    95  SER95      -0.2714
     23  CB       -28.6800   51.1000   63.2070 C.3    95  SER95       0.2130
     24  OG       -28.8860   50.3730   64.4210 O.3    95  SER95      -0.2179
     25  N        -27.4260   53.7660   64.2480 N.am   96  ALA96      -0.1977
     26  CA       -27.3540   54.7100   65.3530 C.3    96  ALA96       0.1597
     27  C        -28.0230   54.1680   66.6220 C.2    96  ALA96       0.2287
     28  O        -27.5380   54.4080   67.7220 O.2    96  ALA96      -0.2864
     29  CB       -27.9720   56.0240   64.9460 C.3    96  ALA96       0.0319
     30  N        -28.5120   50.8170   67.4660 N.3    98  GLU98      -0.1245
     31  CA       -28.0890   49.4860   67.9340 C.3    98  GLU98       0.1567
     32  C        -26.5780   49.3090   68.1220 C.2    98  GLU98       0.2260
     33  O        -26.1550   48.4960   68.9430 O.2    98  GLU98      -0.2867
     34  CB       -28.5970   48.3960   66.9880 C.3    98  GLU98       0.0388
     35  CG       -30.1160   48.2550   66.9320 C.3    98  GLU98       0.1160
     36  CD       -30.5660   47.5150   65.6800 C.2    98  GLU98       0.3649
     37  OE1      -30.2170   47.9670   64.5670 O.co2  98  GLU98      -0.2457
     38  OE2      -31.2600   46.4830   65.8050 O.co2  98  GLU98      -0.2457
     39  N        -19.9120   51.3250   60.6320 N.3   124  PHE124     -0.1241
     40  CA       -20.9180   52.1610   59.9810 C.3   124  PHE124      0.1605
     41  C        -21.0950   53.5040   60.6760 C.2   124  PHE124      0.2264
     42  O        -21.8330   53.5930   61.6570 O.2   124  PHE124     -0.2867
     43  CB       -22.2700   51.4250   59.9310 C.3   124  PHE124      0.0534
     44  CG       -23.3490   52.1860   59.2010 C.ar  124  PHE124     -0.0203
     45  CD1      -23.3030   52.3320   57.8170 C.ar  124  PHE124     -0.0042
     46  CD2      -24.4040   52.7480   59.8930 C.ar  124  PHE124     -0.0042
     47  CE1      -24.2900   53.0370   57.1390 C.ar  124  PHE124     -0.0003
     48  CE2      -25.3800   53.4460   59.2260 C.ar  124  PHE124     -0.0003
     49  CZ       -25.3230   53.5920   57.8440 C.ar  124  PHE124     -0.0000
     50  N        -23.0260   56.5510   60.4540 N.3   126  PRO126     -0.2103
     51  CA       -24.2660   56.8890   59.7410 C.3   126  PRO126      0.1489
     52  C        -24.4340   58.3630   59.4370 C.2   126  PRO126      0.2417
     53  O        -23.9740   59.2120   60.2010 O.2   126  PRO126     -0.2734
     54  CB       -25.3670   56.4750   60.7300 C.3   126  PRO126      0.0282
     55  CG       -24.6550   55.6640   61.8220 C.3   126  PRO126      0.0208
     56  CD       -23.2850   56.2350   61.8670 C.3   126  PRO126      0.0893
     57  N        -25.1060   58.6730   58.3200 N.am  127  PRO127     -0.2729
     58  CA       -25.5080   60.0640   58.0870 C.3   127  PRO127      0.1401
     59  C        -26.2550   60.6070   59.3080 C.2   127  PRO127      0.2269
     60  O        -26.9670   59.8480   59.9430 O.2   127  PRO127     -0.2865
     61  CB       -26.4760   59.9490   56.9060 C.3   127  PRO127      0.0296
     62  CG       -26.1110   58.6490   56.2200 C.3   127  PRO127      0.0237
     63  CD       -25.6620   57.7430   57.3130 C.3   127  PRO127      0.0939
     64  N        -29.7650   59.9210   60.0860 N.3   130  TYR130     -0.1241
     65  CA       -30.0720   58.5970   60.5810 C.3   130  TYR130      0.1605
     66  C        -29.5030   58.3910   61.9600 C.2   130  TYR130      0.2264
     67  O        -29.3200   57.2710   62.3940 O.2   130  TYR130     -0.2867
     68  CB       -29.6060   57.5300   59.6000 C.3   130  TYR130      0.0534
     69  CG       -30.2750   57.6550   58.2480 C.ar  130  TYR130     -0.0201
     70  CD1      -31.6650   57.7270   58.1340 C.ar  130  TYR130     -0.0009
     71  CD2      -29.5180   57.7070   57.0860 C.ar  130  TYR130     -0.0009
     72  CE1      -32.2790   57.8490   56.8880 C.ar  130  TYR130      0.0417
     73  CE2      -30.1140   57.8290   55.8510 C.ar  130  TYR130      0.0417
     74  CZ       -31.4990   57.9020   55.7530 C.ar  130  TYR130      0.1957
     75  OH       -32.0830   58.0260   54.5040 O.3   130  TYR130     -0.2866
     76  N        -26.5270   49.9420   43.3230 N.3   269  ASP269     -0.1239
     77  CA       -27.5030   49.8590   44.3970 C.3   269  ASP269      0.1674
     78  C        -28.6800   49.0050   43.9430 C.2   269  ASP269      0.2266
     79  O        -29.4680   49.4350   43.1020 O.2   269  ASP269     -0.2867
     80  CB       -27.9990   51.2530   44.7560 C.3   269  ASP269      0.1410
     81  CG       -28.8920   51.2660   45.9850 C.2   269  ASP269      0.3668
     82  OD1      -29.2160   50.1890   46.5130 O.co2 269  ASP269     -0.2456
     83  OD2      -29.2800   52.3700   46.4210 O.co2 269  ASP269     -0.2456
     84  N        -30.7510   47.4070   46.1960 N.3   271  GLU271     -0.1231
     85  CA       -31.5640   47.1380   47.3600 C.3   271  GLU271      0.1699
     86  C        -33.0460   47.1010   47.0340 C.2   271  GLU271      0.2592
     87  O        -33.7360   46.1630   47.4280 O.2   271  GLU271     -0.2718
     88  CB       -31.2950   48.1350   48.4800 C.3   271  GLU271      0.0402
     89  CG       -32.0100   47.7530   49.7500 C.3   271  GLU271      0.1161
     90  CD       -31.7380   48.6980   50.9060 C.2   271  GLU271      0.3649
     91  OE1      -31.0380   49.7240   50.7060 O.co2 271  GLU271     -0.2457
     92  OE2      -32.2360   48.4100   52.0160 O.co2 271  GLU271     -0.2457
     93  N        -33.5410   48.1050   46.3140 N.am  272  ALA272     -0.1980
     94  CA       -34.9920   48.2470   46.1270 C.3   272  ALA272      0.1597
     95  C        -35.5700   47.4080   45.0120 C.2   272  ALA272      0.2287
     96  O        -36.7080   46.9530   45.1250 O.2   272  ALA272     -0.2864
     97  CB       -35.3760   49.7070   45.9170 C.3   272  ALA272      0.0319
     98  N        -24.4270   46.5720   46.2310 N.3   298  TYR298     -0.1227
     99  CA       -25.0300   47.0100   47.4830 C.3   298  TYR298      0.1736
    100  C        -26.3530   46.2300   47.5970 C.2   298  TYR298      0.2595
    101  O        -27.2630   46.3770   46.7510 O.2   298  TYR298     -0.2718
    102  CB       -25.1420   48.5380   47.5480 C.3   298  TYR298      0.0548
    103  CG       -25.7330   48.9420   48.8480 C.ar  298  TYR298     -0.0200
    104  CD1      -25.0660   48.6750   50.0380 C.ar  298  TYR298     -0.0009
    105  CD2      -26.9990   49.5010   48.9090 C.ar  298  TYR298     -0.0009
    106  CE1      -25.6300   48.9820   51.2610 C.ar  298  TYR298      0.0417
    107  CE2      -27.5800   49.8040   50.1250 C.ar  298  TYR298      0.0417
    108  CZ       -26.8860   49.5470   51.3060 C.ar  298  TYR298      0.1957
    109  OH       -27.4320   49.8670   52.5330 O.3   298  TYR298     -0.2866
    110  N        -26.4310   45.3730   48.6180 N.am  299  ARG299     -0.1980
    111  CA       -27.6750   44.7460   49.0710 C.3   299  ARG299      0.1597
    112  C        -28.3840   43.6730   48.2340 C.2   299  ARG299      0.2287
    113  O        -29.6090   43.7050   48.1230 O.2   299  ARG299     -0.2864
    114  CB       -28.6800   45.8260   49.4680 C.3   299  ARG299      0.0334
    115  CG       -28.2050   46.6650   50.6350 C.3   299  ARG299      0.0492
    116  CD       -28.2060   45.8770   51.9540 C.3   299  ARG299      0.2205
    117  NE       -28.9010   46.6840   52.9650 N.pl3 299  ARG299     -0.0865
    118  CZ       -30.0120   46.3220   53.5920 C.cat 299  ARG299      0.5346
    119  NH1      -30.5640   45.1370   53.3670 N.pl3 299  ARG299      0.1354
    120  NH2      -30.5570   47.1360   54.4700 N.pl3 299  ARG299      0.1354
@<TRIPOS>BOND
     1    79    78    2
     2    76    77    1
     3    78    77    1
     4    77    80    1
     5    80    81    1
     6    95    96    2
     7    95    94    1
     8    97    94    1
     9    81    83   ar
    10    81    82   ar
    11    94    93    1
    12    84    85    1
    13    98    99    1
    14    93    86   am
    15   101   100    2
    16    86    85    1
    17    86    87    2
    18    85    88    1
    19    99   102    1
    20    99   100    1
    21   102   103    1
    22   100   110   am
    23   113   112    2
    24   112   111    1
    25    88    89    1
    26   110   111    1
    27   103   105   ar
    28   103   104   ar
    29   105   107   ar
    30   111   114    1
    31   114   115    1
    32    89    90    1
    33   104   106   ar
    34   107   108   ar
    35   115   116    1
    36    91    90   ar
    37    90    92   ar
    38   106   108   ar
    39   108   109    1
    40   116   117    1
    41   117   118    2
    42   119   118    1
    43   118   120    1
    44    13    14   ar
    45    13    11   ar
    46    14    12   ar
    47    75    74    1
    48    11     8   ar
    49    12    10   ar
    50     8    10   ar
    51     8     6   ar
    52    10     9   ar
    53     6     5    1
    54     6     7   ar
    55     5     2    1
    56     9     7   ar
    57    74    73   ar
    58    74    72   ar
    59    73    71   ar
    60     1     2    1
    61     2     3    1
    62    62    61    1
    63    62    63    1
    64    72    70   ar
    65    61    58    1
    66    71    69   ar
    67    47    45   ar
    68    47    49   ar
    69    63    57    1
    70     3     4    2
    71    45    44   ar
    72    49    48   ar
    73    58    57    1
    74    58    59    1
    75    70    69   ar
    76    69    68    1
    77    57    52   am
    78    44    46   ar
    79    44    43    1
    80    48    46   ar
    81    59    60    2
    82    52    51    1
    83    52    53    2
    84    68    65    1
    85    51    50    1
    86    51    54    1
    87    43    40    1
    88    40    39    1
    89    40    41    1
    90    64    65    1
    91    50    56    1
    92    65    66    1
    93    41    42    2
    94    54    55    1
    95    18    17    2
    96    15    16    1
    97    55    56    1
    98    17    16    1
    99    17    19   am
   100    66    67    2
   101    19    20    1
   102    20    23    1
   103    20    21    1
   104    23    24    1
   105    25    21   am
   106    25    26    1
   107    21    22    2
   108    37    36   ar
   109    29    26    1
   110    26    27    1
   111    36    38   ar
   112    36    35    1
   113    27    28    2
   114    35    34    1
   115    34    31    1
   116    30    31    1
   117    31    32    1
   118    32    33    2
