@<TRIPOS>MOLECULE
tmp/3fhrA00.pdb
 190 175 0 0 0
SMALL
GASTEIGER

@<TRIPOS>ATOM
      1  N         15.3250   15.5050   16.9960 N.3    16  GLN16      -0.1245
      2  CA        15.3560   14.6110   15.8380 C.3    16  GLN16       0.1566
      3  C         15.5270   13.1530   16.2690 C.2    16  GLN16       0.2260
      4  O         16.5500   12.7990   16.8690 O.2    16  GLN16      -0.2867
      5  CB        16.4590   14.9780   14.8380 C.3    16  GLN16       0.0367
      6  CG        16.1010   14.4980   13.4190 C.3    16  GLN16       0.0905
      7  CD        17.2700   13.9180   12.6380 C.2    16  GLN16       0.2608
      8  OE1       18.4400   14.1240   12.9920 O.2    16  GLN16      -0.2717
      9  NE2       16.9570   13.1780   11.5580 N.am   16  GLN16      -0.0878
     10  N         16.2230    9.3730   15.5530 N.3    18  LEU18      -0.1231
     11  CA        17.0230    8.5690   14.6290 C.3    18  LEU18       0.1696
     12  C         16.5600    7.1170   14.5790 C.2    18  LEU18       0.2632
     13  O         16.9250    6.3810   13.6540 O.2    18  LEU18      -0.2714
     14  CB        18.4850    8.6180   15.0310 C.3    18  LEU18       0.0284
     15  CG        19.1230    9.9790   15.1860 C.3    18  LEU18       0.0019
     16  CD1       20.5070    9.8030   15.7790 C.3    18  LEU18       0.0001
     17  CD2       19.1760   10.6980   13.8330 C.3    18  LEU18       0.0001
     18  N         15.7320    6.7220   15.5520 N.am   19  GLY19      -0.1718
     19  CA        15.2630    5.3460   15.6660 C.2    19  GLY19       0.1480
     20  C         14.3820    5.0590   16.8730 C.2    19  GLY19       0.2820
     21  O         14.2290    5.9020   17.7580 O.2    19  GLY19      -0.2669
     22  N         13.7990    3.8630   16.8980 N.am   20  LEU20      -0.1929
     23  CA        12.9140    3.4120   17.9850 C.3    20  LEU20       0.1731
     24  C         13.1940    1.9570   18.3580 C.2    20  LEU20       0.2616
     25  O         12.9490    1.0650   17.5370 O.2    20  LEU20      -0.2715
     26  CB        11.4600    3.5100   17.5320 C.3    20  LEU20       0.0311
     27  CG        10.8260    4.8920   17.3940 C.3    20  LEU20       0.0022
     28  CD1        9.9010    4.9350   16.1640 C.3    20  LEU20       0.0001
     29  CD2       10.0930    5.2700   18.7010 C.3    20  LEU20       0.0001
     30  N         13.7120    1.7110   19.5680 N.am   21  GLY21      -0.1955
     31  CA        14.0040    0.3390   20.0380 C.3    21  GLY21       0.1869
     32  C         13.1200   -0.0690   21.2090 C.2    21  GLY21       0.2309
     33  O         12.7000    0.7970   21.9640 O.2    21  GLY21      -0.2863
     34  N         15.6870    6.8480   20.0460 N.3    26  VAL26      -0.1245
     35  CA        17.0580    7.2180   19.7120 C.3    26  VAL26       0.1561
     36  C         16.9940    8.6420   19.1290 C.2    26  VAL26       0.2260
     37  O         16.2480    8.9250   18.2010 O.2    26  VAL26      -0.2867
     38  CB        17.7890    6.1290   18.8040 C.3    26  VAL26       0.0252
     39  CG1       19.2850    6.4530   18.6060 C.3    26  VAL26       0.0019
     40  CG2       17.6530    4.7350   19.4190 C.3    26  VAL26       0.0019
     41  N         19.1580   12.2940   18.0010 N.3    28  GLU28      -0.1245
     42  CA        20.4220   12.9050   17.6320 C.3    28  GLU28       0.1567
     43  C         20.9610   13.7800   18.7650 C.2    28  GLU28       0.2260
     44  O         20.2030   14.3580   19.5380 O.2    28  GLU28      -0.2867
     45  CB        20.1620   13.7140   16.3880 C.3    28  GLU28       0.0388
     46  CG        21.3410   14.2860   15.7250 C.3    28  GLU28       0.1160
     47  CD        20.8910   15.0750   14.5270 C.2    28  GLU28       0.3649
     48  OE1       20.3130   16.1740   14.7320 O.co2  28  GLU28      -0.2457
     49  OE2       21.0540   14.5670   13.3980 O.co2  28  GLU28      -0.2457
     50  N         28.4780   14.7170   15.9340 N.3    37  LYS37      -0.1245
     51  CA        27.1210   14.1880   15.9660 C.3    37  LYS37       0.1561
     52  C         27.1460   12.7520   16.5070 C.2    37  LYS37       0.2260
     53  O         27.9730   11.9150   16.0750 O.2    37  LYS37      -0.2867
     54  CB        26.4820   14.1980   14.5740 C.3    37  LYS37       0.0271
     55  CG        24.9720   14.0710   14.6020 C.3    37  LYS37       0.0035
     56  CD        24.3680   13.9200   13.2110 C.3    37  LYS37       0.0206
     57  CE        24.4640   15.2110   12.3930 C.3    37  LYS37       0.1093
     58  NZ        23.4000   15.2660   11.3320 N.3    37  LYS37      -0.1314
     59  N         24.3330    9.6650   18.7100 N.3    39  ALA39      -0.1245
     60  CA        22.9450    9.2490   18.9010 C.3    39  ALA39       0.1562
     61  C         22.7290    8.9710   20.3740 C.2    39  ALA39       0.2260
     62  O         23.6230    8.4610   21.0370 O.2    39  ALA39      -0.2867
     63  CB        22.6370    8.0440   18.0530 C.3    39  ALA39       0.0290
     64  N         20.2670    7.1240   23.1350 N.3    41  LYS41      -0.1245
     65  CA        19.1620    6.2160   23.4710 C.3    41  LYS41       0.1561
     66  C         18.7410    6.3930   24.9170 C.2    41  LYS41       0.2260
     67  O         19.5040    6.1380   25.8350 O.2    41  LYS41      -0.2867
     68  CB        19.5050    4.7460   23.2190 C.3    41  LYS41       0.0271
     69  CG        18.2530    3.8420   23.2810 C.3    41  LYS41       0.0035
     70  CD        18.5620    2.4080   22.8430 C.3    41  LYS41       0.0206
     71  CE        17.2830    1.5910   22.7590 C.3    41  LYS41       0.1093
     72  NZ        17.5220    0.2510   22.1350 N.3    41  LYS41      -0.1314
     73  N         20.3440   -4.4720   28.7590 N.3    52  GLU52      -0.1245
     74  CA        20.7050   -3.8570   27.4640 C.3    52  GLU52       0.1567
     75  C         22.0250   -3.1380   27.5710 C.2    52  GLU52       0.2260
     76  O         22.9680   -3.4480   26.8180 O.2    52  GLU52      -0.2867
     77  CB        19.6050   -2.9400   26.9280 C.3    52  GLU52       0.0388
     78  CG        20.0520   -2.1140   25.7380 C.3    52  GLU52       0.1160
     79  CD        18.9290   -1.5600   24.9200 C.2    52  GLU52       0.3649
     80  OE1       19.2410   -0.8110   23.9620 O.co2  52  GLU52      -0.2457
     81  OE2       17.7450   -1.8900   25.1730 O.co2  52  GLU52      -0.2457
     82  N         27.6090   -1.4810   16.6060 N.3    66  VAL66      -0.1245
     83  CA        27.5330   -0.0430   16.9270 C.3    66  VAL66       0.1561
     84  C         28.1670    0.2340   18.3200 C.2    66  VAL66       0.2260
     85  O         27.7190   -0.3140   19.3340 O.2    66  VAL66      -0.2867
     86  CB        26.0800    0.5130   16.8560 C.3    66  VAL66       0.0252
     87  CG1       26.0310    1.9610   17.3150 C.3    66  VAL66       0.0019
     88  CG2       25.5320    0.3900   15.4340 C.3    66  VAL66       0.0019
     89  N         25.9560    6.5850   21.6550 N.3    86  MET86      -0.1230
     90  CA        26.5700    5.7340   20.6570 C.3    86  MET86       0.1702
     91  C         26.9840    6.5020   19.4070 C.2    86  MET86       0.2592
     92  O         26.5970    7.6660   19.2140 O.2    86  MET86      -0.2718
     93  CB        25.7340    4.4750   20.3500 C.3    86  MET86       0.0401
     94  CG        24.3230    4.6780   19.9570 C.3    86  MET86       0.0596
     95  SD        23.4520    3.1050   20.0370 S.3    86  MET86      -0.1393
     96  CE        22.0120    3.6420   20.9560 C.3    86  MET86       0.0692
     97  N         27.8180    5.8640   18.5850 N.am   87  GLU87      -0.1966
     98  CA        28.2560    6.4800   17.3410 C.3    87  GLU87       0.1733
     99  C         27.0170    6.6910   16.5010 C.2    87  GLU87       0.2616
    100  O         26.0510    5.9170   16.5840 O.2    87  GLU87      -0.2715
    101  CB        29.3280    5.6390   16.6300 C.3    87  GLU87       0.0429
    102  CG        28.8950    4.2280   16.2080 C.3    87  GLU87       0.1163
    103  CD        30.0110    3.4720   15.5110 C.2    87  GLU87       0.3649
    104  OE1       30.2850    2.3350   15.9140 O.co2  87  GLU87      -0.2457
    105  OE2       30.6050    4.0130   14.5490 O.co2  87  GLU87      -0.2457
    106  N         27.0190    7.7930   15.7620 N.am   88  CYS88      -0.1954
    107  CA        25.9080    8.1700   14.9240 C.3    88  CYS88       0.1843
    108  C         26.0250    7.3520   13.6460 C.2    88  CYS88       0.2625
    109  O         27.0860    7.3180   13.0150 O.2    88  CYS88      -0.2714
    110  CB        26.0080    9.6570   14.6170 C.3    88  CYS88       0.0997
    111  SG        24.5110   10.3170   13.9550 S.3    88  CYS88      -0.0797
    112  N         24.9550    6.6680   13.2670 N.am   89  MET89      -0.1963
    113  CA        25.0530    5.7380   12.1560 C.3    89  MET89       0.1736
    114  C         24.4250    6.4390   10.9780 C.2    89  MET89       0.2616
    115  O         23.2600    6.1870   10.6390 O.2    89  MET89      -0.2715
    116  CB        24.3620    4.4020   12.4700 C.3    89  MET89       0.0427
    117  CG        25.0120    3.5560   13.5320 C.3    89  MET89       0.0599
    118  SD        26.7720    3.1890   13.1580 S.3    89  MET89      -0.1393
    119  CE        26.6950    1.9200   11.9690 C.3    89  MET89       0.0692
    120  N         25.1950    7.3700   10.4110 N.am   90  GLU90      -0.1977
    121  CA        24.6850    8.3990    9.5010 C.3    90  GLU90       0.1602
    122  C         24.2440    7.8650    8.1390 C.2    90  GLU90       0.2287
    123  O         23.5670    8.5620    7.3730 O.2    90  GLU90      -0.2864
    124  CB        25.7100    9.5290    9.3460 C.3    90  GLU90       0.0415
    125  CG        25.9020   10.2780   10.6660 C.3    90  GLU90       0.1163
    126  CD        26.7350   11.5500   10.5780 C.2    90  GLU90       0.3649
    127  OE1       27.6890   11.6710   11.3860 O.co2  90  GLU90      -0.2457
    128  OE2       26.4400   12.4210    9.7270 O.co2  90  GLU90      -0.2457
    129  N         22.2430    5.3540    7.8110 N.3    92  GLY92      -0.1210
    130  CA        20.8880    4.7740    7.9340 C.3    92  GLY92       0.1956
    131  C         20.8810    3.2600    7.8280 C.2    92  GLY92       0.2611
    132  O         21.8940    2.6010    7.9980 O.2    92  GLY92      -0.2717
    133  N         19.7010    2.7280    7.5320 N.am   93  GLU93      -0.1979
    134  CA        19.4300    1.3100    7.4730 C.3    93  GLU93       0.1602
    135  C         19.9900    0.6620    6.2140 C.2    93  GLU93       0.2287
    136  O         19.9700    1.2400    5.1230 O.2    93  GLU93      -0.2864
    137  CB        17.9150    1.0750    7.5390 C.3    93  GLU93       0.0415
    138  CG        17.3520    1.5150    8.8590 C.3    93  GLU93       0.1163
    139  CD        15.8850    1.2740    8.9820 C.2    93  GLU93       0.3649
    140  OE1       15.3640    1.4750   10.0920 O.co2  93  GLU93      -0.2457
    141  OE2       15.2490    0.8860    7.9840 O.co2  93  GLU93      -0.2457
    142  N         15.7360   -2.9020   10.9750 N.3   137  GLU137     -0.1231
    143  CA        15.9100   -1.7150   11.8210 C.3   137  GLU137      0.1699
    144  C         17.2510   -1.5970   12.5400 C.2   137  GLU137      0.2592
    145  O         17.6030   -0.5080   12.9550 O.2   137  GLU137     -0.2718
    146  CB        14.8540   -1.6690   12.8910 C.3   137  GLU137      0.0402
    147  CG        13.4690   -1.3550   12.3320 C.3   137  GLU137      0.1161
    148  CD        12.6570   -2.5830   11.9460 C.2   137  GLU137      0.3649
    149  OE1       13.2330   -3.6270   11.5450 O.co2 137  GLU137     -0.2457
    150  OE2       11.3990   -2.4820   12.0320 O.co2 137  GLU137     -0.2457
    151  N         17.9060   -2.7330   12.7690 N.am  138  ASN138     -0.1974
    152  CA        19.0690   -2.8640   13.6510 C.3   138  ASN138      0.1688
    153  C         20.3640   -2.9790   12.8970 C.2   138  ASN138      0.2292
    154  O         21.4030   -3.2210   13.5190 O.2   138  ASN138     -0.2864
    155  CB        18.9090   -4.1220   14.5080 C.3   138  ASN138      0.1181
    156  CG        17.8890   -3.9490   15.5640 C.2   138  ASN138      0.2629
    157  OD1       17.2650   -4.9140   16.0000 O.2   138  ASN138     -0.2716
    158  ND2       17.6830   -2.6930   15.9870 N.am  138  ASN138     -0.0877
    159  N         22.8480   -1.0380   10.3310 N.3   140  LEU140     -0.1245
    160  CA        22.9770    0.3980   10.1000 C.3   140  LEU140      0.1561
    161  C         24.3160    0.7030    9.5090 C.2   140  LEU140      0.2260
    162  O         25.2360   -0.0570    9.7730 O.2   140  LEU140     -0.2867
    163  CB        22.7980    1.1200   11.4570 C.3   140  LEU140      0.0270
    164  CG        21.4180    1.6760   11.8870 C.3   140  LEU140      0.0019
    165  CD1       20.2440    1.2580   11.0810 C.3   140  LEU140      0.0001
    166  CD2       21.1070    1.5620   13.3610 C.3   140  LEU140      0.0001
    167  N         27.0760    7.6710    4.7030 N.3   144  LYS144     -0.1245
    168  CA        26.4270    7.5810    3.4130 C.3   144  LYS144      0.1561
    169  C         27.4550    7.3680    2.3000 C.2   144  LYS144      0.2260
    170  O         27.0930    7.2220    1.1280 O.2   144  LYS144     -0.2867
    171  CB        25.6530    8.8570    3.1670 C.3   144  LYS144      0.0271
    172  CG        24.2610    8.5840    2.8090 C.3   144  LYS144      0.0035
    173  CD        23.4030    8.5480    3.9970 C.3   144  LYS144      0.0206
    174  CE        22.1500    7.7870    3.6650 C.3   144  LYS144      0.1093
    175  NZ        21.0490    8.2590    4.5290 N.3   144  LYS144     -0.1314
    176  N         23.1320   -3.1820   16.0060 N.3   153  THR153     -0.1203
    177  CA        22.8580   -2.5260   17.2730 C.3   153  THR153      0.1994
    178  C         21.5870   -3.0820   17.9320 C.2   153  THR153      0.2617
    179  O         20.9810   -4.0170   17.4210 O.2   153  THR153     -0.2717
    180  CB        22.7960   -0.9850   17.1060 C.3   153  THR153      0.1784
    181  OG1       23.0130   -0.3440   18.3840 O.3   153  THR153     -0.2211
    182  CG2       21.4700   -0.5190   16.4260 C.3   153  THR153      0.0376
    183  N         21.2430   -2.4890   19.0810 N.am  154  ASP154     -0.1973
    184  CA        20.0580   -2.7830   19.8940 C.3   154  ASP154      0.1709
    185  C         20.0970   -4.1160   20.6450 C.2   154  ASP154      0.2293
    186  O         19.7150   -5.1670   20.1240 O.2   154  ASP154     -0.2864
    187  CB        18.7740   -2.5870   19.1010 C.3   154  ASP154      0.1436
    188  CG        17.5670   -2.5850   19.9720 C.2   154  ASP154      0.3671
    189  OD1       16.4810   -2.2500   19.4550 O.co2 154  ASP154     -0.2456
    190  OD2       17.6900   -2.9340   21.1720 O.co2 154  ASP154     -0.2456
@<TRIPOS>BOND
     1   170   169    2
     2   169   168    1
     3   172   171    1
     4   172   173    1
     5   171   168    1
     6   168   167    1
     7   174   173    1
     8   174   175    1
     9   136   135    2
    10   135   134    1
    11   123   122    2
    12   134   133    1
    13   134   137    1
    14   133   131   am
    15   137   138    1
    16   129   130    1
    17   131   130    1
    18   131   132    2
    19   141   139   ar
    20   122   121    1
    21   138   139    1
    22   139   140   ar
    23   124   121    1
    24   124   125    1
    25   121   120    1
    26   161   162    2
    27   161   160    1
    28   128   126   ar
    29   160   159    1
    30   160   163    1
    31   120   114   am
    32   126   125    1
    33   126   127   ar
    34   115   114    2
    35   142   143    1
    36   114   113    1
    37   165   164    1
    38    58    57    1
    39   163   164    1
    40   149   148   ar
    41     9     7   am
    42   143   144    1
    43   143   146    1
    44   164   166    1
    45   148   150   ar
    46   148   147    1
    47   119   118    1
    48   113   116    1
    49   113   112    1
    50   147   146    1
    51    57    56    1
    52   116   117    1
    53   144   151   am
    54   144   145    2
    55     7     8    2
    56     7     6    1
    57   151   152    1
    58   153   154    2
    59   153   152    1
    60   109   108    2
    61   118   117    1
    62    56    55    1
    63   112   108   am
    64    49    47   ar
    65     6     5    1
    66   108   107    1
    67   152   155    1
    68    13    12    2
    69    17    15    1
    70   111   110    1
    71   155   156    1
    72    47    48   ar
    73    47    46    1
    74   105   103   ar
    75    54    55    1
    76    54    51    1
    77    12    11    1
    78    12    18    1
    79   110   107    1
    80    11    14    1
    81    11    10    1
    82     5     2    1
    83   107   106    1
    84    14    15    1
    85    15    16    1
    86    88    86    1
    87   103   104   ar
    88   103   102    1
    89    18    19    2
    90   156   158   am
    91   156   157    2
    92    19    20    1
    93    46    45    1
    94   106    99   am
    95     2     3    1
    96     2     1    1
    97    50    51    1
    98    51    52    1
    99   176   177    1
   100    53    52    2
   101    28    27    1
   102   102   101    1
   103     3     4    2
   104    45    42    1
   105   182   180    1
   106    99   100    2
   107    99    98    1
   108    82    83    1
   109   101    98    1
   110    86    83    1
   111    86    87    1
   112    20    22   am
   113    20    21    2
   114    22    23    1
   115    83    84    1
   116   180   177    1
   117   180   181    1
   118   177   178    1
   119    98    97    1
   120    27    26    1
   121    27    29    1
   122   179   178    2
   123    26    23    1
   124    25    24    2
   125    42    41    1
   126    42    43    1
   127   178   183   am
   128    23    24    1
   129    63    60    1
   130    37    36    2
   131    84    85    2
   132    24    30   am
   133    97    91   am
   134    39    38    1
   135    59    60    1
   136    43    44    2
   137    38    40    1
   138    38    35    1
   139    60    61    1
   140   183   184    1
   141   187   184    1
   142   187   188    1
   143    36    35    1
   144    92    91    2
   145    91    90    1
   146   189   188   ar
   147    30    31    1
   148    35    34    1
   149   184   185    1
   150    94    95    1
   151    94    93    1
   152   188   190   ar
   153    95    96    1
   154    31    32    1
   155   186   185    2
   156    93    90    1
   157    61    62    2
   158    90    89    1
   159    32    33    2
   160    72    71    1
   161    71    70    1
   162    70    69    1
   163    64    65    1
   164    68    69    1
   165    68    65    1
   166    65    66    1
   167    80    79   ar
   168    66    67    2
   169    79    81   ar
   170    79    78    1
   171    78    77    1
   172    76    75    2
   173    77    74    1
   174    74    75    1
   175    74    73    1
