@<TRIPOS>MOLECULE
tmp/3fhxA01.pdb
 105 99 0 0 0
SMALL
GASTEIGER

@<TRIPOS>ATOM
      1  N         25.1980   11.9940   40.5530 N.3    10  SER10      -0.1217
      2  CA        25.8450   12.1520   39.2580 C.3    10  SER10       0.1889
      3  C         24.8960   12.0590   38.0850 C.2    10  SER10       0.2288
      4  O         23.8030   11.4970   38.1810 O.2    10  SER10      -0.2866
      5  CB        26.9370   11.1020   39.0850 C.3    10  SER10       0.2089
      6  OG        27.8980   11.1920   40.1220 O.3    10  SER10      -0.2183
      7  N         25.0160   11.3640   33.7340 N.3    12  VAL12      -0.1245
      8  CA        25.7540   10.9800   32.5480 C.3    12  VAL12       0.1561
      9  C         24.8340   11.2300   31.3760 C.2    12  VAL12       0.2260
     10  O         23.6200   11.0900   31.4890 O.2    12  VAL12      -0.2867
     11  CB        26.1530    9.4960   32.5560 C.3    12  VAL12       0.0252
     12  CG1       27.4190    9.3050   33.3740 C.3    12  VAL12       0.0019
     13  CG2       25.0040    8.6550   33.1040 C.3    12  VAL12       0.0019
     14  N         23.2030    5.8110   35.6720 N.3    17  VAL17      -0.1231
     15  CA        23.8980    5.7330   36.9580 C.3    17  VAL17       0.1692
     16  C         23.5500    7.0300   37.7020 C.2    17  VAL17       0.2592
     17  O         22.9610    7.9330   37.1150 O.2    17  VAL17      -0.2718
     18  CB        25.4300    5.6420   36.7790 C.3    17  VAL17       0.0266
     19  CG1       25.7590    4.5640   35.7490 C.3    17  VAL17       0.0020
     20  CG2       26.0170    7.0220   36.3750 C.3    17  VAL17       0.0020
     21  N         23.9140    7.1330   38.9740 N.am   18  GLY18      -0.1957
     22  CA        23.5870    8.3350   39.7190 C.3    18  GLY18       0.1869
     23  C         22.1230    8.7370   39.5630 C.2    18  GLY18       0.2309
     24  O         21.2170    7.9320   39.7810 O.2    18  GLY18      -0.2863
     25  N         27.7230   16.1100   38.8030 N.3    39  VAL39      -0.1245
     26  CA        28.6490   16.0370   37.6750 C.3    39  VAL39       0.1561
     27  C         27.8560   15.7220   36.4190 C.2    39  VAL39       0.2260
     28  O         26.7520   15.1850   36.4880 O.2    39  VAL39      -0.2867
     29  CB        29.7120   14.9200   37.8160 C.3    39  VAL39       0.0252
     30  CG1       30.4350   15.0360   39.1370 C.3    39  VAL39       0.0019
     31  CG2       29.0650   13.5640   37.6580 C.3    39  VAL39       0.0019
     32  N         28.8270   13.8820   32.9220 N.3    41  PHE41      -0.1241
     33  CA        29.8040   13.1770   32.1060 C.3    41  PHE41       0.1605
     34  C         29.1290   12.5220   30.9140 C.2    41  PHE41       0.2264
     35  O         27.9290   12.2720   30.9350 O.2    41  PHE41      -0.2867
     36  CB        30.5010   12.1030   32.9400 C.3    41  PHE41       0.0534
     37  CG        31.6080   12.6260   33.8050 C.ar   41  PHE41      -0.0203
     38  CD1       31.4160   13.7440   34.6100 C.ar   41  PHE41      -0.0042
     39  CD2       32.8450   11.9950   33.8180 C.ar   41  PHE41      -0.0042
     40  CE1       32.4370   14.2280   35.4130 C.ar   41  PHE41      -0.0003
     41  CE2       33.8730   12.4690   34.6170 C.ar   41  PHE41      -0.0003
     42  CZ        33.6690   13.5900   35.4170 C.ar   41  PHE41      -0.0000
     43  N         29.6770    6.7330   32.3210 N.3    44  HIS44      -0.1226
     44  CA        30.3870    6.3660   33.5410 C.3    44  HIS44       0.1752
     45  C         31.8410    5.9310   33.2990 C.2    44  HIS44       0.2597
     46  O         32.2190    5.5240   32.1960 O.2    44  HIS44      -0.2718
     47  CB        29.6010    5.3030   34.3410 C.3    44  HIS44       0.0759
     48  CG        29.4890    3.9660   33.6740 C.ar   44  HIS44       0.0818
     49  ND1       30.5860    3.1900   33.3650 N.ar   44  HIS44      -0.2268
     50  CD2       28.4010    3.2330   33.3330 C.ar   44  HIS44       0.1154
     51  CE1       30.1780    2.0350   32.8680 C.ar   44  HIS44       0.1986
     52  NE2       28.8570    2.0350   32.8390 N.ar   44  HIS44      -0.2212
     53  N         32.6590    6.0420   34.3390 N.am   45  THR45      -0.1939
     54  CA        34.0760    5.7070   34.2520 C.3    45  THR45       0.2028
     55  C         34.3530    4.2200   34.0390 C.2    45  THR45       0.2642
     56  O         35.4960    3.7750   34.1050 O.2    45  THR45      -0.2714
     57  CB        34.8270    6.2050   35.5100 C.3    45  THR45       0.1808
     58  OG1       34.4820    5.3900   36.6370 O.3    45  THR45      -0.2208
     59  CG2       34.4420    7.6620   35.8120 C.3    45  THR45       0.0379
     60  N         33.3010    3.4550   33.7760 N.am   46  GLY46      -0.1954
     61  CA        33.4750    2.0390   33.5330 C.3    46  GLY46       0.1869
     62  C         33.8590    1.7980   32.0830 C.2    46  GLY46       0.2309
     63  O         34.1230    0.6680   31.6750 O.2    46  GLY46      -0.2863
     64  N         27.4010    8.6600   45.2810 N.3    82  TYR82      -0.1241
     65  CA        28.8190    8.8710   45.0360 C.3    82  TYR82       0.1605
     66  C         29.2960   10.3160   44.9730 C.2    82  TYR82       0.2264
     67  O         28.7180   11.1570   44.2820 O.2    82  TYR82      -0.2867
     68  CB        29.2370    8.1410   43.7570 C.3    82  TYR82       0.0534
     69  CG        30.6660    8.4050   43.3240 C.ar   82  TYR82      -0.0201
     70  CD1       30.9790    9.4810   42.4890 C.ar   82  TYR82      -0.0009
     71  CD2       31.7110    7.5810   43.7550 C.ar   82  TYR82      -0.0009
     72  CE1       32.2910    9.7270   42.0900 C.ar   82  TYR82       0.0417
     73  CE2       33.0300    7.8210   43.3630 C.ar   82  TYR82       0.0417
     74  CZ        33.3140    8.8920   42.5300 C.ar   82  TYR82       0.1957
     75  OH        34.6170    9.1220   42.1350 O.3    82  TYR82      -0.2866
     76  N         28.7400    5.7540   49.3090 N.3   113  VAL113     -0.1245
     77  CA        29.6650    5.1380   48.3670 C.3   113  VAL113      0.1561
     78  C         31.1280    5.4000   48.7260 C.2   113  VAL113      0.2260
     79  O         31.5900    6.5430   48.6960 O.2   113  VAL113     -0.2867
     80  CB        29.3910    5.6250   46.9300 C.3   113  VAL113      0.0252
     81  CG1       30.0490    4.6840   45.9270 C.3   113  VAL113      0.0019
     82  CG2       27.8920    5.7030   46.6880 C.3   113  VAL113      0.0019
     83  N         37.2250    3.4180   46.0590 N.3   125  TYR125     -0.1241
     84  CA        37.3700    4.1970   44.8480 C.3   125  TYR125      0.1605
     85  C         36.8400    5.5940   45.1280 C.2   125  TYR125      0.2264
     86  O         35.9980    6.1310   44.4080 O.2   125  TYR125     -0.2867
     87  CB        36.6710    3.5340   43.6520 C.3   125  TYR125      0.0534
     88  CG        35.3680    2.8260   43.9380 C.ar  125  TYR125     -0.0201
     89  CD1       34.2960    3.4970   44.5280 C.ar  125  TYR125     -0.0009
     90  CD2       35.1790    1.5010   43.5430 C.ar  125  TYR125     -0.0009
     91  CE1       33.0660    2.8720   44.7100 C.ar  125  TYR125      0.0417
     92  CE2       33.9570    0.8670   43.7200 C.ar  125  TYR125      0.0417
     93  CZ        32.9010    1.5580   44.3010 C.ar  125  TYR125      0.1957
     94  OH        31.6750    0.9410   44.4560 O.3   125  TYR125     -0.2866
     95  N         26.5590   -1.2490   36.6380 N.3   227  VAL227     -0.1231
     96  CA        26.8000    0.0520   37.2310 C.3   227  VAL227      0.1692
     97  C         25.4350    0.7010   37.4090 C.2   227  VAL227      0.2592
     98  O         24.5180    0.4460   36.6370 O.2   227  VAL227     -0.2718
     99  CB        27.6710    0.9250   36.3090 C.3   227  VAL227      0.0266
    100  CG1       28.0840    2.1960   37.0240 C.3   227  VAL227      0.0020
    101  CG2       28.8850    0.1430   35.8680 C.3   227  VAL227      0.0020
    102  N         25.2930    1.5120   38.4440 N.am  228  GLY228     -0.1957
    103  CA        24.0340    2.1900   38.6880 C.3   228  GLY228      0.1869
    104  C         23.0260    1.3930   39.4750 C.2   228  GLY228      0.2309
    105  O         21.9720    1.9160   39.8360 O.2   228  GLY228     -0.2863
@<TRIPOS>BOND
     1    34    35    2
     2    34    33    1
     3     9    10    2
     4     9     8    1
     5    63    62    2
     6    62    61    1
     7    33    32    1
     8    33    36    1
     9    46    45    2
    10    43    44    1
    11     8    11    1
    12     8     7    1
    13    11    13    1
    14    11    12    1
    15    52    51   ar
    16    52    50   ar
    17    51    49   ar
    18    36    37    1
    19    45    44    1
    20    45    53   am
    21    50    48   ar
    22    49    48   ar
    23    61    60    1
    24    44    47    1
    25    48    47    1
    26    60    55   am
    27    37    39   ar
    28    37    38   ar
    29    39    41   ar
    30    55    56    2
    31    55    54    1
    32    54    53    1
    33    54    57    1
    34    38    40   ar
    35    41    42   ar
    36    40    42   ar
    37    57    59    1
    38    57    58    1
    39    14    15    1
    40    19    18    1
    41   101    99    1
    42    99   100    1
    43    99    96    1
    44    20    18    1
    45    27    28    2
    46    27    26    1
    47    98    97    2
    48    95    96    1
    49    18    15    1
    50    15    16    1
    51    17    16    2
    52    96    97    1
    53    97   102   am
    54    31    29    1
    55    26    29    1
    56    26    25    1
    57    16    21   am
    58    29    30    1
    59     3     4    2
    60     3     2    1
    61   102   103    1
    62   103   104    1
    63    21    22    1
    64     5     2    1
    65     5     6    1
    66     2     1    1
    67   104   105    2
    68    23    22    1
    69    23    24    2
    70    72    70   ar
    71    72    74   ar
    72    75    74    1
    73    70    69   ar
    74    74    73   ar
    75    69    71   ar
    76    69    68    1
    77    73    71   ar
    78    90    92   ar
    79    90    88   ar
    80    87    88    1
    81    87    84    1
    82    92    93   ar
    83    68    65    1
    84    88    89   ar
    85    67    66    2
    86    93    94    1
    87    93    91   ar
    88    86    85    2
    89    89    91   ar
    90    84    85    1
    91    84    83    1
    92    66    65    1
    93    65    64    1
    94    81    80    1
    95    82    80    1
    96    80    77    1
    97    77    78    1
    98    77    76    1
    99    79    78    2
