@<TRIPOS>MOLECULE
tmp/3fhyB00.pdb
 198 184 0 0 0
SMALL
GASTEIGER

@<TRIPOS>ATOM
      1  N         13.0960   23.3880   18.0320 N.3   110  ASP110     -0.1239
      2  CA        12.1620   24.4060   18.5110 C.3   110  ASP110      0.1674
      3  C         12.9480   25.7130   18.5540 C.2   110  ASP110      0.2266
      4  O         13.6350   25.9950   19.5270 O.2   110  ASP110     -0.2867
      5  CB        11.6320   24.0850   19.9000 C.3   110  ASP110      0.1410
      6  CG        10.6750   25.1610   20.4140 C.2   110  ASP110      0.3668
      7  OD1       10.1490   25.9390   19.5900 O.co2 110  ASP110     -0.2456
      8  OD2       10.4400   25.2320   21.6340 O.co2 110  ASP110     -0.2456
      9  N         13.4690   28.8110   19.5750 N.3   112  VAL112     -0.1245
     10  CA        13.0450   29.7820   20.5820 C.3   112  VAL112      0.1561
     11  C         13.6450   31.1620   20.3300 C.2   112  VAL112      0.2260
     12  O         14.8610   31.3600   20.3800 O.2   112  VAL112     -0.2867
     13  CB        13.3950   29.2660   21.9920 C.3   112  VAL112      0.0252
     14  CG1       13.0100   30.2870   23.0550 C.3   112  VAL112      0.0019
     15  CG2       12.6500   27.9670   22.2410 C.3   112  VAL112      0.0019
     16  N          8.0490   35.8830   21.6560 N.3   115  ASP115     -0.1239
     17  CA         6.6370   35.6080   21.6360 C.3   115  ASP115      0.1674
     18  C          5.8830   36.9130   21.6630 C.2   115  ASP115      0.2266
     19  O          6.4590   37.9640   21.9380 O.2   115  ASP115     -0.2867
     20  CB         6.2760   34.7820   22.8550 C.3   115  ASP115      0.1410
     21  CG         5.1380   33.8420   22.6010 C.2   115  ASP115      0.3668
     22  OD1        4.1970   34.2030   21.8610 O.co2 115  ASP115     -0.2456
     23  OD2        5.1910   32.7290   23.1630 O.co2 115  ASP115     -0.2456
     24  N         13.4310   37.3700   23.2010 N.3   124  TYR124     -0.1241
     25  CA        14.0180   37.1100   24.4950 C.3   124  TYR124      0.1605
     26  C         15.2770   36.2600   24.4300 C.2   124  TYR124      0.2264
     27  O         15.5150   35.4160   25.2840 O.2   124  TYR124     -0.2867
     28  CB        12.9980   36.5440   25.5090 C.3   124  TYR124      0.0534
     29  CG        11.9370   35.5520   25.0630 C.ar  124  TYR124     -0.0201
     30  CD1       10.5760   35.8610   25.2130 C.ar  124  TYR124     -0.0009
     31  CD2       12.2720   34.2430   24.6880 C.ar  124  TYR124     -0.0009
     32  CE1        9.5770   34.8890   25.0280 C.ar  124  TYR124      0.0417
     33  CE2       11.2770   33.2570   24.4940 C.ar  124  TYR124      0.0417
     34  CZ         9.9360   33.5830   24.6760 C.ar  124  TYR124      0.1957
     35  OH         8.9670   32.5950   24.5840 O.3   124  TYR124     -0.2866
     36  N          9.2100   23.8240   15.3980 N.3   145  THR145     -0.1218
     37  CA         7.9820   24.1720   16.1090 C.3   145  THR145      0.1862
     38  C          7.8870   25.6330   16.5200 C.2   145  THR145      0.2287
     39  O          7.5940   25.9350   17.6570 O.2   145  THR145     -0.2866
     40  CB         7.8340   23.3010   17.3840 C.3   145  THR145      0.1770
     41  OG1        8.8820   23.6080   18.3190 O.3   145  THR145     -0.2211
     42  CG2        7.9460   21.8370   17.0150 C.3   145  THR145      0.0375
     43  N          6.4970   29.4670   17.2020 N.3   147  ASN147     -0.1240
     44  CA         5.1880   30.0270   17.5210 C.3   147  ASN147      0.1653
     45  C          4.9880   31.0560   16.4030 C.2   147  ASN147      0.2266
     46  O          5.8160   31.1430   15.4980 O.2   147  ASN147     -0.2867
     47  CB         5.1410   30.7000   18.9060 C.3   147  ASN147      0.1155
     48  CG         6.2740   31.6730   19.1320 C.2   147  ASN147      0.2627
     49  OD1        6.6640   32.4150   18.2340 O.2   147  ASN147     -0.2716
     50  ND2        6.7990   31.6860   20.3460 N.am  147  ASN147     -0.0877
     51  N          7.8590   33.7080   16.0210 N.3   150  GLU150     -0.1245
     52  CA         9.0820   33.1120   15.5150 C.3   150  GLU150      0.1567
     53  C          8.9810   32.7680   14.0360 C.2   150  GLU150      0.2260
     54  O          9.9650   32.8800   13.2960 O.2   150  GLU150     -0.2867
     55  CB         9.4270   31.8850   16.3650 C.3   150  GLU150      0.0388
     56  CG         9.6240   32.2550   17.8360 C.3   150  GLU150      0.1160
     57  CD         9.5910   31.0750   18.7910 C.2   150  GLU150      0.3649
     58  OE1        8.8700   30.0910   18.4890 O.co2 150  GLU150     -0.2457
     59  OE2       10.2710   31.1600   19.8520 O.co2 150  GLU150     -0.2457
     60  N          3.1300   26.5610   16.7170 N.3   183  THR183     -0.1203
     61  CA         2.5690   26.1420   17.9900 C.3   183  THR183      0.1994
     62  C          1.5500   27.0200   18.6910 C.2   183  THR183      0.2618
     63  O          0.8990   26.5790   19.6390 O.2   183  THR183     -0.2717
     64  CB         3.7150   25.8090   18.9420 C.3   183  THR183      0.1784
     65  OG1        4.5060   26.9800   19.1470 O.3   183  THR183     -0.2211
     66  CG2        4.6000   24.7210   18.3170 C.3   183  THR183      0.0376
     67  N          1.3960   28.2520   18.2200 N.am  184  SER184     -0.1951
     68  CA         0.4220   29.1870   18.7830 C.3   184  SER184      0.1924
     69  C          0.4470   30.4750   17.9790 C.2   184  SER184      0.2314
     70  O          1.5080   30.9190   17.5290 O.2   184  SER184     -0.2863
     71  CB         0.7400   29.5020   20.2500 C.3   184  SER184      0.2116
     72  OG         1.9970   30.1470   20.3740 O.3   184  SER184     -0.2180
     73  N         -6.4790   30.2150   20.6850 N.3   196  LEU196     -0.1245
     74  CA        -5.1880   30.3790   20.0350 C.3   196  LEU196      0.1561
     75  C         -5.2230   29.3450   18.9160 C.2   196  LEU196      0.2260
     76  O         -5.9490   28.3420   19.0010 O.2   196  LEU196     -0.2867
     77  CB        -4.0390   30.1170   21.0060 C.3   196  LEU196      0.0270
     78  CG        -3.9590   28.7750   21.7150 C.3   196  LEU196      0.0019
     79  CD1       -3.4510   27.7050   20.7540 C.3   196  LEU196      0.0001
     80  CD2       -3.0130   28.9260   22.8980 C.3   196  LEU196      0.0001
     81  N         -3.3280   26.6540   16.1960 N.3   198  VAL198     -0.1245
     82  CA        -2.2030   25.7870   15.8890 C.3   198  VAL198      0.1561
     83  C         -2.3440   25.4090   14.4190 C.2   198  VAL198      0.2260
     84  O         -3.4510   25.0860   13.9450 O.2   198  VAL198     -0.2867
     85  CB        -2.2070   24.4920   16.7290 C.3   198  VAL198      0.0252
     86  CG1       -1.2120   23.4750   16.1420 C.3   198  VAL198      0.0019
     87  CG2       -1.8160   24.8100   18.1400 C.3   198  VAL198      0.0019
     88  N         -7.5350   25.8850   19.7630 N.3   220  ILE220     -0.1231
     89  CA        -7.4850   25.5670   21.1860 C.3   220  ILE220      0.1692
     90  C         -8.0680   26.6530   22.0750 C.2   220  ILE220      0.2592
     91  O         -7.7500   27.8320   21.9270 O.2   220  ILE220     -0.2718
     92  CB        -6.0370   25.3200   21.6470 C.3   220  ILE220      0.0266
     93  CG1       -5.4890   24.0880   20.9560 C.3   220  ILE220      0.0019
     94  CG2       -5.9800   25.1530   23.1520 C.3   220  ILE220      0.0020
     95  CD1       -4.9480   24.3800   19.6020 C.3   220  ILE220      0.0001
     96  N         -8.9080   26.2540   23.0200 N.am  221  ARG221     -0.1966
     97  CA        -9.4880   27.2320   23.9170 C.3   221  ARG221      0.1729
     98  C         -8.3800   27.7670   24.8130 C.2   221  ARG221      0.2616
     99  O         -7.6540   27.0040   25.4500 O.2   221  ARG221     -0.2715
    100  CB       -10.5920   26.6090   24.7740 C.3   221  ARG221      0.0348
    101  CG       -11.3930   27.6490   25.5380 C.3   221  ARG221      0.0492
    102  CD       -12.4860   27.0430   26.4000 C.3   221  ARG221      0.2205
    103  NE       -13.3280   28.1000   26.9620 N.pl3 221  ARG221     -0.0865
    104  CZ       -14.2440   27.9130   27.9070 C.cat 221  ARG221      0.5346
    105  NH1      -14.4400   26.6990   28.4080 N.pl3 221  ARG221      0.1354
    106  NH2      -14.9690   28.9410   28.3430 N.pl3 221  ARG221      0.1354
    107  N         -8.2530   29.0860   24.8510 N.am  222  LYS222     -0.1963
    108  CA        -7.2390   29.7300   25.6680 C.3   222  LYS222      0.1728
    109  C         -7.6040   29.6800   27.1520 C.2   222  LYS222      0.2616
    110  O         -8.7450   29.9360   27.5330 O.2   222  LYS222     -0.2715
    111  CB        -7.0610   31.1790   25.2160 C.3   222  LYS222      0.0311
    112  CG        -5.6140   31.5850   25.0470 C.3   222  LYS222      0.0038
    113  CD        -5.4840   32.9620   24.4160 C.3   222  LYS222      0.0206
    114  CE        -6.0370   32.9930   22.9950 C.3   222  LYS222      0.1093
    115  NZ        -5.8080   34.3000   22.2950 N.3   222  LYS222     -0.1314
    116  N         -6.6320   29.3100   27.9790 N.am  223  VAL223     -0.1977
    117  CA        -6.8250   29.2490   29.4210 C.3   223  VAL223      0.1596
    118  C         -6.2380   30.5270   29.9880 C.2   223  VAL223      0.2287
    119  O         -5.2660   31.0540   29.4530 O.2   223  VAL223     -0.2864
    120  CB        -6.0860   28.0660   30.0480 C.3   223  VAL223      0.0276
    121  CG1       -5.8810   28.3150   31.5210 C.3   223  VAL223      0.0022
    122  CG2       -6.8850   26.7930   29.8380 C.3   223  VAL223      0.0022
    123  N         -4.0260   32.0430   32.2080 N.3   225  ALA225     -0.1231
    124  CA        -2.8200   31.8520   33.0080 C.3   225  ALA225      0.1694
    125  C         -1.6550   31.7070   32.0540 C.2   225  ALA225      0.2592
    126  O         -1.8470   31.4940   30.8730 O.2   225  ALA225     -0.2718
    127  CB        -2.9390   30.6230   33.9160 C.3   225  ALA225      0.0304
    128  N         -0.4500   31.8790   32.5700 N.am  226  VAL226     -0.1966
    129  CA         0.7530   31.7190   31.7700 C.3   226  VAL226      0.1727
    130  C          1.5600   30.5080   32.2390 C.2   226  VAL226      0.2616
    131  O          1.9230   30.3660   33.4100 O.2   226  VAL226     -0.2715
    132  CB         1.6300   32.9570   31.8280 C.3   226  VAL226      0.0290
    133  CG1        2.9780   32.6710   31.1810 C.3   226  VAL226      0.0023
    134  CG2        0.9410   34.0960   31.1030 C.3   226  VAL226      0.0023
    135  N          1.8310   29.6290   31.2960 N.am  227  PHE227     -0.1974
    136  CA         2.5840   28.4340   31.5840 C.3   227  PHE227      0.1639
    137  C          3.9700   28.5530   30.9560 C.2   227  PHE227      0.2290
    138  O          4.1640   29.2660   29.9700 O.2   227  PHE227     -0.2864
    139  CB         1.8400   27.2510   31.0040 C.3   227  PHE227      0.0560
    140  CG         0.4520   27.0980   31.5440 C.ar  227  PHE227     -0.0200
    141  CD1        0.2380   26.5620   32.8090 C.ar  227  PHE227     -0.0042
    142  CD2       -0.6490   27.4790   30.7800 C.ar  227  PHE227     -0.0042
    143  CE1       -1.0570   26.4000   33.3110 C.ar  227  PHE227     -0.0003
    144  CE2       -1.9510   27.3230   31.2690 C.ar  227  PHE227     -0.0003
    145  CZ        -2.1560   26.7790   32.5420 C.ar  227  PHE227     -0.0000
    146  N          5.5320   24.5090   28.3260 N.3   230  THR230     -0.1203
    147  CA         4.5690   23.8830   27.4250 C.3   230  THR230      0.1994
    148  C          5.0290   23.8760   25.9790 C.2   230  THR230      0.2618
    149  O          4.6270   23.0210   25.1930 O.2   230  THR230     -0.2717
    150  CB         3.2190   24.5940   27.4980 C.3   230  THR230      0.1784
    151  OG1        3.4200   25.9980   27.2980 O.3   230  THR230     -0.2211
    152  CG2        2.5610   24.3600   28.8680 C.3   230  THR230      0.0376
    153  N          5.8570   24.8460   25.6200 N.am  231  GLY231     -0.1942
    154  CA         6.3560   24.8980   24.2630 C.3   231  GLY231      0.2014
    155  C          7.3050   23.7320   24.0870 C.2   231  GLY231      0.2638
    156  O          7.2780   23.0220   23.0770 O.2   231  GLY231     -0.2714
    157  N          8.1400   23.5300   25.1000 N.am  232  ASN232     -0.1972
    158  CA         9.1250   22.4550   25.1210 C.3   232  ASN232      0.1688
    159  C          8.4150   21.1010   25.1080 C.2   232  ASN232      0.2292
    160  O          8.8440   20.1540   24.4310 O.2   232  ASN232     -0.2864
    161  CB         9.9940   22.5910   26.3790 C.3   232  ASN232      0.1181
    162  CG        10.6670   23.9590   26.4770 C.2   232  ASN232      0.2629
    163  OD1       11.2780   24.4370   25.5080 O.2   232  ASN232     -0.2716
    164  ND2       10.5610   24.5960   27.6510 N.am  232  ASN232     -0.0877
    165  N          5.4150   20.5440   23.9200 N.3   234  PHE234     -0.1241
    166  CA         4.7720   20.4170   22.6130 C.3   234  PHE234      0.1605
    167  C          5.7650   19.8170   21.6110 C.2   234  PHE234      0.2264
    168  O          5.4490   18.8620   20.8930 O.2   234  PHE234     -0.2867
    169  CB         4.3020   21.7970   22.1180 C.3   234  PHE234      0.0534
    170  CG         3.4830   21.7460   20.8490 C.ar  234  PHE234     -0.0203
    171  CD1        2.1520   22.1400   20.8510 C.ar  234  PHE234     -0.0042
    172  CD2        4.0300   21.2720   19.6680 C.ar  234  PHE234     -0.0042
    173  CE1        1.3770   22.0610   19.6930 C.ar  234  PHE234     -0.0003
    174  CE2        3.2600   21.1850   18.5020 C.ar  234  PHE234     -0.0003
    175  CZ         1.9310   21.5820   18.5190 C.ar  234  PHE234     -0.0000
    176  N         -1.3190   17.8920   20.9680 N.3   257  VAL257     -0.1245
    177  CA        -2.1150   18.9570   21.5410 C.3   257  VAL257      0.1561
    178  C         -3.0210   18.4150   22.6510 C.2   257  VAL257      0.2260
    179  O         -3.2300   19.0770   23.6690 O.2   257  VAL257     -0.2867
    180  CB        -2.9510   19.6370   20.4270 C.3   257  VAL257      0.0252
    181  CG1       -4.1110   20.4180   21.0230 C.3   257  VAL257      0.0019
    182  CG2       -2.0480   20.5590   19.6190 C.3   257  VAL257      0.0019
    183  N         -1.0820   18.1110   25.8950 N.3   260  LEU260     -0.1245
    184  CA        -0.9090   19.4230   26.5140 C.3   260  LEU260      0.1561
    185  C         -2.1690   19.7790   27.2840 C.2   260  LEU260      0.2260
    186  O         -2.1160   20.2580   28.4140 O.2   260  LEU260     -0.2867
    187  CB        -0.6680   20.4980   25.4550 C.3   260  LEU260      0.0270
    188  CG         0.7570   20.7470   24.9860 C.3   260  LEU260      0.0019
    189  CD1        1.5290   21.4620   26.0710 C.3   260  LEU260      0.0001
    190  CD2        1.4120   19.4340   24.6370 C.3   260  LEU260      0.0001
    191  N         -2.4330   20.4720   31.0470 N.3   264  LEU264     -0.1245
    192  CA        -2.8630   21.7990   31.4500 C.3   264  LEU264      0.1561
    193  C         -4.1210   21.7960   32.3020 C.2   264  LEU264      0.2260
    194  O         -4.2420   22.5780   33.2360 O.2   264  LEU264     -0.2867
    195  CB        -3.0280   22.7070   30.2190 C.3   264  LEU264      0.0270
    196  CG        -1.6570   23.1030   29.6310 C.3   264  LEU264      0.0019
    197  CD1       -1.7930   24.1970   28.5520 C.3   264  LEU264      0.0001
    198  CD2       -0.7840   23.5980   30.7520 C.3   264  LEU264      0.0001
@<TRIPOS>BOND
     1    54    53    2
     2    84    83    2
     3    53    52    1
     4    83    82    1
     5    36    37    1
     6    46    45    2
     7    52    51    1
     8    52    55    1
     9    82    81    1
    10    82    85    1
    11    37    38    1
    12    37    40    1
    13    86    85    1
    14    55    56    1
    15    45    44    1
    16    38    39    2
    17    60    61    1
    18    85    87    1
    19    42    40    1
    20    43    44    1
    21    40    41    1
    22    44    47    1
    23    70    69    2
    24    56    57    1
    25    69    68    1
    26    61    62    1
    27    61    64    1
    28     1     2    1
    29    67    62   am
    30    67    68    1
    31    49    48    2
    32    66    64    1
    33    58    57   ar
    34   174   175   ar
    35   174   172   ar
    36     2     3    1
    37     2     5    1
    38   175   173   ar
    39     3     4    2
    40    62    63    2
    41    68    71    1
    42    57    59   ar
    43    47    48    1
    44    75    76    2
    45    75    74    1
    46    64    65    1
    47    48    50   am
    48     9    10    1
    49     7     6   ar
    50    95    93    1
    51   182   180    1
    52   172   170   ar
    53   173   171   ar
    54    88    89    1
    55     5     6    1
    56    74    73    1
    57    74    77    1
    58    71    72    1
    59    11    12    2
    60    11    10    1
    61     6     8   ar
    62   180   181    1
    63   180   177    1
    64    10    13    1
    65    79    78    1
    66   170   171   ar
    67   170   169    1
    68   168   167    2
    69    93    92    1
    70   176   177    1
    71    77    78    1
    72    89    92    1
    73    89    90    1
    74   177   178    1
    75   167   166    1
    76    17    16    1
    77    17    18    1
    78    17    20    1
    79    92    94    1
    80    18    19    2
    81    78    80    1
    82    22    21   ar
    83    91    90    2
    84    13    15    1
    85    13    14    1
    86    90    96   am
    87   169   166    1
    88   115   114    1
    89    21    20    1
    90    21    23   ar
    91   166   165    1
    92   178   179    2
    93   114   113    1
    94    96    97    1
    95   156   155    2
    96    24    25    1
    97    97   100    1
    98    97    98    1
    99   155   154    1
   100   155   157   am
   101   154   153    1
   102   113   112    1
   103    26    25    1
   104    26    27    2
   105   160   159    2
   106    33    34   ar
   107    33    31   ar
   108    25    28    1
   109    35    34    1
   110   190   188    1
   111    34    32   ar
   112    31    29   ar
   113   100   101    1
   114    98   107   am
   115    98    99    2
   116   107   108    1
   117   188   187    1
   118   188   189    1
   119    32    30   ar
   120   112   111    1
   121    29    30   ar
   122    29    28    1
   123   157   158    1
   124   159   158    1
   125   158   161    1
   126   149   148    2
   127   111   108    1
   128   187   184    1
   129   163   162    2
   130   101   102    1
   131   153   148   am
   132   108   109    1
   133   183   184    1
   134   148   147    1
   135   161   162    1
   136   102   103    1
   137   162   164   am
   138   184   185    1
   139   103   104    2
   140   109   110    2
   141   109   116   am
   142   185   186    2
   143   151   150    1
   144   147   150    1
   145   147   146    1
   146   150   152    1
   147   104   106    1
   148   104   105    1
   149   116   117    1
   150   197   196    1
   151   117   118    1
   152   117   120    1
   153   119   118    2
   154   196   195    1
   155   196   198    1
   156   122   120    1
   157   138   137    2
   158   120   121    1
   159   195   192    1
   160   142   144   ar
   161   142   140   ar
   162   126   125    2
   163   137   136    1
   164   139   140    1
   165   139   136    1
   166   191   192    1
   167   134   132    1
   168   133   132    1
   169   144   145   ar
   170   135   136    1
   171   135   130   am
   172   192   193    1
   173   140   141   ar
   174   129   132    1
   175   129   130    1
   176   129   128    1
   177   125   128   am
   178   125   124    1
   179   123   124    1
   180   130   131    2
   181   193   194    2
   182   145   143   ar
   183   141   143   ar
   184   124   127    1
