@<TRIPOS>MOLECULE
tmp/3fhyB05.pdb
 90 84 0 0 0
SMALL
GASTEIGER

@<TRIPOS>ATOM
      1  N         17.6570   23.3330   28.6170 N.3     9  SER9       -0.1217
      2  CA        17.7910   23.7950   29.9900 C.3     9  SER9        0.1889
      3  C         17.3600   22.8130   31.0820 C.2     9  SER9        0.2288
      4  O         16.4620   21.9990   30.8880 O.2     9  SER9       -0.2866
      5  CB        16.9910   25.0900   30.1690 C.3     9  SER9        0.2089
      6  OG        17.4280   26.0960   29.2750 O.3     9  SER9       -0.2183
      7  N         16.3220   22.6200   35.3390 N.3    11  VAL11      -0.1245
      8  CA        15.9760   23.3860   36.5140 C.3    11  VAL11       0.1561
      9  C         15.8610   22.3790   37.6230 C.2    11  VAL11       0.2260
     10  O         15.5760   21.2160   37.3780 O.2    11  VAL11      -0.2867
     11  CB        14.6280   24.1210   36.3640 C.3    11  VAL11       0.0252
     12  CG1       14.7780   25.2460   35.3610 C.3    11  VAL11       0.0019
     13  CG2       13.5360   23.1480   35.9230 C.3    11  VAL11       0.0019
     14  N         10.5920   22.7510   32.7030 N.3    16  VAL16      -0.1231
     15  CA        10.7880   23.5180   31.4820 C.3    16  VAL16       0.1692
     16  C         12.0050   22.9030   30.8400 C.2    16  VAL16       0.2592
     17  O         12.6810   22.0840   31.4550 O.2    16  VAL16      -0.2718
     18  CB        11.0240   25.0330   31.7330 C.3    16  VAL16       0.0266
     19  CG1        9.9240   25.5780   32.6390 C.3    16  VAL16       0.0020
     20  CG2       12.4020   25.2800   32.3130 C.3    16  VAL16       0.0020
     21  N         12.2880   23.2810   29.6060 N.am   17  GLY17      -0.1957
     22  CA        13.4250   22.6890   28.9430 C.3    17  GLY17       0.1869
     23  C         13.4200   21.1770   29.0690 C.2    17  GLY17       0.2309
     24  O         12.3660   20.5230   28.9530 O.2    17  GLY17      -0.2863
     25  N         21.8500   24.5400   30.8260 N.3    38  VAL38      -0.1245
     26  CA        21.9610   25.3890   32.0130 C.3    38  VAL38       0.1561
     27  C         21.3780   24.6170   33.1780 C.2    38  VAL38       0.2260
     28  O         20.6620   23.6350   32.9860 O.2    38  VAL38      -0.2867
     29  CB        21.2160   26.7860   31.9100 C.3    38  VAL38       0.0252
     30  CG1       21.3470   27.3570   30.5230 C.3    38  VAL38       0.0019
     31  CG2       19.7520   26.6750   32.3460 C.3    38  VAL38       0.0019
     32  N         19.5380   25.8800   36.5310 N.3    40  PHE40      -0.1241
     33  CA        19.0430   26.9470   37.3670 C.3    40  PHE40       0.1605
     34  C         18.2210   26.3410   38.4830 C.2    40  PHE40       0.2264
     35  O         17.9310   25.1530   38.4640 O.2    40  PHE40      -0.2867
     36  CB        18.1920   27.9230   36.5260 C.3    40  PHE40       0.0534
     37  CG        19.0010   28.7880   35.5910 C.ar   40  PHE40      -0.0203
     38  CD1       20.3900   28.7020   35.5580 C.ar   40  PHE40      -0.0042
     39  CD2       18.3780   29.6960   34.7420 C.ar   40  PHE40      -0.0042
     40  CE1       21.1380   29.4980   34.7030 C.ar   40  PHE40      -0.0003
     41  CE2       19.1280   30.5010   33.8730 C.ar   40  PHE40      -0.0003
     42  CZ        20.5080   30.3940   33.8600 C.ar   40  PHE40      -0.0000
     43  N         12.7770   28.2110   36.6660 N.3    43  HIS43      -0.1226
     44  CA        12.7500   29.0350   35.4700 C.3    43  HIS43       0.1752
     45  C         12.7540   30.5410   35.8040 C.2    43  HIS43       0.2596
     46  O         12.3680   30.9610   36.9000 O.2    43  HIS43      -0.2718
     47  CB        11.5720   28.6330   34.5540 C.3    43  HIS43       0.0759
     48  CG        10.2260   29.0360   35.0590 C.ar   43  HIS43       0.0818
     49  ND1        9.8480   30.3540   35.2050 N.ar   43  HIS43      -0.2268
     50  CD2        9.1410   28.2930   35.3870 C.ar   43  HIS43       0.1154
     51  CE1        8.5860   30.4060   35.5970 C.ar   43  HIS43       0.1986
     52  NE2        8.1330   29.1690   35.7130 N.ar   43  HIS43      -0.2212
     53  N         13.2250   31.3370   34.8500 N.am   44  THR44      -0.1953
     54  CA        13.3480   32.7780   35.0040 C.3    44  THR44       0.1897
     55  C         12.0560   33.5900   35.1150 C.2    44  THR44       0.2313
     56  O         12.0950   34.8210   35.1920 O.2    44  THR44      -0.2863
     57  CB        14.2110   33.3540   33.8720 C.3    44  THR44       0.1794
     58  OG1       13.6270   33.0390   32.6050 O.3    44  THR44      -0.2208
     59  CG2       15.5980   32.7560   33.9260 C.3    44  THR44       0.0378
     60  N         15.1920   26.4810   23.7430 N.3    81  TYR81      -0.1241
     61  CA        15.7540   27.7500   24.1990 C.3    81  TYR81       0.1605
     62  C         17.2750   27.7210   24.3050 C.2    81  TYR81       0.2264
     63  O         17.8310   26.9830   25.1140 O.2    81  TYR81      -0.2867
     64  CB        15.1910   28.1370   25.5700 C.3    81  TYR81       0.0534
     65  CG        15.8040   29.4100   26.1130 C.ar   81  TYR81      -0.0201
     66  CD1       15.3590   30.6600   25.6870 C.ar   81  TYR81      -0.0009
     67  CD2       16.8830   29.3650   26.9980 C.ar   81  TYR81      -0.0009
     68  CE1       15.9730   31.8340   26.1200 C.ar   81  TYR81       0.0417
     69  CE2       17.5090   30.5340   27.4360 C.ar   81  TYR81       0.0417
     70  CZ        17.0490   31.7660   26.9900 C.ar   81  TYR81       0.1957
     71  OH        17.6710   32.9330   27.3820 O.3    81  TYR81      -0.2866
     72  N          4.9390   27.8860   31.5630 N.3   228  VAL228     -0.1231
     73  CA         6.2890   27.8800   31.0330 C.3   228  VAL228      0.1692
     74  C          6.6270   26.3990   30.8860 C.2   228  VAL228      0.2592
     75  O          6.2730   25.5910   31.7390 O.2   228  VAL228     -0.2718
     76  CB         7.2760   28.5710   31.9910 C.3   228  VAL228      0.0266
     77  CG1        8.6960   28.5630   31.3900 C.3   228  VAL228      0.0020
     78  CG2        6.8240   29.9960   32.2440 C.3   228  VAL228      0.0020
     79  N          7.2830   26.0440   29.7950 N.am  229  GLY229     -0.1957
     80  CA         7.6290   24.6580   29.5590 C.3   229  GLY229      0.1869
     81  C          6.7070   23.9430   28.5850 C.2   229  GLY229      0.2309
     82  O          7.0650   22.9040   28.0490 O.2   229  GLY229     -0.2863
     83  N          8.1400   23.5300   25.1000 N.3   232  ASN232     -0.1240
     84  CA         9.1250   22.4550   25.1210 C.3   232  ASN232      0.1653
     85  C          8.4150   21.1010   25.1080 C.2   232  ASN232      0.2266
     86  O          8.8440   20.1540   24.4310 O.2   232  ASN232     -0.2867
     87  CB         9.9940   22.5910   26.3790 C.3   232  ASN232      0.1155
     88  CG        10.6670   23.9590   26.4770 C.2   232  ASN232      0.2627
     89  OD1       11.2780   24.4370   25.5080 O.2   232  ASN232     -0.2716
     90  ND2       10.5610   24.5960   27.6510 N.am  232  ASN232     -0.0877
@<TRIPOS>BOND
     1    60    61    1
     2    61    62    1
     3    61    64    1
     4    62    63    2
     5    86    85    2
     6    83    84    1
     7    85    84    1
     8    84    87    1
     9    89    88    2
    10    64    65    1
    11    66    65   ar
    12    66    68   ar
    13    65    67   ar
    14    68    70   ar
    15    87    88    1
    16    88    90   am
    17    70    71    1
    18    70    69   ar
    19    67    69   ar
    20    82    81    2
    21    81    80    1
    22     1     2    1
    23    22    23    1
    24    22    21    1
    25    24    23    2
    26     6     5    1
    27    80    79    1
    28    21    16   am
    29    79    74   am
    30     2     5    1
    31     2     3    1
    32    30    29    1
    33    25    26    1
    34    16    17    2
    35    16    15    1
    36    74    73    1
    37    74    75    2
    38     4     3    2
    39    73    72    1
    40    73    76    1
    41    77    76    1
    42    15    18    1
    43    15    14    1
    44    18    20    1
    45    18    19    1
    46    29    26    1
    47    29    31    1
    48    76    78    1
    49    26    27    1
    50    58    57    1
    51    28    27    2
    52    42    41   ar
    53    42    40   ar
    54    57    59    1
    55    57    54    1
    56    41    39   ar
    57    47    48    1
    58    47    44    1
    59    40    38   ar
    60    39    37   ar
    61    53    54    1
    62    53    45   am
    63    54    55    1
    64    48    49   ar
    65    48    50   ar
    66    55    56    2
    67    49    51   ar
    68     7     8    1
    69    12    11    1
    70    50    52   ar
    71    44    45    1
    72    44    43    1
    73    38    37   ar
    74    37    36    1
    75    51    52   ar
    76    45    46    2
    77    13    11    1
    78    11     8    1
    79     8     9    1
    80    36    33    1
    81    32    33    1
    82    33    34    1
    83    10     9    2
    84    35    34    2
