@<TRIPOS>MOLECULE
tmp/3fi2A00.pdb
 173 160 0 0 0
SMALL
GASTEIGER

@<TRIPOS>ATOM
      1  N          7.5040   43.3230   17.7980 N.3    24  LYS24      -0.1231
      2  CA         7.4040   42.3070   18.8190 C.3    24  LYS24       0.1678
      3  C          8.5430   41.3280   18.5900 C.2    24  LYS24       0.2434
      4  O          8.7850   40.9220   17.4620 O.2    24  LYS24      -0.2733
      5  CB         6.0440   41.5980   18.7460 C.3    24  LYS24       0.0284
      6  CG         4.8500   42.5050   19.0970 C.3    24  LYS24       0.0035
      7  CD         3.5560   41.7220   19.3960 C.3    24  LYS24       0.0206
      8  CE         2.9430   41.0780   18.1440 C.3    24  LYS24       0.1093
      9  NZ         2.0890   42.0060   17.3380 N.3    24  LYS24      -0.1314
     10  N          9.2720   40.9680   19.6540 N.am   25  PRO25      -0.2718
     11  CA        10.3650   40.0200   19.4320 C.3    25  PRO25       0.1535
     12  C          9.8130   38.6480   19.0500 C.2    25  PRO25       0.2598
     13  O          8.8330   38.1960   19.6320 O.2    25  PRO25      -0.2715
     14  CB        11.0600   39.9730   20.7960 C.3    25  PRO25       0.0310
     15  CG         9.9820   40.3950   21.7690 C.3    25  PRO25       0.0237
     16  CD         9.2850   41.4920   21.0270 C.3    25  PRO25       0.0939
     17  N         10.4170   38.0390   18.0350 N.am   26  ILE26      -0.1978
     18  CA        10.1790   36.6500   17.6670 C.3    26  ILE26       0.1596
     19  C         11.0530   35.7280   18.5370 C.2    26  ILE26       0.2287
     20  O         10.7850   34.5300   18.6910 O.2    26  ILE26      -0.2864
     21  CB        10.5670   36.4180   16.2060 C.3    26  ILE26       0.0276
     22  CG1        9.5410   37.0400   15.2720 C.3    26  ILE26       0.0022
     23  CG2       10.7280   34.9460   15.9230 C.3    26  ILE26       0.0022
     24  CD1       10.0870   37.2060   13.8830 C.3    26  ILE26       0.0001
     25  N         15.6070   39.4680   15.2200 N.3    29  VAL29      -0.1245
     26  CA        14.5040   39.5870   14.2930 C.3    29  VAL29       0.1561
     27  C         13.2630   39.8860   15.1200 C.2    29  VAL29       0.2260
     28  O         13.1010   39.3560   16.2160 O.2    29  VAL29      -0.2867
     29  CB        14.2920   38.2570   13.5320 C.3    29  VAL29       0.0252
     30  CG1       13.1820   38.3850   12.4760 C.3    29  VAL29       0.0019
     31  CG2       15.5810   37.8160   12.8780 C.3    29  VAL29       0.0019
     32  N          8.8050   40.7980   14.7310 N.3    31  ALA31      -0.1231
     33  CA         7.6860   40.8880   13.8140 C.3    31  ALA31       0.1694
     34  C          7.1650   42.3110   13.9070 C.2    31  ALA31       0.2591
     35  O          7.2440   42.9410   14.9620 O.2    31  ALA31      -0.2718
     36  CB         6.5990   39.8790   14.1820 C.3    31  ALA31       0.0304
     37  N          6.6580   42.8210   12.7950 N.am   32  ALA32      -0.1980
     38  CA         6.0830   44.1510   12.7570 C.3    32  ALA32       0.1597
     39  C          4.9710   44.1860   11.7490 C.2    32  ALA32       0.2287
     40  O          4.7950   43.2720   10.9440 O.2    32  ALA32      -0.2864
     41  CB         7.1180   45.1750   12.3720 C.3    32  ALA32       0.0319
     42  N          1.8640   42.1900    7.5000 N.3    40  ASN40      -0.1240
     43  CA         2.8570   41.7610    8.4910 C.3    40  ASN40       0.1653
     44  C          4.2160   41.4300    7.8870 C.2    40  ASN40       0.2266
     45  O          4.2960   40.7370    6.8800 O.2    40  ASN40      -0.2867
     46  CB         2.3670   40.5430    9.2730 C.3    40  ASN40       0.1155
     47  CG         1.3030   40.8830   10.2910 C.2    40  ASN40       0.2627
     48  OD1        1.3630   41.9100   10.9710 O.2    40  ASN40      -0.2716
     49  ND2        0.3280   40.0010   10.4180 N.am   40  ASN40      -0.0877
     50  N          8.6860   40.5930    8.9330 N.3    42  ALA42      -0.1245
     51  CA         9.7130   40.3560    9.9560 C.3    42  ALA42       0.1562
     52  C         10.8730   41.2640    9.6070 C.2    42  ALA42       0.2260
     53  O         11.0960   41.5220    8.4370 O.2    42  ALA42      -0.2867
     54  CB        10.1650   38.8710    9.9770 C.3    42  ALA42       0.0290
     55  N         14.9800   42.1290   10.4640 N.3    44  LYS44      -0.1245
     56  CA        16.2300   41.7010   11.0810 C.3    44  LYS44       0.1561
     57  C         17.1970   42.8740   11.1370 C.2    44  LYS44       0.2260
     58  O         17.3220   43.6270   10.1680 O.2    44  LYS44      -0.2867
     59  CB        16.8430   40.5830   10.2360 C.3    44  LYS44       0.0271
     60  CG        18.1580   40.0390   10.7540 C.3    44  LYS44       0.0035
     61  CD        18.6110   38.8850    9.8580 C.3    44  LYS44       0.0206
     62  CE        19.7960   38.1490   10.4580 C.3    44  LYS44       0.1093
     63  NZ        20.5300   37.4180    9.3820 N.3    44  LYS44      -0.1314
     64  N         20.5670   38.0770   -1.6830 N.3    66  MET66      -0.1245
     65  CA        19.1500   38.2720   -1.3910 C.3    66  MET66       0.1570
     66  C         18.4600   39.1330   -2.4460 C.2    66  MET66       0.2261
     67  O         17.2670   38.9840   -2.6930 O.2    66  MET66      -0.2867
     68  CB        18.9680   38.8580    0.0050 C.3    66  MET66       0.0387
     69  CG        18.5680   37.8180    1.0320 C.3    66  MET66       0.0595
     70  SD        19.1600   38.1970    2.6830 S.3    66  MET66      -0.1393
     71  CE        18.6200   39.8730    2.8680 C.3    66  MET66       0.0692
     72  N         14.4900   33.1450    0.4390 N.3    74  ILE74      -0.1245
     73  CA        14.1800   34.4730    0.9680 C.3    74  ILE74       0.1561
     74  C         14.4200   35.5840   -0.0470 C.2    74  ILE74       0.2260
     75  O         15.4870   35.6640   -0.6570 O.2    74  ILE74      -0.2867
     76  CB        15.0190   34.7800    2.2200 C.3    74  ILE74       0.0252
     77  CG1       14.7040   36.1770    2.7410 C.3    74  ILE74       0.0019
     78  CG2       16.5100   34.6470    1.9320 C.3    74  ILE74       0.0019
     79  CD1       15.4930   36.5330    3.9920 C.3    74  ILE74       0.0001
     80  N         13.9490   39.9410   -0.0860 N.3    76  LEU76      -0.1245
     81  CA        13.6780   41.1110    0.7310 C.3    76  LEU76       0.1561
     82  C         12.5470   41.9690    0.2000 C.2    76  LEU76       0.2260
     83  O         12.3340   42.0520   -0.9990 O.2    76  LEU76      -0.2867
     84  CB        14.9160   41.9790    0.8090 C.3    76  LEU76       0.0270
     85  CG        16.0510   41.2920    1.5400 C.3    76  LEU76       0.0019
     86  CD1       17.0540   42.3390    1.8910 C.3    76  LEU76       0.0001
     87  CD2       15.5170   40.6150    2.7860 C.3    76  LEU76       0.0001
     88  N         16.8690   44.6090    7.5860 N.3    94  LEU94      -0.1245
     89  CA        16.3750   43.7890    6.4830 C.3    94  LEU94       0.1561
     90  C         14.9220   43.4510    6.7600 C.2    94  LEU94       0.2260
     91  O         14.5760   43.0460    7.8710 O.2    94  LEU94      -0.2867
     92  CB        17.1960   42.4910    6.3710 C.3    94  LEU94       0.0270
     93  CG        18.7020   42.6430    6.2220 C.3    94  LEU94       0.0019
     94  CD1       19.4000   41.2970    6.0910 C.3    94  LEU94       0.0001
     95  CD2       19.0190   43.5290    5.0110 C.3    94  LEU94       0.0001
     96  N         11.4170   41.4020    5.4990 N.3    96  MET96      -0.1230
     97  CA        10.8350   40.3350    4.6780 C.3    96  MET96       0.1702
     98  C          9.4470   39.9760    5.1760 C.2    96  MET96       0.2592
     99  O          9.0050   40.4600    6.2030 O.2    96  MET96      -0.2718
    100  CB        11.7040   39.0720    4.7080 C.3    96  MET96       0.0401
    101  CG        11.5720   38.2970    6.0220 C.3    96  MET96       0.0596
    102  SD        12.5490   36.7800    6.1220 S.3    96  MET96      -0.1393
    103  CE        11.4740   35.6120    5.2810 C.3    96  MET96       0.0692
    104  N          8.7660   39.1020    4.4530 N.am   97  GLU97      -0.1966
    105  CA         7.4720   38.6390    4.8840 C.3    97  GLU97       0.1733
    106  C          7.6210   37.9140    6.2260 C.2    97  GLU97       0.2616
    107  O          8.5720   37.1480    6.4360 O.2    97  GLU97      -0.2715
    108  CB         6.8600   37.7020    3.8270 C.3    97  GLU97       0.0429
    109  CG         5.3550   37.5290    3.9310 C.3    97  GLU97       0.1163
    110  CD         4.8550   36.1950    3.3510 C.2    97  GLU97       0.3649
    111  OE1        5.4920   35.6560    2.4070 O.co2  97  GLU97      -0.2457
    112  OE2        3.8150   35.6930    3.8470 O.co2  97  GLU97      -0.2457
    113  N          6.6740   38.1650    7.1270 N.am   98  LEU98      -0.1963
    114  CA         6.5620   37.4230    8.3740 C.3    98  LEU98       0.1728
    115  C          6.0640   36.0040    8.0980 C.2    98  LEU98       0.2616
    116  O          4.9430   35.8190    7.6400 O.2    98  LEU98      -0.2715
    117  CB         5.5930   38.1280    9.3260 C.3    98  LEU98       0.0311
    118  CG         5.5240   37.6870   10.7890 C.3    98  LEU98       0.0022
    119  CD1        6.9230   37.6400   11.4060 C.3    98  LEU98       0.0001
    120  CD2        4.5910   38.6300   11.5740 C.3    98  LEU98       0.0001
    121  N          6.9050   35.0090    8.3710 N.am   99  MET99      -0.1963
    122  CA         6.4790   33.6220    8.3130 C.3    99  MET99       0.1736
    123  C          5.8280   33.2610    9.6500 C.2    99  MET99       0.2616
    124  O          5.6300   34.1350   10.4940 O.2    99  MET99      -0.2715
    125  CB         7.6790   32.7250    8.0170 C.3    99  MET99       0.0427
    126  CG         8.4910   33.1850    6.8210 C.3    99  MET99       0.0599
    127  SD         7.5840   32.9680    5.2780 S.3    99  MET99      -0.1393
    128  CE         7.7120   31.1830    5.1020 C.3    99  MET99       0.0692
    129  N          5.5180   31.9840    9.8610 N.am  100  ASP100     -0.1957
    130  CA         4.7530   31.5830   11.0460 C.3   100  ASP100      0.1840
    131  C          5.5800   30.7760   12.0320 C.2   100  ASP100      0.2622
    132  O          5.3960   30.8950   13.2500 O.2   100  ASP100     -0.2715
    133  CB         3.5170   30.7720   10.6460 C.3   100  ASP100      0.1450
    134  CG         2.5140   31.5940    9.8790 C.2   100  ASP100      0.3671
    135  OD1        2.3600   32.7900   10.2130 O.co2 100  ASP100     -0.2456
    136  OD2        1.8820   31.0560    8.9450 O.co2 100  ASP100     -0.2456
    137  N          6.4830   29.9540   11.4990 N.am  101  ALA101     -0.1963
    138  CA         7.2910   29.0750   12.3300 C.3   101  ALA101      0.1728
    139  C          8.5680   28.7110   11.5950 C.2   101  ALA101      0.2616
    140  O          8.6980   28.9960   10.4080 O.2   101  ALA101     -0.2715
    141  CB         6.4980   27.8120   12.6850 C.3   101  ALA101      0.0334
    142  N          9.5120   28.0960   12.3050 N.am  102  ASN102     -0.1972
    143  CA        10.6740   27.4840   11.6680 C.3   102  ASN102      0.1688
    144  C         10.6620   25.9700   11.8360 C.2   102  ASN102      0.2292
    145  O          9.7840   25.4270   12.5040 O.2   102  ASN102     -0.2864
    146  CB        11.9940   28.0900   12.1520 C.3   102  ASN102      0.1181
    147  CG        12.2870   27.7960   13.6080 C.2   102  ASN102      0.2629
    148  OD1       12.0040   26.7090   14.1150 O.2   102  ASN102     -0.2716
    149  ND2       12.8760   28.7660   14.2870 N.am  102  ASN102     -0.0877
    150  N         10.3250   23.7340   15.0900 N.3   105  GLN105     -0.1245
    151  CA         8.9700   23.5860   15.6120 C.3   105  GLN105      0.1566
    152  C          8.1740   22.5650   14.8060 C.2   105  GLN105      0.2260
    153  O          7.4640   21.7290   15.3720 O.2   105  GLN105     -0.2867
    154  CB         8.2580   24.9420   15.6050 C.3   105  GLN105      0.0367
    155  CG         9.0370   26.0200   16.3450 C.3   105  GLN105      0.0905
    156  CD         8.7250   27.4270   15.8590 C.2   105  GLN105      0.2608
    157  OE1        8.4340   27.6390   14.6860 O.2   105  GLN105     -0.2717
    158  NE2        8.8040   28.3990   16.7620 N.am  105  GLN105     -0.0878
    159  N         12.2500   28.4030    7.1920 N.3   146  VAL146     -0.1245
    160  CA        10.9770   28.8240    7.7990 C.3   146  VAL146      0.1561
    161  C          9.7730   28.5200    6.9420 C.2   146  VAL146      0.2260
    162  O          9.8730   28.3710    5.7300 O.2   146  VAL146     -0.2867
    163  CB        10.9440   30.3220    8.1350 C.3   146  VAL146      0.0252
    164  CG1       11.8150   30.6140    9.3410 C.3   146  VAL146      0.0019
    165  CG2       11.3600   31.1510    6.9170 C.3   146  VAL146      0.0019
    166  N         16.4440   30.8100    4.5330 N.3   155  LEU155     -0.1245
    167  CA        16.7120   32.2170    4.8640 C.3   155  LEU155      0.1561
    168  C         18.1410   32.6960    4.6430 C.2   155  LEU155      0.2260
    169  O         18.3890   33.8960    4.6300 O.2   155  LEU155     -0.2867
    170  CB        16.3230   32.5270    6.3060 C.3   155  LEU155      0.0270
    171  CG        14.8830   32.2730    6.7130 C.3   155  LEU155      0.0019
    172  CD1       14.6800   32.8040    8.1110 C.3   155  LEU155      0.0001
    173  CD2       13.9720   32.9590    5.7350 C.3   155  LEU155      0.0001
@<TRIPOS>BOND
     1    67    66    2
     2    66    65    1
     3    64    65    1
     4    65    68    1
     5    83    82    2
     6    75    74    2
     7    80    81    1
     8    74    73    1
     9    68    69    1
    10    82    81    1
    11    72    73    1
    12    81    84    1
    13    84    85    1
    14    73    76    1
    15    69    70    1
    16    85    86    1
    17    85    87    1
    18    78    76    1
    19    76    77    1
    20   111   110   ar
    21    70    71    1
    22    77    79    1
    23   110   112   ar
    24   110   109    1
    25   108   109    1
    26   108   105    1
    27   104   105    1
    28   104    98   am
    29   166   167    1
    30   169   168    2
    31   168   167    1
    32    97   100    1
    33    97    98    1
    34    97    96    1
    35   100   101    1
    36   167   170    1
    37   105   106    1
    38    95    93    1
    39   128   127    1
    40    98    99    2
    41   127   126    1
    42   103   102    1
    43   162   161    2
    44   173   171    1
    45   101   102    1
    46    94    93    1
    47    93    92    1
    48   106   107    2
    49   106   113   am
    50   170   171    1
    51    92    89    1
    52    89    90    1
    53    89    88    1
    54   171   172    1
    55    90    91    2
    56   126   125    1
    57    45    44    2
    58   165   163    1
    59   161   160    1
    60   113   114    1
    61   159   160    1
    62    42    43    1
    63   116   115    2
    64   160   163    1
    65    44    43    1
    66   125   122    1
    67   115   121   am
    68   115   114    1
    69   163   164    1
    70   122   121    1
    71   122   123    1
    72   114   117    1
    73    53    52    2
    74    43    46    1
    75    50    51    1
    76   136   134   ar
    77    46    47    1
    78   117   118    1
    79    63    62    1
    80    52    51    1
    81   123   129   am
    82   123   124    2
    83    61    62    1
    84    61    60    1
    85   129   130    1
    86   134   135   ar
    87   134   133    1
    88    51    54    1
    89    58    57    2
    90    59    60    1
    91    59    56    1
    92    47    49   am
    93    47    48    2
    94   140   139    2
    95    55    56    1
    96   133   130    1
    97   118   119    1
    98   118   120    1
    99    40    39    2
   100   130   131    1
   101    56    57    1
   102   137   131   am
   103   137   138    1
   104   139   142   am
   105   139   138    1
   106   143   144    1
   107   143   146    1
   108   143   142    1
   109    39    38    1
   110   144   145    2
   111   131   132    2
   112   146   147    1
   113   138   141    1
   114    41    38    1
   115    30    29    1
   116    38    37    1
   117    37    34   am
   118    31    29    1
   119    29    26    1
   120   147   148    2
   121   147   149   am
   122    33    34    1
   123    33    36    1
   124    33    32    1
   125    24    22    1
   126    34    35    2
   127    26    27    1
   128    26    25    1
   129   157   156    2
   130   152   153    2
   131   152   151    1
   132   150   151    1
   133    27    28    2
   134    22    21    1
   135   154   151    1
   136   154   155    1
   137   156   155    1
   138   156   158   am
   139    23    21    1
   140    21    18    1
   141     9     8    1
   142     4     3    2
   143    18    17    1
   144    18    19    1
   145     1     2    1
   146    17    12   am
   147     8     7    1
   148    19    20    2
   149     3     2    1
   150     3    10   am
   151     5     2    1
   152     5     6    1
   153    12    11    1
   154    12    13    2
   155     6     7    1
   156    11    10    1
   157    11    14    1
   158    10    16    1
   159    14    15    1
   160    16    15    1
