@<TRIPOS>MOLECULE
tmp/3fi3A00.pdb
 196 181 0 0 0
SMALL
GASTEIGER

@<TRIPOS>ATOM
      1  N        -34.1530  -43.1990  -17.8930 N.3    24  LYS24      -0.1231
      2  CA       -34.1580  -42.1310  -18.8670 C.3    24  LYS24       0.1678
      3  C        -33.0610  -41.1630  -18.5060 C.2    24  LYS24       0.2434
      4  O        -32.8610  -40.8480  -17.3400 O.2    24  LYS24      -0.2733
      5  CB       -35.5000  -41.4000  -18.8690 C.3    24  LYS24       0.0284
      6  CG       -36.6210  -42.1600  -19.5420 C.3    24  LYS24       0.0035
      7  CD       -37.9670  -41.5110  -19.2490 C.3    24  LYS24       0.0206
      8  CE       -39.1100  -42.3710  -19.7490 C.3    24  LYS24       0.1093
      9  NZ       -40.4310  -41.7480  -19.4550 N.3    24  LYS24      -0.1314
     10  N        -32.3470  -40.6640  -19.5100 N.am   25  PRO25      -0.2718
     11  CA       -31.2380  -39.7680  -19.1780 C.3    25  PRO25       0.1535
     12  C        -31.7340  -38.3910  -18.7060 C.2    25  PRO25       0.2598
     13  O        -32.7640  -37.9170  -19.1740 O.2    25  PRO25      -0.2715
     14  CB       -30.4830  -39.6570  -20.5000 C.3    25  PRO25       0.0310
     15  CG       -31.5530  -39.9440  -21.5540 C.3    25  PRO25       0.0237
     16  CD       -32.3640  -41.0400  -20.9320 C.3    25  PRO25       0.0939
     17  N        -31.0220  -37.7910  -17.7560 N.am   26  ILE26      -0.1978
     18  CA       -31.2560  -36.4070  -17.3530 C.3    26  ILE26       0.1596
     19  C        -30.2970  -35.4760  -18.0980 C.2    26  ILE26       0.2287
     20  O        -30.6580  -34.8530  -19.0990 O.2    26  ILE26      -0.2864
     21  CB       -30.9720  -36.2070  -15.8790 C.3    26  ILE26       0.0276
     22  CG1      -31.8630  -37.1050  -15.0310 C.3    26  ILE26       0.0022
     23  CG2      -31.1520  -34.7410  -15.5080 C.3    26  ILE26       0.0022
     24  CD1      -31.3700  -37.2400  -13.5810 C.3    26  ILE26       0.0001
     25  N        -25.9630  -39.5190  -15.4640 N.3    29  VAL29      -0.1245
     26  CA       -27.1040  -39.6410  -14.5580 C.3    29  VAL29       0.1561
     27  C        -28.4210  -39.9240  -15.2800 C.2    29  VAL29       0.2260
     28  O        -28.7320  -39.2890  -16.2830 O.2    29  VAL29      -0.2867
     29  CB       -27.3210  -38.3430  -13.7500 C.3    29  VAL29       0.0252
     30  CG1      -28.3470  -38.5780  -12.6620 C.3    29  VAL29       0.0019
     31  CG2      -26.0210  -37.8620  -13.1460 C.3    29  VAL29       0.0019
     32  N        -32.8330  -40.8820  -14.7460 N.3    31  ALA31      -0.1231
     33  CA       -33.9810  -40.9210  -13.8740 C.3    31  ALA31       0.1694
     34  C        -34.4230  -42.3540  -13.9700 C.2    31  ALA31       0.2591
     35  O        -34.3800  -42.9360  -15.0540 O.2    31  ALA31      -0.2718
     36  CB       -35.0880  -40.0040  -14.3960 C.3    31  ALA31       0.0304
     37  N        -34.8470  -42.9360  -12.8570 N.am   32  ALA32      -0.1980
     38  CA       -35.4010  -44.2750  -12.9120 C.3    32  ALA32       0.1597
     39  C        -36.5630  -44.4090  -11.9620 C.2    32  ALA32       0.2287
     40  O        -36.7370  -43.5930  -11.0630 O.2    32  ALA32      -0.2864
     41  CB       -34.3320  -45.3100  -12.5740 C.3    32  ALA32       0.0319
     42  N        -39.7180  -42.5010   -7.8080 N.3    40  ASN40      -0.1240
     43  CA       -38.7160  -42.1300   -8.8000 C.3    40  ASN40       0.1653
     44  C        -37.3880  -41.8230   -8.1110 C.2    40  ASN40       0.2266
     45  O        -37.3810  -41.2590   -7.0220 O.2    40  ASN40      -0.2867
     46  CB       -39.1820  -40.9380   -9.6310 C.3    40  ASN40       0.1155
     47  CG       -40.3600  -41.2780  -10.5060 C.2    40  ASN40       0.2627
     48  OD1      -40.4430  -42.3770  -11.0580 O.2    40  ASN40      -0.2716
     49  ND2      -41.2840  -40.3400  -10.6380 N.am   40  ASN40      -0.0877
     50  N        -32.8720  -40.7980   -8.9020 N.3    42  ALA42      -0.1245
     51  CA       -31.8020  -40.4730   -9.8500 C.3    42  ALA42       0.1562
     52  C        -30.6430  -41.4260   -9.6050 C.2    42  ALA42       0.2260
     53  O        -30.2930  -41.7160   -8.4540 O.2    42  ALA42      -0.2867
     54  CB       -31.3250  -39.0340   -9.7010 C.3    42  ALA42       0.0290
     55  N        -26.6580  -42.1880  -10.5670 N.3    44  LYS44      -0.1245
     56  CA       -25.4200  -41.7080  -11.1530 C.3    44  LYS44       0.1561
     57  C        -24.4050  -42.8360  -11.2790 C.2    44  LYS44       0.2260
     58  O        -24.1910  -43.5850  -10.3280 O.2    44  LYS44      -0.2867
     59  CB       -24.8130  -40.6120  -10.2930 C.3    44  LYS44       0.0271
     60  CG       -23.6200  -39.9440  -10.9520 C.3    44  LYS44       0.0035
     61  CD       -23.0970  -38.7780  -10.1430 C.3    44  LYS44       0.0206
     62  CE       -21.9980  -38.0850  -10.9210 C.3    44  LYS44       0.1093
     63  NZ       -21.3170  -37.0380  -10.1390 N.3    44  LYS44      -0.1314
     64  N        -21.1240  -38.3150    1.6150 N.3    66  MET66      -0.1245
     65  CA       -22.5520  -38.4670    1.3100 C.3    66  MET66       0.1570
     66  C        -23.2940  -39.2870    2.3550 C.2    66  MET66       0.2261
     67  O        -24.5240  -39.2700    2.4010 O.2    66  MET66      -0.2867
     68  CB       -22.7600  -39.1010   -0.0710 C.3    66  MET66       0.0387
     69  CG       -22.5390  -38.1460   -1.2300 C.3    66  MET66       0.0595
     70  SD       -22.4290  -38.9930   -2.8180 S.3    66  MET66      -0.1393
     71  CE       -22.1110  -37.6120   -3.9300 C.3    66  MET66       0.0692
     72  N        -27.0260  -33.3990   -0.3720 N.3    74  ILE74      -0.1245
     73  CA       -27.3720  -34.7090   -0.9310 C.3    74  ILE74       0.1561
     74  C        -27.3670  -35.8240    0.1240 C.2    74  ILE74       0.2260
     75  O        -26.4680  -35.9060    0.9600 O.2    74  ILE74      -0.2867
     76  CB       -26.4320  -35.1030   -2.0920 C.3    74  ILE74       0.0252
     77  CG1      -26.7500  -36.5210   -2.5700 C.3    74  ILE74       0.0019
     78  CG2      -24.9680  -35.0010   -1.6520 C.3    74  ILE74       0.0019
     79  CD1      -25.9950  -36.9430   -3.8120 C.3    74  ILE74       0.0001
     80  N        -28.0560  -40.2160    0.1700 N.3    76  LEU76      -0.1245
     81  CA       -28.1840  -41.3670   -0.7380 C.3    76  LEU76       0.1561
     82  C        -29.2440  -42.3580   -0.2900 C.2    76  LEU76       0.2260
     83  O        -29.3930  -42.6210    0.8900 O.2    76  LEU76      -0.2867
     84  CB       -26.8530  -42.1170   -0.8800 C.3    76  LEU76       0.0270
     85  CG       -25.7470  -41.3280   -1.5610 C.3    76  LEU76       0.0019
     86  CD1      -24.6230  -42.2510   -1.9500 C.3    76  LEU76       0.0001
     87  CD2      -26.3120  -40.6180   -2.7720 C.3    76  LEU76       0.0001
     88  N        -24.5970  -44.6640   -7.7250 N.3    94  LEU94      -0.1245
     89  CA       -25.1370  -43.9190   -6.6020 C.3    94  LEU94       0.1561
     90  C        -26.6020  -43.5980   -6.8910 C.2    94  LEU94       0.2260
     91  O        -26.9360  -43.2100   -8.0030 O.2    94  LEU94      -0.2867
     92  CB       -24.3450  -42.6240   -6.4430 C.3    94  LEU94       0.0270
     93  CG       -22.8270  -42.7670   -6.2810 C.3    94  LEU94       0.0019
     94  CD1      -22.0880  -41.4070   -6.3200 C.3    94  LEU94       0.0001
     95  CD2      -22.4940  -43.5380   -4.9980 C.3    94  LEU94       0.0001
     96  N        -30.1560  -41.5960   -5.5350 N.3    96  MET96      -0.1230
     97  CA       -30.7390  -40.6090   -4.6290 C.3    96  MET96       0.1702
     98  C        -32.1050  -40.2120   -5.1250 C.2    96  MET96       0.2592
     99  O        -32.5580  -40.6610   -6.1720 O.2    96  MET96      -0.2718
    100  CB       -29.8780  -39.3500   -4.5350 C.3    96  MET96       0.0401
    101  CG       -29.9610  -38.4610   -5.7720 C.3    96  MET96       0.0596
    102  SD       -29.0840  -36.8900   -5.5970 S.3    96  MET96      -0.1393
    103  CE       -30.3180  -35.8890   -4.7500 C.3    96  MET96       0.0692
    104  N        -32.7560  -39.3470   -4.3670 N.am   97  GLU97      -0.1966
    105  CA       -34.0660  -38.8350   -4.7500 C.3    97  GLU97       0.1733
    106  C        -33.9940  -38.1110   -6.0920 C.2    97  GLU97       0.2616
    107  O        -33.0120  -37.4040   -6.3760 O.2    97  GLU97      -0.2715
    108  CB       -34.5730  -37.8750   -3.6700 C.3    97  GLU97       0.0429
    109  CG       -36.0070  -37.4550   -3.8330 C.3    97  GLU97       0.1163
    110  CD       -36.4200  -36.4470   -2.7820 C.2    97  GLU97       0.3649
    111  OE1      -35.5360  -35.9890   -2.0190 O.co2  97  GLU97      -0.2457
    112  OE2      -37.6250  -36.1190   -2.7220 O.co2  97  GLU97      -0.2457
    113  N        -35.0340  -38.2770   -6.9070 N.am   98  LEU98      -0.1963
    114  CA       -35.1280  -37.5580   -8.1730 C.3    98  LEU98       0.1728
    115  C        -35.6850  -36.1500   -7.9350 C.2    98  LEU98       0.2616
    116  O        -36.7350  -35.9850   -7.3260 O.2    98  LEU98      -0.2715
    117  CB       -36.0070  -38.3070   -9.1830 C.3    98  LEU98       0.0311
    118  CG       -36.1070  -37.6750  -10.5790 C.3    98  LEU98       0.0022
    119  CD1      -34.7410  -37.5470  -11.2280 C.3    98  LEU98       0.0001
    120  CD2      -37.0580  -38.4520  -11.4970 C.3    98  LEU98       0.0001
    121  N        -34.9710  -35.1410   -8.4130 N.am   99  MET99      -0.1963
    122  CA       -35.4010  -33.7570   -8.2580 C.3    99  MET99       0.1736
    123  C        -35.9650  -33.2940   -9.5870 C.2    99  MET99       0.2616
    124  O        -36.1020  -34.0900  -10.5070 O.2    99  MET99      -0.2715
    125  CB       -34.2060  -32.8970   -7.8680 C.3    99  MET99       0.0427
    126  CG       -33.4270  -33.4750   -6.6830 C.3    99  MET99       0.0599
    127  SD       -34.3320  -33.2030   -5.1490 S.3    99  MET99      -0.1393
    128  CE       -34.1000  -31.4240   -5.0060 C.3    99  MET99       0.0692
    129  N        -36.2850  -32.0110   -9.7050 N.am  100  ASP100     -0.1957
    130  CA       -37.0100  -31.5550  -10.8840 C.3   100  ASP100      0.1840
    131  C        -36.1590  -30.8230  -11.8980 C.2   100  ASP100      0.2622
    132  O        -36.4060  -30.9430  -13.1010 O.2   100  ASP100     -0.2715
    133  CB       -38.2390  -30.7510  -10.4780 C.3   100  ASP100      0.1450
    134  CG       -39.2630  -31.6150   -9.7480 C.2   100  ASP100      0.3671
    135  OD1      -39.3500  -32.8310  -10.0860 O.co2 100  ASP100     -0.2456
    136  OD2      -39.9620  -31.0970   -8.8380 O.co2 100  ASP100     -0.2456
    137  N        -35.1370  -30.1140  -11.4100 N.am  101  ALA101     -0.1963
    138  CA       -34.2630  -29.3190  -12.2650 C.3   101  ALA101      0.1728
    139  C        -33.0180  -28.9280  -11.4770 C.2   101  ALA101      0.2616
    140  O        -32.9890  -29.0900  -10.2660 O.2   101  ALA101     -0.2715
    141  CB       -35.0030  -28.0720  -12.7640 C.3   101  ALA101      0.0334
    142  N        -31.9750  -28.4650  -12.1600 N.am  102  ASN102     -0.1972
    143  CA       -30.8510  -27.8310  -11.4640 C.3   102  ASN102      0.1688
    144  C        -30.9370  -26.3130  -11.5870 C.2   102  ASN102      0.2292
    145  O        -31.7540  -25.8070  -12.3550 O.2   102  ASN102     -0.2864
    146  CB       -29.5170  -28.3270  -12.0090 C.3   102  ASN102      0.1181
    147  CG       -29.3430  -28.0320  -13.4820 C.2   102  ASN102      0.2629
    148  OD1      -29.7240  -26.9600  -13.9740 O.2   102  ASN102     -0.2716
    149  ND2      -28.7560  -28.9790  -14.1970 N.am  102  ASN102     -0.0877
    150  N        -31.4390  -24.0650  -14.9620 N.3   104  GLN104     -0.1245
    151  CA       -32.7580  -23.8420  -15.5410 C.3   104  GLN104      0.1566
    152  C        -33.4980  -22.7880  -14.7320 C.2   104  GLN104      0.2260
    153  O        -34.1340  -21.8850  -15.2770 O.2   104  GLN104     -0.2867
    154  CB       -33.5350  -25.1540  -15.5570 C.3   104  GLN104      0.0367
    155  CG       -32.6710  -26.3310  -15.9700 C.3   104  GLN104      0.0905
    156  CD       -33.3400  -27.6660  -15.7310 C.2   104  GLN104      0.2608
    157  OE1      -32.7750  -28.5450  -15.0750 O.2   104  GLN104     -0.2717
    158  NE2      -34.5580  -27.8240  -16.2530 N.am  104  GLN104     -0.0878
    159  N        -24.7590  -25.8910  -11.9850 N.3   141  SER141     -0.1217
    160  CA       -25.0230  -27.2320  -12.5290 C.3   141  SER141      0.1889
    161  C        -25.0740  -28.3790  -11.5000 C.2   141  SER141      0.2288
    162  O        -25.6780  -29.4040  -11.7750 O.2   141  SER141     -0.2866
    163  CB       -24.0750  -27.5750  -13.6800 C.3   141  SER141      0.2089
    164  OG       -22.7180  -27.3120  -13.3650 O.3   141  SER141     -0.2183
    165  N        -29.4390  -28.7850   -7.2380 N.3   144  VAL144     -0.1245
    166  CA       -30.7030  -29.1860   -7.8320 C.3   144  VAL144      0.1561
    167  C        -31.8640  -28.7640   -6.9620 C.2   144  VAL144      0.2260
    168  O        -31.7020  -28.5090   -5.7620 O.2   144  VAL144     -0.2867
    169  CB       -30.7630  -30.7030   -8.0700 C.3   144  VAL144      0.0252
    170  CG1      -29.7380  -31.1120   -9.1360 C.3   144  VAL144      0.0019
    171  CG2      -30.5160  -31.4550   -6.7680 C.3   144  VAL144      0.0019
    172  N        -36.4040  -29.1360   -6.4610 N.3   146  LYS146     -0.1245
    173  CA       -37.7350  -29.6300   -6.8000 C.3   146  LYS146      0.1561
    174  C        -38.6270  -28.4350   -7.1550 C.2   146  LYS146      0.2260
    175  O        -38.2410  -27.2790   -6.9530 O.2   146  LYS146     -0.2867
    176  CB       -38.3420  -30.3930   -5.6200 C.3   146  LYS146      0.0271
    177  CG       -37.8780  -31.8370   -5.4800 C.3   146  LYS146      0.0035
    178  CD       -38.6270  -32.5420   -4.3470 C.3   146  LYS146      0.0206
    179  CE       -38.7650  -34.0470   -4.5940 C.3   146  LYS146      0.1093
    180  NZ       -39.8770  -34.3860   -5.5370 N.3   146  LYS146     -0.1314
    181  N        -25.1080  -31.1100   -4.4470 N.3   153  LEU153     -0.1231
    182  CA       -24.8230  -32.4900   -4.8630 C.3   153  LEU153      0.1693
    183  C        -23.4010  -33.0060   -4.5700 C.2   153  LEU153      0.2592
    184  O        -23.1790  -34.2190   -4.5330 O.2   153  LEU153     -0.2718
    185  CB       -25.0880  -32.6570   -6.3680 C.3   153  LEU153      0.0284
    186  CG       -26.5210  -32.5840   -6.9120 C.3   153  LEU153      0.0019
    187  CD1      -26.5900  -33.1200   -8.3340 C.3   153  LEU153      0.0001
    188  CD2      -27.4440  -33.3690   -6.0210 C.3   153  LEU153      0.0001
    189  N        -22.4310  -32.1120   -4.4080 N.am  154  ASP154     -0.1974
    190  CA       -21.0570  -32.5740   -4.2120 C.3   154  ASP154      0.1709
    191  C        -20.3320  -31.7770   -3.1340 C.2   154  ASP154      0.2293
    192  O        -20.8830  -30.8360   -2.5610 O.2   154  ASP154     -0.2864
    193  CB       -20.2620  -32.5250   -5.5140 C.3   154  ASP154      0.1436
    194  CG       -20.0050  -31.1010   -5.9850 C.2   154  ASP154      0.3671
    195  OD1      -20.5860  -30.1600   -5.3950 O.co2 154  ASP154     -0.2456
    196  OD2      -19.2300  -30.9190   -6.9490 O.co2 154  ASP154     -0.2456
@<TRIPOS>BOND
     1    15    16    1
     2    15    14    1
     3    16    10    1
     4    14    11    1
     5     8     9    1
     6     8     7    1
     7     6     7    1
     8     6     5    1
     9    10    11    1
    10    10     3   am
    11    11    12    1
    12    13    12    2
    13    20    19    2
    14     5     2    1
    15     2     3    1
    16     2     1    1
    17    12    17   am
    18     3     4    2
    19    19    18    1
    20    17    18    1
    21    18    21    1
    22    28    27    2
    23   158   156   am
    24   155   156    1
    25   155   154    1
    26    21    23    1
    27    21    22    1
    28   156   157    2
    29   154   151    1
    30   151   150    1
    31   151   152    1
    32    25    26    1
    33    27    26    1
    34   153   152    2
    35    35    34    2
    36    22    24    1
    37    32    33    1
    38    26    29    1
    39    36    33    1
    40   149   147   am
    41   148   147    2
    42    34    33    1
    43    34    37   am
    44    29    31    1
    45    29    30    1
    46   163   164    1
    47   163   160    1
    48   147   146    1
    49   132   131    2
    50    38    37    1
    51    38    41    1
    52    38    39    1
    53   141   138    1
    54   160   159    1
    55   160   161    1
    56   145   144    2
    57   138   139    1
    58   138   137    1
    59   142   139   am
    60   142   143    1
    61   146   143    1
    62    39    40    2
    63   131   137   am
    64   131   130    1
    65   162   161    2
    66   144   143    1
    67   120   118    1
    68   139   140    2
    69    57    56    1
    70    57    58    2
    71   119   118    1
    72    56    55    1
    73    56    59    1
    74    48    47    2
    75    60    59    1
    76    60    61    1
    77    62    61    1
    78    62    63    1
    79   130   133    1
    80   130   129    1
    81    49    47   am
    82   118   117    1
    83   124   123    2
    84    47    46    1
    85   133   134    1
    86   135   134   ar
    87    51    54    1
    88    51    52    1
    89    51    50    1
    90   134   136   ar
    91   129   123   am
    92    46    43    1
    93    52    53    2
    94   123   122    1
    95   117   114    1
    96   170   169    1
    97    43    44    1
    98    43    42    1
    99   121   122    1
   100   121   115   am
   101   187   186    1
   102   122   125    1
   103   114   115    1
   104   114   113    1
   105    44    45    2
   106   169   166    1
   107   169   171    1
   108    91    90    2
   109   115   116    2
   110   125   126    1
   111   166   165    1
   112   166   167    1
   113    88    89    1
   114   174   175    2
   115   174   173    1
   116   167   168    2
   117   196   194   ar
   118   186   185    1
   119   186   188    1
   120   113   106   am
   121    90    89    1
   122   173   172    1
   123   173   176    1
   124   126   127    1
   125    89    92    1
   126    92    93    1
   127   107   106    2
   128   185   182    1
   129    94    93    1
   130    93    95    1
   131    99    98    2
   132   106   105    1
   133   194   193    1
   134   194   195   ar
   135   101   102    1
   136   101   100    1
   137   176   177    1
   138   102   103    1
   139   180   179    1
   140    96    97    1
   141   193   190    1
   142   177   178    1
   143   127   128    1
   144    98    97    1
   145    98   104   am
   146   182   183    1
   147   182   181    1
   148   105   104    1
   149   105   108    1
   150    97   100    1
   151   179   178    1
   152   183   184    2
   153   183   189   am
   154   189   190    1
   155   190   191    1
   156    71    70    1
   157   109   108    1
   158   109   110    1
   159    79    77    1
   160   191   192    2
   161    70    69    1
   162   110   112   ar
   163   110   111   ar
   164    87    85    1
   165    77    76    1
   166    76    78    1
   167    76    73    1
   168    86    85    1
   169    85    84    1
   170    69    68    1
   171    73    72    1
   172    73    74    1
   173    84    81    1
   174    81    82    1
   175    81    80    1
   176    82    83    2
   177    68    65    1
   178    74    75    2
   179    65    64    1
   180    65    66    1
   181    66    67    2
