@<TRIPOS>MOLECULE
tmp/3fi4A00.pdb
 196 185 0 0 0
SMALL
GASTEIGER

@<TRIPOS>ATOM
      1  N         46.9220   53.0710  101.3280 N.3    27  VAL27      -0.1245
      2  CA        47.8110   53.0900  100.1650 C.3    27  VAL27       0.1561
      3  C         48.4330   54.4800  100.0240 C.2    27  VAL27       0.2260
      4  O         49.6210   54.6140   99.7180 O.2    27  VAL27      -0.2867
      5  CB        47.0590   52.7350   98.8510 C.3    27  VAL27       0.0252
      6  CG1       48.0040   52.7830   97.6530 C.3    27  VAL27       0.0019
      7  CG2       46.4110   51.3680   98.9480 C.3    27  VAL27       0.0019
      8  N         47.3510   58.8910   99.0190 N.3    29  SER29      -0.1202
      9  CA        46.4150   59.8620   98.4470 C.3    29  SER29       0.2020
     10  C         45.9640   59.4690   97.0400 C.2    29  SER29       0.2619
     11  O         46.7800   59.0770   96.1990 O.2    29  SER29      -0.2717
     12  CB        47.0410   61.2590   98.4040 C.3    29  SER29       0.2103
     13  OG        47.0760   61.8430   99.6940 O.3    29  SER29      -0.2182
     14  N         44.6600   59.5730   96.8020 N.am   30  GLY30      -0.1942
     15  CA        44.1000   59.4270   95.4680 C.3    30  GLY30       0.2014
     16  C         43.5800   60.7730   95.0090 C.2    30  GLY30       0.2638
     17  O         43.9840   61.8150   95.5380 O.2    30  GLY30      -0.2714
     18  N         42.6760   60.7570   94.0330 N.am   31  ALA31      -0.1977
     19  CA        42.0690   61.9860   93.5330 C.3    31  ALA31       0.1597
     20  C         40.8480   62.3740   94.3740 C.2    31  ALA31       0.2287
     21  O         39.8100   61.6960   94.3530 O.2    31  ALA31      -0.2864
     22  CB        41.7070   61.8440   92.0600 C.3    31  ALA31       0.0319
     23  N         42.9620   56.5910   99.9050 N.3    35  VAL35      -0.1245
     24  CA        42.7720   55.2550   99.3620 C.3    35  VAL35       0.1561
     25  C         43.2830   54.1680  100.3140 C.2    35  VAL35       0.2260
     26  O         44.3710   54.2830  100.9000 O.2    35  VAL35      -0.2867
     27  CB        43.4370   55.1230   97.9660 C.3    35  VAL35       0.0252
     28  CG1       43.2510   53.7240   97.3870 C.3    35  VAL35       0.0019
     29  CG2       42.8700   56.1700   97.0100 C.3    35  VAL35       0.0019
     30  N         40.9870   48.6200   95.6160 N.3    48  ALA48      -0.1245
     31  CA        41.2970   49.9270   96.1850 C.3    48  ALA48       0.1562
     32  C         39.9860   50.6090   96.5390 C.2    48  ALA48       0.2260
     33  O         39.0750   50.6700   95.7140 O.2    48  ALA48      -0.2867
     34  CB        42.0890   50.7760   95.1940 C.3    48  ALA48       0.0290
     35  N         38.3240   54.1420   97.8670 N.3    50  LYS50      -0.1245
     36  CA        38.5270   55.5700   98.0780 C.3    50  LYS50       0.1561
     37  C         37.3400   56.2010   98.7980 C.2    50  LYS50       0.2260
     38  O         36.2080   56.1500   98.3140 O.2    50  LYS50      -0.2867
     39  CB        38.8150   56.2840   96.7530 C.3    50  LYS50       0.0271
     40  CG        39.2040   57.7620   96.9060 C.3    50  LYS50       0.0035
     41  CD        39.9260   58.3000   95.6710 C.3    50  LYS50       0.0206
     42  CE        38.9740   58.5460   94.5250 C.3    50  LYS50       0.1093
     43  NZ        39.6500   59.2070   93.3620 N.3    50  LYS50      -0.1314
     44  N         32.9280   62.7070   89.2060 N.3    68  GLU68      -0.1245
     45  CA        33.7560   61.4960   89.3370 C.3    68  GLU68       0.1567
     46  C         32.9120   60.2170   89.3390 C.2    68  GLU68       0.2260
     47  O         33.2650   59.2320   88.6910 O.2    68  GLU68      -0.2867
     48  CB        34.6710   61.5410   90.5730 C.3    68  GLU68       0.0388
     49  CG        35.5850   60.3020   90.6510 C.3    68  GLU68       0.1160
     50  CD        36.6250   60.3350   91.7650 C.2    68  GLU68       0.3649
     51  OE1       36.5430   61.1930   92.6650 O.co2  68  GLU68      -0.2457
     52  OE2       37.5320   59.4770   91.7280 O.co2  68  GLU68      -0.2457
     53  N         33.2670   57.2770   86.4600 N.3    72  LEU72      -0.1245
     54  CA        33.6340   55.9230   86.8680 C.3    72  LEU72       0.1561
     55  C         32.5500   54.9000   86.5390 C.2    72  LEU72       0.2260
     56  O         32.8580   53.7810   86.1310 O.2    72  LEU72      -0.2867
     57  CB        33.9990   55.8810   88.3580 C.3    72  LEU72       0.0270
     58  CG        35.3050   56.5410   88.8100 C.3    72  LEU72       0.0019
     59  CD1       35.3300   56.6320   90.3270 C.3    72  LEU72       0.0001
     60  CD2       36.5380   55.7860   88.2960 C.3    72  LEU72       0.0001
     61  N         40.2560   52.4020   84.4090 N.3    81  ILE81      -0.1231
     62  CA        39.7320   52.1850   85.7520 C.3    81  ILE81       0.1692
     63  C         38.2200   52.4230   85.7780 C.2    81  ILE81       0.2593
     64  O         37.7210   53.4610   85.3250 O.2    81  ILE81      -0.2718
     65  CB        40.5050   53.0400   86.8150 C.3    81  ILE81       0.0266
     66  CG1       41.8240   52.3520   87.1930 C.3    81  ILE81       0.0019
     67  CG2       39.6590   53.3420   88.0610 C.3    81  ILE81       0.0020
     68  CD1       41.7140   51.0760   88.0420 C.3    81  ILE81       0.0001
     69  N         37.5030   51.4250   86.2800 N.am   82  GLY82      -0.1942
     70  CA        36.0560   51.4930   86.4030 C.3    82  GLY82       0.2014
     71  C         35.6100   51.1760   87.8120 C.2    82  GLY82       0.2638
     72  O         36.4350   50.9730   88.7120 O.2    82  GLY82      -0.2714
     73  N         34.2980   51.1190   88.0000 N.am   83  LEU83      -0.1977
     74  CA        33.7210   50.9490   89.3220 C.3    83  LEU83       0.1596
     75  C         33.3190   49.5020   89.5680 C.2    83  LEU83       0.2287
     76  O         32.5130   48.9350   88.8240 O.2    83  LEU83      -0.2864
     77  CB        32.5080   51.8640   89.4680 C.3    83  LEU83       0.0297
     78  CG        32.1650   52.4490   90.8300 C.3    83  LEU83       0.0022
     79  CD1       33.3640   53.1810   91.4510 C.3    83  LEU83       0.0001
     80  CD2       30.9680   53.3850   90.6660 C.3    83  LEU83       0.0001
     81  N         34.2620   54.7320   96.9210 N.3   101  LEU101     -0.1231
     82  CA        34.4260   54.1810   95.5780 C.3   101  LEU101      0.1693
     83  C         35.3860   52.9990   95.6020 C.2   101  LEU101      0.2592
     84  O         36.3840   53.0220   96.3240 O.2   101  LEU101     -0.2718
     85  CB        34.9580   55.2610   94.6300 C.3   101  LEU101      0.0284
     86  CG        34.1350   56.5500   94.5430 C.3   101  LEU101      0.0019
     87  CD1       34.9900   57.6800   93.9940 C.3   101  LEU101      0.0001
     88  CD2       32.8700   56.3390   93.7040 C.3   101  LEU101      0.0001
     89  N         35.0880   51.9790   94.8020 N.am  102  VAL102     -0.1966
     90  CA        35.8540   50.7360   94.8160 C.3   102  VAL102      0.1727
     91  C         36.2520   50.3200   93.4050 C.2   102  VAL102      0.2617
     92  O         35.4050   50.2360   92.5110 O.2   102  VAL102     -0.2715
     93  CB        35.0730   49.5690   95.5080 C.3   102  VAL102      0.0290
     94  CG1       35.8910   48.2750   95.4960 C.3   102  VAL102      0.0023
     95  CG2       34.6740   49.9330   96.9320 C.3   102  VAL102      0.0023
     96  N         37.5430   50.0550   93.2150 N.am  103  THR103     -0.1937
     97  CA        38.0640   49.5700   91.9380 C.3   103  THR103      0.2028
     98  C         39.1730   48.5360   92.1590 C.2   103  THR103      0.2642
     99  O         39.5160   48.2220   93.2950 O.2   103  THR103     -0.2714
    100  CB        38.5780   50.7390   91.0430 C.3   103  THR103      0.1808
    101  OG1       38.7470   50.2720   89.7020 O.3   103  THR103     -0.2208
    102  CG2       39.9040   51.3010   91.5560 C.3   103  THR103      0.0379
    103  N         39.7250   48.0040   91.0740 N.am  104  HIS104     -0.1959
    104  CA        40.8370   47.0700   91.1670 C.3   104  HIS104      0.1787
    105  C         42.0420   47.6980   91.8740 C.2   104  HIS104      0.2620
    106  O         42.3450   48.8700   91.6640 O.2   104  HIS104     -0.2715
    107  CB        41.2470   46.6140   89.7710 C.3   104  HIS104      0.0785
    108  CG        40.1980   45.8150   89.0610 C.ar  104  HIS104      0.0821
    109  ND1       39.2930   46.3830   88.1890 N.ar  104  HIS104     -0.2267
    110  CD2       39.9170   44.4900   89.0880 C.ar  104  HIS104      0.1154
    111  CE1       38.5010   45.4420   87.7080 C.ar  104  HIS104      0.1986
    112  NE2       38.8580   44.2850   88.2390 N.ar  104  HIS104     -0.2212
    113  N         42.7070   46.9230   92.7280 N.am  105  LEU105     -0.1963
    114  CA        44.0020   47.3330   93.2690 C.3   105  LEU105      0.1728
    115  C         45.0800   46.9800   92.2520 C.2   105  LEU105      0.2616
    116  O         45.2460   45.8170   91.8830 O.2   105  LEU105     -0.2715
    117  CB        44.2960   46.6640   94.6150 C.3   105  LEU105      0.0311
    118  CG        45.5550   47.1110   95.3750 C.3   105  LEU105      0.0022
    119  CD1       45.4120   48.5260   95.9280 C.3   105  LEU105      0.0001
    120  CD2       45.8900   46.1200   96.5010 C.3   105  LEU105      0.0001
    121  N         45.7910   48.0030   91.7880 N.am  106  MET106     -0.1963
    122  CA        46.8590   47.8200   90.8180 C.3   106  MET106      0.1736
    123  C         48.1700   47.5860   91.5510 C.2   106  MET106      0.2617
    124  O         48.2580   47.8350   92.7500 O.2   106  MET106     -0.2715
    125  CB        46.9430   49.0340   89.8860 C.3   106  MET106      0.0427
    126  CG        45.6520   49.2970   89.0920 C.3   106  MET106      0.0599
    127  SD        45.0560   47.8570   88.1680 S.3   106  MET106     -0.1393
    128  CE        46.3300   47.6910   86.9120 C.3   106  MET106      0.0692
    129  N         49.1820   47.1070   90.8290 N.am  107  GLY107     -0.1940
    130  CA        50.4730   46.7480   91.4240 C.3   107  GLY107      0.2014
    131  C         51.4890   47.8720   91.5260 C.2   107  GLY107      0.2639
    132  O         52.1290   48.0440   92.5630 O.2   107  GLY107     -0.2714
    133  N         51.6470   48.6230   90.4400 N.am  108  ALA108     -0.1963
    134  CA        52.6130   49.7190   90.3660 C.3   108  ALA108      0.1728
    135  C         52.1460   50.7470   89.3340 C.2   108  ALA108      0.2616
    136  O         51.4090   50.3990   88.4170 O.2   108  ALA108     -0.2715
    137  CB        53.9890   49.1750   89.9780 C.3   108  ALA108      0.0334
    138  N         52.5620   52.0040   89.4830 N.am  109  ASP109     -0.1971
    139  CA        52.3900   52.9860   88.4060 C.3   109  ASP109      0.1709
    140  C         53.5940   52.9410   87.4540 C.2   109  ASP109      0.2293
    141  O         54.5480   52.1980   87.7010 O.2   109  ASP109     -0.2864
    142  CB        52.1040   54.3980   88.9430 C.3   109  ASP109      0.1436
    143  CG        53.2430   54.9710   89.7670 C.2   109  ASP109      0.3671
    144  OD1       54.4190   54.6990   89.4600 O.co2 109  ASP109     -0.2456
    145  OD2       52.9530   55.7200   90.7210 O.co2 109  ASP109     -0.2456
    146  N         57.0580   53.4740   88.8540 N.3   112  ASN112     -0.1240
    147  CA        57.5810   52.3350   89.6160 C.3   112  ASN112      0.1653
    148  C         58.0210   51.1750   88.7240 C.2   112  ASN112      0.2266
    149  O         58.2580   50.0610   89.2130 O.2   112  ASN112     -0.2867
    150  CB        56.5500   51.8220   90.6400 C.3   112  ASN112      0.1155
    151  CG        55.9610   52.9280   91.5180 C.2   112  ASN112      0.2627
    152  OD1       54.8270   52.8040   92.0050 O.2   112  ASN112     -0.2716
    153  ND2       56.7220   54.0030   91.7350 N.am  112  ASN112     -0.0877
    154  N         52.2260   58.5720   86.7070 N.3   144  SER144     -0.1202
    155  CA        51.6440   58.2950   88.0230 C.3   144  SER144      0.2020
    156  C         50.1470   57.9430   88.0320 C.2   144  SER144      0.2619
    157  O         49.6600   57.3960   89.0180 O.2   144  SER144     -0.2717
    158  CB        51.9240   59.4480   88.9970 C.3   144  SER144      0.2103
    159  OG        51.1800   60.6010   88.6510 O.3   144  SER144     -0.2182
    160  N         49.4150   58.2540   86.9610 N.am  145  ASN145     -0.1960
    161  CA        48.0280   57.7610   86.8380 C.3   145  ASN145      0.1819
    162  C         47.8680   56.6750   85.7730 C.2   145  ASN145      0.2621
    163  O         46.7940   56.4930   85.1910 O.2   145  ASN145     -0.2715
    164  CB        47.0000   58.8970   86.6720 C.3   145  ASN145      0.1195
    165  CG        47.3630   59.8770   85.5720 C.2   145  ASN145      0.2630
    166  OD1       47.7840   59.4850   84.4790 O.2   145  ASN145     -0.2716
    167  ND2       47.1870   61.1700   85.8540 N.am  145  ASN145     -0.0877
    168  N         48.9590   55.9610   85.5300 N.am  146  LEU146     -0.1963
    169  CA        48.9600   54.7860   84.6750 C.3   146  LEU146      0.1728
    170  C         49.5040   53.6310   85.4940 C.2   146  LEU146      0.2616
    171  O         50.6330   53.6840   85.9770 O.2   146  LEU146     -0.2715
    172  CB        49.8220   55.0220   83.4350 C.3   146  LEU146      0.0311
    173  CG        49.2980   56.0600   82.4430 C.3   146  LEU146      0.0022
    174  CD1       50.3760   56.4130   81.4290 C.3   146  LEU146      0.0001
    175  CD2       48.0440   55.5470   81.7530 C.3   146  LEU146      0.0001
    176  N         48.6930   52.5950   85.6690 N.am  147  ALA147     -0.1977
    177  CA        49.0670   51.5060   86.5630 C.3   147  ALA147      0.1597
    178  C         48.9950   50.1400   85.9080 C.2   147  ALA147      0.2287
    179  O         48.1490   49.8850   85.0430 O.2   147  ALA147     -0.2864
    180  CB        48.2330   51.5460   87.8100 C.3   147  ALA147      0.0319
    181  N         43.9740   55.7890   85.1430 N.3   157  LEU157     -0.1231
    182  CA        43.2560   56.3500   86.2950 C.3   157  LEU157      0.1693
    183  C         43.1420   57.8720   86.2190 C.2   157  LEU157      0.2592
    184  O         43.8710   58.5130   85.4670 O.2   157  LEU157     -0.2718
    185  CB        43.9660   55.9880   87.6090 C.3   157  LEU157      0.0284
    186  CG        43.9760   54.5330   88.0740 C.3   157  LEU157      0.0019
    187  CD1       45.2220   53.8260   87.5930 C.3   157  LEU157      0.0001
    188  CD2       43.8640   54.4630   89.5890 C.3   157  LEU157      0.0001
    189  N         42.2230   58.4280   87.0150 N.am  158  ASP158     -0.1974
    190  CA        42.0920   59.8800   87.2550 C.3   158  ASP158      0.1709
    191  C         41.6850   60.7290   86.0390 C.2   158  ASP158      0.2293
    192  O         41.9840   61.9240   85.9800 O.2   158  ASP158     -0.2864
    193  CB        43.3620   60.4540   87.9150 C.3   158  ASP158      0.1436
    194  CG        43.6760   59.8180   89.2720 C.2   158  ASP158      0.3671
    195  OD1       44.7920   60.0510   89.7900 O.co2 158  ASP158     -0.2456
    196  OD2       42.8240   59.0890   89.8320 O.co2 158  ASP158     -0.2456
@<TRIPOS>BOND
     1   174   173    1
     2   175   173    1
     3   173   172    1
     4   172   169    1
     5    61    62    1
     6   166   165    2
     7   169   170    1
     8   169   168    1
     9   179   178    2
    10   181   182    1
    11   163   162    2
    12    64    63    2
    13   184   183    2
    14   170   176   am
    15   170   171    2
    16   168   162   am
    17   165   167   am
    18   165   164    1
    19   176   177    1
    20    62    63    1
    21    62    65    1
    22   162   161    1
    23    63    69   am
    24   178   177    1
    25   192   191    2
    26   191   190    1
    27    56    55    2
    28   183   182    1
    29   183   189   am
    30    69    70    1
    31   182   185    1
    32    70    71    1
    33    53    54    1
    34    55    54    1
    35   177   180    1
    36   164   161    1
    37   154   155    1
    38    65    66    1
    39    65    67    1
    40   161   160    1
    41    54    57    1
    42   128   127    1
    43   160   156   am
    44   189   190    1
    45    66    68    1
    46   190   193    1
    47   140   141    2
    48   140   139    1
    49   187   186    1
    50   185   186    1
    51   111   109   ar
    52   111   112   ar
    53    71    73   am
    54    71    72    2
    55   193   194    1
    56    73    74    1
    57   155   156    1
    58   155   158    1
    59   156   157    2
    60   186   188    1
    61   127   126    1
    62   109   108   ar
    63   112   110   ar
    64    60    58    1
    65    57    58    1
    66   139   142    1
    67   139   138    1
    68   136   135    2
    69   159   158    1
    70    47    46    2
    71   148   149    2
    72   148   147    1
    73    58    59    1
    74    76    75    2
    75   146   147    1
    76   142   143    1
    77   108   110   ar
    78   108   107    1
    79   126   125    1
    80    44    45    1
    81   194   195   ar
    82   194   196   ar
    83    74    77    1
    84    74    75    1
    85   135   138   am
    86   135   134    1
    87    45    46    1
    88    45    48    1
    89   144   143   ar
    90    77    78    1
    91   147   150    1
    92   101   100    1
    93   143   145   ar
    94   107   104    1
    95   125   122    1
    96   137   134    1
    97   134   133    1
    98   133   131   am
    99    48    49    1
   100   150   151    1
   101    49    50    1
   102    80    78    1
   103   122   123    1
   104   122   121    1
   105   129   130    1
   106   129   123   am
   107    78    79    1
   108   100   102    1
   109   100    97    1
   110   103   104    1
   111   103    98   am
   112   104   105    1
   113   130   131    1
   114   151   153   am
   115   151   152    2
   116   131   132    2
   117   123   124    2
   118   106   105    2
   119    52    50   ar
   120    50    51   ar
   121   121   115   am
   122   105   113   am
   123   116   115    2
   124    97    98    1
   125    97    96    1
   126    22    19    1
   127    98    99    2
   128   115   114    1
   129    92    91    2
   130   113   114    1
   131    96    91   am
   132   114   117    1
   133    43    42    1
   134    91    90    1
   135    19    18    1
   136    19    20    1
   137    88    86    1
   138    87    86    1
   139    18    16   am
   140    21    20    2
   141    42    41    1
   142    86    85    1
   143   117   118    1
   144    85    82    1
   145    89    90    1
   146    89    83   am
   147    90    93    1
   148    16    15    1
   149    16    17    2
   150    34    31    1
   151   118   119    1
   152   118   120    1
   153    15    14    1
   154    94    93    1
   155    93    95    1
   156    82    83    1
   157    82    81    1
   158    83    84    2
   159    30    31    1
   160    41    40    1
   161    33    32    2
   162    31    32    1
   163    11    10    2
   164    39    40    1
   165    39    36    1
   166    14    10   am
   167    29    27    1
   168    10     9    1
   169    28    27    1
   170     6     5    1
   171    35    36    1
   172    27    24    1
   173    36    37    1
   174    38    37    2
   175    12     9    1
   176    12    13    1
   177     9     8    1
   178     5     7    1
   179     5     2    1
   180    24    23    1
   181    24    25    1
   182     4     3    2
   183     3     2    1
   184     2     1    1
   185    25    26    2
