@<TRIPOS>MOLECULE
tmp/3fi8A02.pdb
 109 101 0 0 0
SMALL
GASTEIGER

@<TRIPOS>ATOM
      1  N         20.0230    8.5560   12.6320 N.3   236  ILE236     -0.1245
      2  CA        19.3100    9.3690   11.6320 C.3   236  ILE236      0.1561
      3  C         18.2090   10.1570   12.2670 C.2   236  ILE236      0.2260
      4  O         17.9710   11.3170   11.9170 O.2   236  ILE236     -0.2867
      5  CB        18.6980    8.5350   10.4790 C.3   236  ILE236      0.0252
      6  CG1       19.8090    8.0120    9.5680 C.3   236  ILE236      0.0019
      7  CG2       17.6840    9.4060    9.6600 C.3   236  ILE236      0.0019
      8  CD1       19.4250    6.7440    8.8350 C.3   236  ILE236      0.0001
      9  N         17.7950   13.8540   13.6120 N.3   239  THR239     -0.1218
     10  CA        17.5850   15.0050   12.7240 C.3   239  THR239      0.1862
     11  C         16.1350   15.1300   12.2610 C.2   239  THR239      0.2287
     12  O         15.8380   16.0290   11.4650 O.2   239  THR239     -0.2866
     13  CB        18.4350   14.9250   11.4400 C.3   239  THR239      0.1770
     14  OG1       17.9740   13.8300   10.6230 O.3   239  THR239     -0.2211
     15  CG2       19.9320   14.7540   11.7570 C.3   239  THR239      0.0375
     16  N         19.0790   18.9510    9.9730 N.3   254  LYS254     -0.1245
     17  CA        20.2520   18.1230    9.7270 C.3   254  LYS254      0.1561
     18  C         21.4750   18.5210   10.5230 C.2   254  LYS254      0.2260
     19  O         22.3540   17.6960   10.7110 O.2   254  LYS254     -0.2867
     20  CB        20.5910   18.0090    8.2470 C.3   254  LYS254      0.0271
     21  CG        20.3890   19.2430    7.4600 C.3   254  LYS254      0.0035
     22  CD        20.2770   18.9070    5.9490 C.3   254  LYS254      0.0206
     23  CE        19.4010   17.6550    5.6880 C.3   254  LYS254      0.1093
     24  NZ        18.7700   17.6800    4.3190 N.3   254  LYS254     -0.1314
     25  N         22.3700   16.2970   13.6530 N.3   257  TYR257     -0.1241
     26  CA        22.8850   14.9400   13.6020 C.3   257  TYR257      0.1605
     27  C         23.8460   14.7000   14.7640 C.2   257  TYR257      0.2264
     28  O         24.7380   15.5010   15.0230 O.2   257  TYR257     -0.2867
     29  CB        23.5600   14.6410   12.2730 C.3   257  TYR257      0.0534
     30  CG        23.9390   13.1860   12.1410 C.ar  257  TYR257     -0.0201
     31  CD1       22.9630   12.2290   11.9450 C.ar  257  TYR257     -0.0009
     32  CD2       25.2910   12.7710   12.1720 C.ar  257  TYR257     -0.0009
     33  CE1       23.2890   10.8670   11.7920 C.ar  257  TYR257      0.0417
     34  CE2       25.6210   11.4280   12.0220 C.ar  257  TYR257      0.0417
     35  CZ        24.6000   10.4810   11.8190 C.ar  257  TYR257      0.1957
     36  OH        24.8770    9.1250   11.6850 O.3   257  TYR257     -0.2866
     37  N         28.5520   10.0210   19.2780 N.3   263  ARG263     -0.1245
     38  CA        28.5530    8.7390   18.5750 C.3   263  ARG263      0.1563
     39  C         29.5440    7.7230   19.1530 C.2   263  ARG263      0.2260
     40  O         29.2100    6.5690   19.2780 O.2   263  ARG263     -0.2867
     41  CB        28.8310    8.9530   17.0800 C.3   263  ARG263      0.0307
     42  CG        27.6050    9.3870   16.3060 C.3   263  ARG263      0.0489
     43  CD        27.9390    9.5500   14.8120 C.3   263  ARG263      0.2205
     44  NE        28.1830   10.9500   14.4690 N.pl3 263  ARG263     -0.0865
     45  CZ        29.0970   11.3830   13.6080 C.cat 263  ARG263      0.5346
     46  NH1       29.2080   12.6880   13.3770 N.pl3 263  ARG263      0.1354
     47  NH2       29.9090   10.5280   12.9980 N.pl3 263  ARG263      0.1354
     48  N         27.2670    4.2530    9.3390 N.3   294  GLU294     -0.1245
     49  CA        27.0380    5.2590    8.2920 C.3   294  GLU294      0.1567
     50  C         26.6730    4.5500    6.9650 C.2   294  GLU294      0.2260
     51  O         25.7910    5.0030    6.2300 O.2   294  GLU294     -0.2867
     52  CB        28.2380    6.2230    8.1540 C.3   294  GLU294      0.0388
     53  CG        28.5220    7.1180    9.4280 C.3   294  GLU294      0.1160
     54  CD        27.2970    7.9010    9.9310 C.2   294  GLU294      0.3649
     55  OE1       26.5570    8.4780    9.0920 O.co2 294  GLU294     -0.2457
     56  OE2       27.0610    7.9450   11.1770 O.co2 294  GLU294     -0.2457
     57  N         23.1570    3.5290    7.1360 N.3   297  ALA297     -0.1245
     58  CA        22.3380    4.7220    7.1050 C.3   297  ALA297      0.1562
     59  C         21.9330    5.0020    5.6640 C.2   297  ALA297      0.2260
     60  O         20.7750    5.3110    5.3750 O.2   297  ALA297     -0.2867
     61  CB        23.0980    5.9320    7.7140 C.3   297  ALA297      0.0290
     62  N         17.7670    5.3200    4.1950 N.3   301  HIS301     -0.1241
     63  CA        17.1990    6.4400    3.4790 C.3   301  HIS301      0.1621
     64  C         16.3900    5.9950    2.2560 C.2   301  HIS301      0.2264
     65  O         15.2980    6.5170    2.0270 O.2   301  HIS301     -0.2867
     66  CB        18.2960    7.4110    3.0720 C.3   301  HIS301      0.0745
     67  CG        18.9030    8.1280    4.2290 C.ar  301  HIS301      0.0817
     68  ND1       18.1550    8.5890    5.2920 N.ar  301  HIS301     -0.2268
     69  CD2       20.1880    8.4390    4.5100 C.ar  301  HIS301      0.1154
     70  CE1       18.9530    9.1560    6.1740 C.ar  301  HIS301      0.1986
     71  NE2       20.1880    9.1000    5.7130 N.ar  301  HIS301     -0.2212
     72  N         18.6000   13.0310    1.6610 N.3   328  MET328     -0.1245
     73  CA        19.4960   12.4640    2.6710 C.3   328  MET328      0.1570
     74  C         20.3870   11.3710    2.0910 C.2   328  MET328      0.2261
     75  O         21.5860   11.3380    2.3760 O.2   328  MET328     -0.2867
     76  CB        18.7310   11.9440    3.8870 C.3   328  MET328      0.0387
     77  CG        18.1570   13.0200    4.7780 C.3   328  MET328      0.0595
     78  SD        17.2760   12.2970    6.1840 S.3   328  MET328     -0.1393
     79  CE        16.0020   13.4870    6.4850 C.3   328  MET328      0.0692
     80  N         23.1150   13.1770    0.2040 N.3   331  GLU331     -0.1231
     81  CA        24.0680   13.7520    1.1540 C.3   331  GLU331      0.1699
     82  C         24.9290   12.7160    1.8570 C.2   331  GLU331      0.2592
     83  O         26.1320   12.9140    2.0190 O.2   331  GLU331     -0.2718
     84  CB        23.3560   14.6270    2.1820 C.3   331  GLU331      0.0402
     85  CG        23.2340   16.0690    1.7170 C.3   331  GLU331      0.1161
     86  CD        21.8610   16.6680    1.9710 C.2   331  GLU331      0.3649
     87  OE1       21.3030   16.4500    3.0700 O.co2 331  GLU331     -0.2457
     88  OE2       21.3500   17.3560    1.0580 O.co2 331  GLU331     -0.2457
     89  N         24.3080   11.6190    2.2710 N.am  332  GLN332     -0.1979
     90  CA        25.0160   10.5510    2.9780 C.3   332  GLN332      0.1601
     91  C         26.0330    9.9150    2.0360 C.2   332  GLN332      0.2287
     92  O         27.1710    9.6500    2.4320 O.2   332  GLN332     -0.2864
     93  CB        24.0430    9.5060    3.5140 C.3   332  GLN332      0.0394
     94  CG        24.6990    8.3970    4.3650 C.3   332  GLN332      0.0908
     95  CD        25.2920    8.9300    5.6690 C.2   332  GLN332      0.2608
     96  OE1       25.2550   10.1350    5.9380 O.2   332  GLN332     -0.2717
     97  NE2       25.8250    8.0370    6.4860 N.am  332  GLN332     -0.0878
     98  N         29.0680   12.0570    1.6910 N.3   335  TYR335     -0.1241
     99  CA        29.8170   11.8840    2.9260 C.3   335  TYR335      0.1605
    100  C         30.6870   10.6160    2.9300 C.2   335  TYR335      0.2264
    101  O         31.8810   10.6790    3.2290 O.2   335  TYR335     -0.2867
    102  CB        28.8400   11.8350    4.1050 C.3   335  TYR335      0.0534
    103  CG        29.4730   11.6020    5.4610 C.ar  335  TYR335     -0.0201
    104  CD1       30.4300   12.4800    5.9660 C.ar  335  TYR335     -0.0009
    105  CD2       29.0950   10.5180    6.2560 C.ar  335  TYR335     -0.0009
    106  CE1       31.0070   12.2790    7.2270 C.ar  335  TYR335      0.0417
    107  CE2       29.6610   10.3110    7.5320 C.ar  335  TYR335      0.0417
    108  CZ        30.6160   11.2020    8.0050 C.ar  335  TYR335      0.1957
    109  OH        31.1900   11.0280    9.2520 O.3   335  TYR335     -0.2866
@<TRIPOS>BOND
     1    80    81    1
     2    88    86   ar
     3    81    82    1
     4    81    84    1
     5    72    73    1
     6    98    99    1
     7    85    86    1
     8    85    84    1
     9    82    83    2
    10    82    89   am
    11    86    87   ar
    12    65    64    2
    13    91    92    2
    14    91    90    1
    15    74    75    2
    16    74    73    1
    17    64    63    1
    18    89    90    1
    19    73    76    1
    20    99   100    1
    21    99   102    1
    22   100   101    2
    23    90    93    1
    24    66    63    1
    25    66    67    1
    26    63    62    1
    27    93    94    1
    28    76    77    1
    29   102   103    1
    30    67    69   ar
    31    67    68   ar
    32    24    23    1
    33    94    95    1
    34    69    71   ar
    35    77    78    1
    36    68    70   ar
    37    60    59    2
    38   103   104   ar
    39   103   105   ar
    40    59    58    1
    41    95    96    2
    42    95    97   am
    43    23    22    1
    44    71    70   ar
    45    22    21    1
    46   104   106   ar
    47    78    79    1
    48    51    50    2
    49   105   107   ar
    50    50    49    1
    51    58    57    1
    52    58    61    1
    53   106   108   ar
    54    21    20    1
    55   107   108   ar
    56   108   109    1
    57    52    49    1
    58    52    53    1
    59    20    17    1
    60    49    48    1
    61     8     6    1
    62    55    54   ar
    63    53    54    1
    64     6     5    1
    65     7     5    1
    66    17    16    1
    67    17    18    1
    68    54    56   ar
    69     5     2    1
    70    18    19    2
    71    14    13    1
    72    13    15    1
    73    13    10    1
    74    12    11    2
    75     2     3    1
    76     2     1    1
    77    36    35    1
    78    33    35   ar
    79    33    31   ar
    80    35    34   ar
    81     4     3    2
    82    31    30   ar
    83    34    32   ar
    84    30    32   ar
    85    30    29    1
    86    11    10    1
    87    29    26    1
    88    10     9    1
    89    47    45    1
    90    46    45    1
    91    26    25    1
    92    26    27    1
    93    45    44    2
    94    44    43    1
    95    27    28    2
    96    43    42    1
    97    42    41    1
    98    41    38    1
    99    38    39    1
   100    38    37    1
   101    39    40    2
