@<TRIPOS>MOLECULE
tmp/3fi8A00.pdb
 171 163 0 0 0
SMALL
GASTEIGER

@<TRIPOS>ATOM
      1  N         -5.5010    8.3160   22.1910 N.3    33  ILE33      -0.1231
      2  CA        -4.1950    8.9240   22.0960 C.3    33  ILE33       0.1692
      3  C         -3.7290    8.9100   20.6390 C.2    33  ILE33       0.2592
      4  O         -4.2930    8.1920   19.8150 O.2    33  ILE33      -0.2718
      5  CB        -3.2090    8.3150   23.1230 C.3    33  ILE33       0.0266
      6  CG1       -3.2530    6.7830   23.1050 C.3    33  ILE33       0.0019
      7  CG2       -3.5960    8.7780   24.5360 C.3    33  ILE33       0.0020
      8  CD1       -2.4140    6.1240   24.2100 C.3    33  ILE33       0.0001
      9  N         -2.7540    9.7570   20.3190 N.am   34  LEU34      -0.1966
     10  CA        -2.2670    9.8920   18.9420 C.3    34  LEU34       0.1728
     11  C         -1.4680    8.6560   18.5450 C.2    34  LEU34       0.2617
     12  O         -0.7440    8.0800   19.3670 O.2    34  LEU34      -0.2715
     13  CB        -1.4160   11.1560   18.7660 C.3    34  LEU34       0.0311
     14  CG        -2.1610   12.4890   18.8170 C.3    34  LEU34       0.0022
     15  CD1       -1.1490   13.6100   18.7720 C.3    34  LEU34       0.0001
     16  CD2       -3.1220   12.6450   17.6660 C.3    34  LEU34       0.0001
     17  N         -1.6080    8.2510   17.2860 N.am   35  SER35      -0.1936
     18  CA        -1.0050    7.0130   16.8180 C.3    35  SER35       0.2055
     19  C         -0.7580    7.0750   15.3220 C.2    35  SER35       0.2643
     20  O         -1.0070    8.1020   14.6860 O.2    35  SER35      -0.2714
     21  CB        -1.9270    5.8320   17.1420 C.3    35  SER35       0.2130
     22  OG        -3.1340    5.9350   16.4060 O.3    35  SER35      -0.2179
     23  N         -0.2610    5.9680   14.7760 N.am   36  GLY36      -0.1954
     24  CA        -0.1450    5.7860   13.3340 C.3    36  GLY36       0.1869
     25  C         -1.4750    5.3650   12.7380 C.2    36  GLY36       0.2309
     26  O         -2.4490    5.1290   13.4590 O.2    36  GLY36      -0.2863
     27  N         -2.0750    2.6330   11.2460 N.3    38  THR38      -0.1203
     28  CA        -2.1790    1.1690   11.3620 C.3    38  THR38       0.1994
     29  C         -3.0120    0.6770   12.5600 C.2    38  THR38       0.2617
     30  O         -3.5240   -0.4430   12.5480 O.2    38  THR38      -0.2717
     31  CB        -0.7710    0.4970   11.3850 C.3    38  THR38       0.1784
     32  OG1       -0.9000   -0.9000   11.6810 O.3    38  THR38      -0.2211
     33  CG2        0.1480    1.1520   12.4220 C.3    38  THR38       0.0376
     34  N         -3.1250    1.5080   13.5910 N.am   39  ASN39      -0.1974
     35  CA        -3.9330    1.1880   14.7670 C.3    39  ASN39       0.1688
     36  C         -4.5760    2.4250   15.4040 C.2    39  ASN39       0.2292
     37  O         -4.1530    3.5590   15.1440 O.2    39  ASN39      -0.2864
     38  CB        -3.1030    0.4320   15.8140 C.3    39  ASN39       0.1181
     39  CG        -1.7790    1.1060   16.0970 C.2    39  ASN39       0.2629
     40  OD1       -0.7180    0.4580   16.1020 O.2    39  ASN39      -0.2716
     41  ND2       -1.8190    2.4270   16.2960 N.am   39  ASN39      -0.0877
     42  N         -5.4660    3.8150   19.3220 N.3    41  LEU41      -0.1245
     43  CA        -4.9710    3.5770   20.6710 C.3    41  LEU41       0.1561
     44  C         -5.7320    4.4560   21.6500 C.2    41  LEU41       0.2260
     45  O         -6.0800    5.5770   21.3350 O.2    41  LEU41      -0.2867
     46  CB        -3.4680    3.8890   20.7370 C.3    41  LEU41       0.0270
     47  CG        -2.3770    2.8250   20.5380 C.3    41  LEU41       0.0019
     48  CD1       -2.7050    1.7150   19.5750 C.3    41  LEU41       0.0001
     49  CD2       -1.0390    3.4730   20.1360 C.3    41  LEU41       0.0001
     50  N         -3.4890    0.3080   28.2550 N.3    62  LEU62      -0.1245
     51  CA        -3.5140    0.6770   26.8540 C.3    62  LEU62       0.1561
     52  C         -4.4450   -0.2680   26.0840 C.2    62  LEU62       0.2260
     53  O         -4.2400   -1.4700   26.0810 O.2    62  LEU62      -0.2867
     54  CB        -2.1180    0.5840   26.2390 C.3    62  LEU62       0.0270
     55  CG        -2.2000    1.0500   24.7980 C.3    62  LEU62       0.0019
     56  CD1       -2.2190    2.5790   24.7590 C.3    62  LEU62       0.0001
     57  CD2       -1.0810    0.5070   23.9630 C.3    62  LEU62       0.0001
     58  N         -5.4440   -1.2780   22.4490 N.3    64  ARG64      -0.1245
     59  CA        -5.0000   -1.1990   21.0510 C.3    64  ARG64       0.1563
     60  C         -6.0110   -1.8560   20.1410 C.2    64  ARG64       0.2260
     61  O         -6.3350   -3.0210   20.3370 O.2    64  ARG64      -0.2867
     62  CB        -3.6610   -1.9150   20.8620 C.3    64  ARG64       0.0307
     63  CG        -3.2360   -2.0650   19.3930 C.3    64  ARG64       0.0489
     64  CD        -1.8180   -2.5830   19.2970 C.3    64  ARG64       0.2205
     65  NE        -0.9300   -2.0200   20.3160 N.pl3  64  ARG64      -0.0865
     66  CZ        -0.1010   -0.9910   20.1150 C.cat  64  ARG64       0.5346
     67  NH1        0.6910   -0.5590   21.1010 N.pl3  64  ARG64       0.1354
     68  NH2       -0.0500   -0.3830   18.9300 N.pl3  64  ARG64       0.1354
     69  N          5.8710   -3.4150   26.7880 N.3    84  PRO84      -0.2116
     70  CA         4.7670   -3.4270   27.7390 C.3    84  PRO84       0.1372
     71  C          4.0980   -4.8090   27.7810 C.2    84  PRO84       0.2244
     72  O          3.8280   -5.3900   26.7230 O.2    84  PRO84      -0.2868
     73  CB         3.7960   -2.3940   27.1630 C.3    84  PRO84       0.0268
     74  CG         4.6000   -1.4850   26.3850 C.3    84  PRO84       0.0207
     75  CD         5.8050   -2.2460   25.8830 C.3    84  PRO84       0.0892
     76  N         -2.8350   -3.7810   26.7260 N.3    96  GLU96      -0.1231
     77  CA        -1.4470   -3.8630   27.1950 C.3    96  GLU96       0.1699
     78  C         -1.2690   -3.0880   28.5090 C.2    96  GLU96       0.2592
     79  O         -2.0860   -2.2270   28.8630 O.2    96  GLU96      -0.2718
     80  CB        -0.5030   -3.2690   26.1600 C.3    96  GLU96       0.0402
     81  CG        -0.5040   -3.9310   24.7960 C.3    96  GLU96       0.1161
     82  CD         0.1360   -3.0450   23.6990 C.2    96  GLU96       0.3649
     83  OE1        0.8950   -2.0970   24.0080 O.co2  96  GLU96      -0.2457
     84  OE2       -0.0900   -3.3130   22.5150 O.co2  96  GLU96      -0.2457
     85  N         -0.2010   -3.4120   29.2230 N.am   97  GLU97      -0.1966
     86  CA         0.2380   -2.6440   30.3900 C.3    97  GLU97       0.1733
     87  C          0.3350   -1.1720   30.0010 C.2    97  GLU97       0.2616
     88  O          0.9170   -0.8340   28.9670 O.2    97  GLU97      -0.2715
     89  CB         1.6270   -3.1310   30.7980 C.3    97  GLU97       0.0429
     90  CG         2.2910   -2.3780   31.9340 C.3    97  GLU97       0.1163
     91  CD         3.7980   -2.6760   32.0390 C.2    97  GLU97       0.3649
     92  OE1        4.3130   -3.5280   31.2630 O.co2  97  GLU97      -0.2457
     93  OE2        4.4700   -2.0360   32.9070 O.co2  97  GLU97      -0.2457
     94  N         -0.2630   -0.3030   30.8100 N.am   98  TRP98      -0.1960
     95  CA        -0.1050    1.1230   30.6130 C.3    98  TRP98       0.1771
     96  C          1.2360    1.5850   31.1910 C.2    98  TRP98       0.2619
     97  O          1.5120    1.4010   32.3750 O.2    98  TRP98      -0.2715
     98  CB        -1.2530    1.8880   31.2560 C.3    98  TRP98       0.0590
     99  CG        -1.0990    3.3520   31.1210 C.ar   98  TRP98       0.0006
    100  CD1       -0.6740    4.2400   32.0940 C.ar   98  TRP98       0.0946
    101  CD2       -1.3200    4.1230   29.9410 C.ar   98  TRP98       0.0152
    102  NE1       -0.6280    5.5120   31.5800 N.ar   98  TRP98      -0.2442
    103  CE2       -1.0150    5.4750   30.2630 C.ar   98  TRP98       0.0810
    104  CE3       -1.7320    3.8050   28.6310 C.ar   98  TRP98       0.0012
    105  CZ2       -1.1260    6.5150   29.3230 C.ar   98  TRP98       0.0191
    106  CZ3       -1.8580    4.8280   27.6990 C.ar   98  TRP98       0.0001
    107  CH2       -1.5510    6.1800   28.0510 C.ar   98  TRP98       0.0015
    108  N          2.0600    2.1800   30.3410 N.am   99  LEU99      -0.1977
    109  CA         3.3210    2.8220   30.7740 C.3    99  LEU99       0.1596
    110  C          3.0810    4.2710   31.1490 C.2    99  LEU99       0.2287
    111  O          2.4450    5.0210   30.3820 O.2    99  LEU99      -0.2864
    112  CB         4.3860    2.7290   29.6800 C.3    99  LEU99       0.0297
    113  CG         5.4220    1.6010   29.7910 C.3    99  LEU99       0.0022
    114  CD1        4.8230    0.2900   30.2780 C.3    99  LEU99       0.0001
    115  CD2        6.1640    1.4150   28.4660 C.3    99  LEU99       0.0001
    116  N          6.9880    9.4140   25.6130 N.3   103  PRO103     -0.2116
    117  CA         8.0120    9.0820   24.6330 C.3   103  PRO103      0.1372
    118  C          9.1490   10.0830   24.8180 C.2   103  PRO103      0.2244
    119  O          8.8940   11.2020   25.2770 O.2   103  PRO103     -0.2868
    120  CB         7.3160    9.3310   23.3010 C.3   103  PRO103      0.0268
    121  CG         5.8350    9.2950   23.5970 C.3   103  PRO103      0.0207
    122  CD         5.7180    9.8400   24.9900 C.3   103  PRO103      0.0892
    123  N         10.0930    8.5170   19.4730 N.3   205  ASN205     -0.1225
    124  CA         8.6750    8.1670   19.7440 C.3   205  ASN205      0.1785
    125  C          8.4130    6.6940   20.0430 C.2   205  ASN205      0.2597
    126  O          7.3180    6.3230   20.4640 O.2   205  ASN205     -0.2718
    127  CB         7.7520    8.6840   18.6230 C.3   205  ASN205      0.1169
    128  CG         7.7540   10.2120   18.5320 C.2   205  ASN205      0.2627
    129  OD1        7.4070   10.9170   19.4980 O.2   205  ASN205     -0.2716
    130  ND2        8.1800   10.7340   17.3860 N.am  205  ASN205     -0.0877
    131  N          9.4140    5.8440   19.8220 N.am  206  ASN206     -0.1974
    132  CA         9.3010    4.4040   20.1460 C.3   206  ASN206      0.1688
    133  C         10.0490    4.0070   21.4280 C.2   206  ASN206      0.2292
    134  O         10.1920    2.8280   21.7460 O.2   206  ASN206     -0.2864
    135  CB         9.7350    3.5510   18.9480 C.3   206  ASN206      0.1181
    136  CG         8.7470    3.6340   17.7900 C.2   206  ASN206      0.2629
    137  OD1        7.5930    4.0100   17.9870 O.2   206  ASN206     -0.2716
    138  ND2        9.1890    3.2720   16.5760 N.am  206  ASN206     -0.0877
    139  N          9.9480    4.7480   25.3950 N.3   208  MET208     -0.1245
    140  CA         9.2020    5.2820   26.5140 C.3   208  MET208      0.1570
    141  C         10.1400    5.4980   27.6750 C.2   208  MET208      0.2261
    142  O         10.9760    4.6550   27.9810 O.2   208  MET208     -0.2867
    143  CB         8.0900    4.3240   26.9170 C.3   208  MET208      0.0387
    144  CG         6.9750    4.2260   25.8990 C.3   208  MET208      0.0595
    145  SD         5.9880    5.7380   25.8090 S.3   208  MET208     -0.1393
    146  CE         5.2790    5.8490   27.4440 C.3   208  MET208      0.0692
    147  N          8.9340    0.2480   22.4730 N.3   217  ILE217     -0.1231
    148  CA         7.5940   -0.1120   22.0180 C.3   217  ILE217      0.1692
    149  C          7.6080   -0.2230   20.4950 C.2   217  ILE217      0.2592
    150  O          8.6290    0.0850   19.8590 O.2   217  ILE217     -0.2718
    151  CB         6.4960    0.8930   22.5100 C.3   217  ILE217      0.0266
    152  CG1        6.7700    2.3230   22.0270 C.3   217  ILE217      0.0019
    153  CG2        6.3590    0.8740   24.0430 C.3   217  ILE217      0.0020
    154  CD1        5.5490    3.2650   22.1270 C.3   217  ILE217      0.0001
    155  N          6.4980   -0.6850   19.9100 N.am  218  ASP218     -0.1974
    156  CA         6.2890   -0.6400   18.4480 C.3   218  ASP218      0.1709
    157  C          7.2110   -1.5690   17.6540 C.2   218  ASP218      0.2293
    158  O          8.2200   -1.1300   17.0740 O.2   218  ASP218     -0.2864
    159  CB         6.4310    0.7770   17.9150 C.3   218  ASP218      0.1436
    160  CG         5.6790    0.9820   16.6170 C.2   218  ASP218      0.3671
    161  OD1        5.2830   -0.0400   15.9940 O.co2 218  ASP218     -0.2456
    162  OD2        5.4660    2.1620   16.2190 O.co2 218  ASP218     -0.2456
    163  N          6.4660   -3.3190   14.9620 N.3   220  GLU220     -0.1245
    164  CA         5.8160   -3.6050   13.6940 C.3   220  GLU220      0.1567
    165  C          6.8100   -4.0140   12.6070 C.2   220  GLU220      0.2260
    166  O          6.5020   -4.8390   11.7500 O.2   220  GLU220     -0.2867
    167  CB         4.9110   -2.4410   13.2530 C.3   220  GLU220      0.0388
    168  CG         3.4390   -2.6590   13.6230 C.3   220  GLU220      0.1160
    169  CD         2.7350   -1.3990   14.1140 C.2   220  GLU220      0.3649
    170  OE1        2.9000   -0.3270   13.4870 O.co2 220  GLU220     -0.2457
    171  OE2        2.0080   -1.4820   15.1280 O.co2 220  GLU220     -0.2457
@<TRIPOS>BOND
     1    27    28    1
     2    28    31    1
     3    28    29    1
     4    31    32    1
     5    31    33    1
     6   166   165    2
     7    30    29    2
     8    29    34   am
     9   165   164    1
    10    25    24    1
    11    25    26    2
    12   167   168    1
    13   167   164    1
    14    24    23    1
    15   170   169   ar
    16    34    35    1
    17   168   169    1
    18   164   163    1
    19   169   171   ar
    20    20    19    2
    21    35    36    1
    22    35    38    1
    23    23    19   am
    24    37    36    2
    25    19    18    1
    26    38    39    1
    27   161   160   ar
    28    39    40    2
    29    39    41   am
    30   162   160   ar
    31    22    21    1
    32   138   136   am
    33   160   159    1
    34    18    21    1
    35    18    17    1
    36   158   157    2
    37    17    11   am
    38   130   128   am
    39   157   156    1
    40    16    14    1
    41   136   137    2
    42   136   135    1
    43   159   156    1
    44   156   155    1
    45   128   127    1
    46   128   129    2
    47    11    10    1
    48    11    12    2
    49   127   124    1
    50    13    14    1
    51    13    10    1
    52    15    14    1
    53    68    66    1
    54    10     9    1
    55   135   132    1
    56    64    63    1
    57    64    65    1
    58    42    43    1
    59    63    62    1
    60   123   124    1
    61    48    47    1
    62   124   125    1
    63     4     3    2
    64   131   125   am
    65   131   132    1
    66   150   149    2
    67   155   149   am
    68   125   126    2
    69    66    65    2
    70    66    67    1
    71    49    47    1
    72    60    61    2
    73    60    59    1
    74   132   133    1
    75     9     3   am
    76   149   148    1
    77    47    46    1
    78     3     2    1
    79    43    46    1
    80    43    44    1
    81    62    59    1
    82    59    58    1
    83    45    44    2
    84   133   134    2
    85   148   147    1
    86   148   151    1
    87   152   154    1
    88   152   151    1
    89     2     1    1
    90     2     5    1
    91   151   153    1
    92    84    82   ar
    93     6     5    1
    94     6     8    1
    95     5     7    1
    96   120   121    1
    97   120   117    1
    98   121   122    1
    99    82    83   ar
   100    82    81    1
   101    57    55    1
   102   117   118    1
   103   117   116    1
   104    56    55    1
   105    81    80    1
   106    55    54    1
   107   118   119    2
   108   122   116    1
   109   139   140    1
   110   145   144    1
   111   145   146    1
   112    75    74    1
   113    75    69    1
   114   144   143    1
   115    53    52    2
   116    52    51    1
   117    80    77    1
   118    54    51    1
   119    74    73    1
   120   140   143    1
   121   140   141    1
   122    72    71    2
   123    76    77    1
   124    69    70    1
   125    51    50    1
   126    73    70    1
   127    77    78    1
   128   141   142    2
   129   106   107   ar
   130   106   104   ar
   131    70    71    1
   132   107   105   ar
   133   115   113    1
   134    78    79    2
   135    78    85   am
   136   104   101   ar
   137    88    87    2
   138    85    86    1
   139   105   103   ar
   140   112   113    1
   141   112   109    1
   142   113   114    1
   143   101   103   ar
   144   101    99   ar
   145    87    86    1
   146    87    94   am
   147   103   102   ar
   148   108   109    1
   149   108    96   am
   150   111   110    2
   151    86    89    1
   152    95    94    1
   153    95    96    1
   154    95    98    1
   155   109   110    1
   156    89    90    1
   157    99    98    1
   158    99   100   ar
   159    96    97    2
   160    92    91   ar
   161   102   100   ar
   162    90    91    1
   163    91    93   ar
