@<TRIPOS>MOLECULE
tmp/3fi8A01.pdb
 145 140 0 0 0
SMALL
GASTEIGER

@<TRIPOS>ATOM
      1  N         12.8270    0.2130   13.8350 N.3   201  ASP201     -0.1239
      2  CA        12.1570    1.5120   13.7730 C.3   201  ASP201      0.1674
      3  C         12.5160    2.3320   14.9980 C.2   201  ASP201      0.2266
      4  O         11.6690    2.9120   15.6710 O.2   201  ASP201     -0.2867
      5  CB        10.6290    1.3650   13.6190 C.3   201  ASP201      0.1410
      6  CG         9.9560    2.6900   13.2990 C.2   201  ASP201      0.3668
      7  OD1       10.6660    3.5790   12.7570 O.co2 201  ASP201     -0.2456
      8  OD2        8.7450    2.8700   13.6020 O.co2 201  ASP201     -0.2456
      9  N         13.6540    5.1220   17.2000 N.3   203  GLN203     -0.1245
     10  CA        13.4590    6.5690   17.1110 C.3   203  GLN203      0.1566
     11  C         12.8580    7.0140   18.4410 C.2   203  GLN203      0.2260
     12  O         12.3540    6.1810   19.1860 O.2   203  GLN203     -0.2867
     13  CB        12.5530    6.9360   15.9170 C.3   203  GLN203      0.0367
     14  CG        11.0780    7.1270   16.2580 C.3   203  GLN203      0.0905
     15  CD        10.1600    6.7980   15.1220 C.2   203  GLN203      0.2608
     16  OE1        9.2280    7.5370   14.8160 O.2   203  GLN203     -0.2717
     17  NE2       10.4120    5.6700   14.4810 N.am  203  GLN203     -0.0878
     18  N          9.4140    5.8440   19.8220 N.3   206  ASN206     -0.1240
     19  CA         9.3010    4.4040   20.1460 C.3   206  ASN206      0.1653
     20  C         10.0490    4.0070   21.4280 C.2   206  ASN206      0.2266
     21  O         10.1920    2.8280   21.7460 O.2   206  ASN206     -0.2867
     22  CB         9.7350    3.5510   18.9480 C.3   206  ASN206      0.1155
     23  CG         8.7470    3.6340   17.7900 C.2   206  ASN206      0.2627
     24  OD1        7.5930    4.0100   17.9870 O.2   206  ASN206     -0.2716
     25  ND2        9.1890    3.2720   16.5760 N.am  206  ASN206     -0.0877
     26  N          6.4980   -0.6850   19.9100 N.3   218  ASP218     -0.1239
     27  CA         6.2890   -0.6400   18.4480 C.3   218  ASP218      0.1674
     28  C          7.2110   -1.5690   17.6540 C.2   218  ASP218      0.2266
     29  O          8.2200   -1.1300   17.0740 O.2   218  ASP218     -0.2867
     30  CB         6.4310    0.7770   17.9150 C.3   218  ASP218      0.1410
     31  CG         5.6790    0.9820   16.6170 C.2   218  ASP218      0.3668
     32  OD1        5.2830   -0.0400   15.9940 O.co2 218  ASP218     -0.2456
     33  OD2        5.4660    2.1620   16.2190 O.co2 218  ASP218     -0.2456
     34  N          6.4660   -3.3190   14.9620 N.3   220  GLU220     -0.1231
     35  CA         5.8160   -3.6050   13.6940 C.3   220  GLU220      0.1699
     36  C          6.8100   -4.0140   12.6070 C.2   220  GLU220      0.2592
     37  O          6.5020   -4.8390   11.7500 O.2   220  GLU220     -0.2718
     38  CB         4.9110   -2.4410   13.2530 C.3   220  GLU220      0.0402
     39  CG         3.4390   -2.6590   13.6230 C.3   220  GLU220      0.1161
     40  CD         2.7350   -1.3990   14.1140 C.2   220  GLU220      0.3649
     41  OE1        2.9000   -0.3270   13.4870 O.co2 220  GLU220     -0.2457
     42  OE2        2.0080   -1.4820   15.1280 O.co2 220  GLU220     -0.2457
     43  N          8.0140   -3.4580   12.6650 N.am  221  TYR221     -0.1976
     44  CA         8.9600   -3.6730   11.5950 C.3   221  TYR221      0.1639
     45  C         10.0730   -4.5990   12.0240 C.2   221  TYR221      0.2290
     46  O         10.9870   -4.8760   11.2560 O.2   221  TYR221     -0.2864
     47  CB         9.4650   -2.3390   11.0120 C.3   221  TYR221      0.0560
     48  CG         8.3680   -1.5880   10.2890 C.ar  221  TYR221     -0.0198
     49  CD1        7.6780   -0.5610   10.9160 C.ar  221  TYR221     -0.0009
     50  CD2        7.9860   -1.9420    8.9940 C.ar  221  TYR221     -0.0009
     51  CE1        6.6440    0.1190   10.2760 C.ar  221  TYR221      0.0417
     52  CE2        6.9400   -1.2780    8.3390 C.ar  221  TYR221      0.0417
     53  CZ         6.2860   -0.2350    8.9970 C.ar  221  TYR221      0.1957
     54  OH         5.2710    0.4580    8.3700 O.3   221  TYR221     -0.2866
     55  N         19.5180    3.7610   12.2020 N.3   233  ASN233     -0.1240
     56  CA        18.1900    4.3430   12.2400 C.3   233  ASN233      0.1653
     57  C         18.0670    5.3320   13.3800 C.2   233  ASN233      0.2266
     58  O         17.5990    6.4610   13.1800 O.2   233  ASN233     -0.2867
     59  CB        17.1460    3.2640   12.3900 C.3   233  ASN233      0.1155
     60  CG        15.9050    3.6000   11.6590 C.2   233  ASN233      0.2627
     61  OD1       15.8740    3.5470   10.4160 O.2   233  ASN233     -0.2716
     62  ND2       14.8720    4.0030   12.3940 N.am  233  ASN233     -0.0877
     63  N         17.5540    9.5200   13.2170 N.3   237  GLU237     -0.1245
     64  CA        16.3730   10.0700   13.8270 C.3   237  GLU237      0.1567
     65  C         16.6430   11.2530   14.7410 C.2   237  GLU237      0.2260
     66  O         15.7060   11.9610   15.1260 O.2   237  GLU237     -0.2867
     67  CB        15.5970    8.9690   14.5390 C.3   237  GLU237      0.0388
     68  CG        14.7470    8.1560   13.5630 C.3   237  GLU237      0.1160
     69  CD        13.6120    8.9910   12.9650 C.2   237  GLU237      0.3649
     70  OE1       13.2210    9.9780   13.6260 O.co2 237  GLU237     -0.2457
     71  OE2       13.1030    8.6540   11.8680 O.co2 237  GLU237     -0.2457
     72  N          9.0340   14.3870   14.6200 N.3   242  TYR242     -0.1241
     73  CA         7.6660   14.0810   14.1440 C.3   242  TYR242      0.1605
     74  C          6.5530   14.7310   14.9650 C.2   242  TYR242      0.2264
     75  O          5.3650   14.5260   14.6730 O.2   242  TYR242     -0.2867
     76  CB         7.4070   12.5710   14.0700 C.3   242  TYR242      0.0534
     77  CG         8.3780   11.8000   13.1860 C.ar  242  TYR242     -0.0201
     78  CD1        8.3140   11.8890   11.8050 C.ar  242  TYR242     -0.0009
     79  CD2        9.3750   10.9890   13.7550 C.ar  242  TYR242     -0.0009
     80  CE1        9.2110   11.1830   10.9920 C.ar  242  TYR242      0.0417
     81  CE2       10.2700   10.2940   12.9610 C.ar  242  TYR242      0.0417
     82  CZ        10.1870   10.3950   11.5770 C.ar  242  TYR242      0.1957
     83  OH        11.0850    9.6980   10.7790 O.3   242  TYR242     -0.2866
     84  N         13.1940    3.8000    3.7770 N.3   304  TRP304     -0.1241
     85  CA        12.1470    4.6670    4.2840 C.3   304  TRP304      0.1605
     86  C         11.5660    5.6040    3.2300 C.2   304  TRP304      0.2264
     87  O         10.3810    5.8700    3.2860 O.2   304  TRP304     -0.2867
     88  CB        12.5920    5.3940    5.5590 C.3   304  TRP304      0.0550
     89  CG        12.8450    4.4110    6.6470 C.ar  304  TRP304      0.0003
     90  CD1       14.0370    4.1500    7.2710 C.ar  304  TRP304      0.0946
     91  CD2       11.8940    3.4950    7.2050 C.ar  304  TRP304      0.0152
     92  NE1       13.8790    3.1550    8.2000 N.ar  304  TRP304     -0.2442
     93  CE2       12.5810    2.7240    8.1810 C.ar  304  TRP304      0.0810
     94  CE3       10.5270    3.2660    6.9990 C.ar  304  TRP304      0.0012
     95  CZ2       11.9390    1.7380    8.9530 C.ar  304  TRP304      0.0191
     96  CZ3        9.8910    2.2850    7.7620 C.ar  304  TRP304      0.0001
     97  CH2       10.5980    1.5220    8.7160 C.ar  304  TRP304      0.0015
     98  N          9.1690    3.1590    1.3630 N.3   307  TRP307     -0.1241
     99  CA         8.0800    2.9950    2.3290 C.3   307  TRP307      0.1605
    100  C          7.1040    4.1530    2.2430 C.2   307  TRP307      0.2264
    101  O          5.8980    3.9560    2.1730 O.2   307  TRP307     -0.2867
    102  CB         8.6310    2.9100    3.7600 C.3   307  TRP307      0.0550
    103  CG         7.5460    2.7780    4.8190 C.ar  307  TRP307      0.0003
    104  CD1        6.9370    1.6200    5.2400 C.ar  307  TRP307      0.0946
    105  CD2        6.9460    3.8390    5.5830 C.ar  307  TRP307      0.0152
    106  NE1        5.9960    1.8950    6.2070 N.ar  307  TRP307     -0.2442
    107  CE2        5.9760    3.2440    6.4380 C.ar  307  TRP307      0.0810
    108  CE3        7.1200    5.2250    5.6210 C.ar  307  TRP307      0.0012
    109  CZ2        5.2000    3.9870    7.3230 C.ar  307  TRP307      0.0191
    110  CZ3        6.3330    5.9770    6.5040 C.ar  307  TRP307      0.0001
    111  CH2        5.3940    5.3480    7.3510 C.ar  307  TRP307      0.0015
    112  N          0.2880   14.0990    7.3990 N.3   316  PHE316     -0.1241
    113  CA         1.6790   13.7620    7.0920 C.3   316  PHE316      0.1605
    114  C          1.8880   13.7330    5.5830 C.2   316  PHE316      0.2264
    115  O          1.2040   12.9820    4.8740 O.2   316  PHE316     -0.2867
    116  CB         2.0620   12.4090    7.6990 C.3   316  PHE316      0.0534
    117  CG         3.5550   12.1890    7.7860 C.ar  316  PHE316     -0.0203
    118  CD1        4.2750   12.6280    8.8940 C.ar  316  PHE316     -0.0042
    119  CD2        4.2410   11.5690    6.7580 C.ar  316  PHE316     -0.0042
    120  CE1        5.6490   12.4430    8.9720 C.ar  316  PHE316     -0.0003
    121  CE2        5.6230   11.3710    6.8330 C.ar  316  PHE316     -0.0003
    122  CZ         6.3270   11.8130    7.9380 C.ar  316  PHE316     -0.0000
    123  N          8.1790   13.7700    2.5030 N.3   321  TYR321     -0.1241
    124  CA         9.0610   12.9900    3.3710 C.3   321  TYR321      0.1605
    125  C          9.9880   12.0350    2.6020 C.2   321  TYR321      0.2264
    126  O         11.1740   11.9450    2.9100 O.2   321  TYR321     -0.2867
    127  CB         8.2560   12.2280    4.4210 C.3   321  TYR321      0.0534
    128  CG         9.1140   11.5000    5.4240 C.ar  321  TYR321     -0.0201
    129  CD1        9.6760   12.1780    6.5210 C.ar  321  TYR321     -0.0009
    130  CD2        9.3650   10.1340    5.2940 C.ar  321  TYR321     -0.0009
    131  CE1       10.4610   11.5050    7.4560 C.ar  321  TYR321      0.0417
    132  CE2       10.1560    9.4500    6.2140 C.ar  321  TYR321      0.0417
    133  CZ        10.7020   10.1340    7.2870 C.ar  321  TYR321      0.1957
    134  OH        11.4790    9.4520    8.2090 O.3   321  TYR321     -0.2866
    135  N         13.9970   12.1290    2.4800 N.3   325  ARG325     -0.1245
    136  CA        14.8720   10.9620    2.6930 C.3   325  ARG325      0.1563
    137  C         15.7780   10.7060    1.4740 C.2   325  ARG325      0.2260
    138  O         16.8890   10.2110    1.6160 O.2   325  ARG325     -0.2867
    139  CB        14.0690    9.7060    3.0660 C.3   325  ARG325      0.0307
    140  CG        13.1550    9.8550    4.2920 C.3   325  ARG325      0.0489
    141  CD        13.9030   10.1260    5.6240 C.3   325  ARG325      0.2205
    142  NE        14.9610    9.1620    5.9220 N.pl3 325  ARG325     -0.0865
    143  CZ        14.8970    8.2050    6.8460 C.cat 325  ARG325      0.5346
    144  NH1       15.9250    7.3930    7.0100 N.pl3 325  ARG325      0.1354
    145  NH2       13.8080    8.0370    7.5910 N.pl3 325  ARG325      0.1354
@<TRIPOS>BOND
     1    98    99    1
     2   137   138    2
     3   137   136    1
     4   101   100    2
     5   100    99    1
     6    99   102    1
     7   135   136    1
     8   123   124    1
     9   125   126    2
    10   125   124    1
    11   136   139    1
    12   139   140    1
    13    86    87    2
    14    86    85    1
    15   124   127    1
    16   102   103    1
    17    84    85    1
    18    85    88    1
    19   140   141    1
    20   127   128    1
    21   103   104   ar
    22   103   105   ar
    23   115   114    2
    24   104   106   ar
    25   130   128   ar
    26   130   132   ar
    27   128   129   ar
    28    88    89    1
    29   114   113    1
    30   105   108   ar
    31   105   107   ar
    32   108   110   ar
    33   141   142    1
    34   142   143    2
    35   106   107   ar
    36   132   133   ar
    37   107   109   ar
    38   110   111   ar
    39   129   131   ar
    40    89    91   ar
    41    89    90   ar
    42   119   121   ar
    43   119   117   ar
    44   121   122   ar
    45   143   144    1
    46   143   145    1
    47    94    91   ar
    48    94    96   ar
    49   113   112    1
    50   113   116    1
    51    91    93   ar
    52    90    92   ar
    53   133   131   ar
    54   133   134    1
    55   109   111   ar
    56   116   117    1
    57    96    97   ar
    58   117   118   ar
    59   122   120   ar
    60    93    92   ar
    61    93    95   ar
    62    52    50   ar
    63    52    53   ar
    64    54    53    1
    65    97    95   ar
    66   118   120   ar
    67    50    48   ar
    68    53    51   ar
    69    51    49   ar
    70    48    49   ar
    71    48    47    1
    72    61    60    2
    73    83    82    1
    74    80    82   ar
    75    80    78   ar
    76    47    44    1
    77    46    45    2
    78    82    81   ar
    79    44    45    1
    80    44    43    1
    81    60    59    1
    82    60    62   am
    83    37    36    2
    84    78    77   ar
    85    71    69   ar
    86    55    56    1
    87    56    59    1
    88    56    57    1
    89    36    43   am
    90    36    35    1
    91     7     6   ar
    92    81    79   ar
    93    69    68    1
    94    69    70   ar
    95    58    57    2
    96    77    79   ar
    97    77    76    1
    98    63    64    1
    99    38    39    1
   100    38    35    1
   101     6     8   ar
   102     6     5    1
   103    41    40   ar
   104    68    67    1
   105     5     2    1
   106    39    40    1
   107    35    34    1
   108     2     1    1
   109     2     3    1
   110    64    67    1
   111    64    65    1
   112    76    73    1
   113    40    42   ar
   114    73    72    1
   115    73    74    1
   116    17    15   am
   117    75    74    2
   118    65    66    2
   119    16    15    2
   120     3     4    2
   121    15    14    1
   122    13    14    1
   123    13    10    1
   124    32    31   ar
   125    33    31   ar
   126    25    23   am
   127    31    30    1
   128    29    28    2
   129    10     9    1
   130    10    11    1
   131    28    27    1
   132    23    24    2
   133    23    22    1
   134    30    27    1
   135    11    12    2
   136    27    26    1
   137    22    19    1
   138    18    19    1
   139    19    20    1
   140    20    21    2
