@<TRIPOS>MOLECULE
tmp/3fidB03.pdb
 139 136 0 0 0
SMALL
GASTEIGER

@<TRIPOS>ATOM
      1  N         10.0490   52.3050   -7.6900 N.3    96  TRP96      -0.1227
      2  CA         9.4180   53.2560   -6.7810 C.3    96  TRP96       0.1737
      3  C          8.9250   52.6240   -5.4600 C.2    96  TRP96       0.2595
      4  O          8.3820   53.3140   -4.6040 O.2    96  TRP96      -0.2718
      5  CB         8.2990   54.0660   -7.4700 C.3    96  TRP96       0.0564
      6  CG         7.2700   53.2170   -8.0850 C.ar   96  TRP96       0.0003
      7  CD1        7.2950   52.6820   -9.3510 C.ar   96  TRP96       0.0946
      8  CD2        6.0400   52.7790   -7.4880 C.ar   96  TRP96       0.0152
      9  NE1        6.1620   51.9210   -9.5660 N.ar   96  TRP96      -0.2442
     10  CE2        5.3740   51.9680   -8.4470 C.ar   96  TRP96       0.0810
     11  CE3        5.4340   52.9880   -6.2360 C.ar   96  TRP96       0.0012
     12  CZ2        4.1430   51.3640   -8.1890 C.ar   96  TRP96       0.0191
     13  CZ3        4.1970   52.3900   -5.9860 C.ar   96  TRP96       0.0001
     14  CH2        3.5690   51.5920   -6.9590 C.ar   96  TRP96       0.0015
     15  N          9.1330   51.3210   -5.2950 N.am   97  LEU97      -0.1980
     16  CA         8.6330   50.6240   -4.1080 C.3    97  LEU97       0.1596
     17  C          9.6290   49.5760   -3.5880 C.2    97  LEU97       0.2287
     18  O         10.1270   48.7670   -4.3590 O.2    97  LEU97      -0.2864
     19  CB         7.2880   49.9810   -4.4350 C.3    97  LEU97       0.0297
     20  CG         6.2980   49.6720   -3.3230 C.3    97  LEU97       0.0022
     21  CD1        5.7670   50.9540   -2.7590 C.3    97  LEU97       0.0001
     22  CD2        5.1370   48.8230   -3.9220 C.3    97  LEU97       0.0001
     23  N          6.9730   48.9800    4.1420 N.3   149  VAL149     -0.1245
     24  CA         6.8680   49.3580    2.7310 C.3   149  VAL149      0.1561
     25  C          7.3530   50.7880    2.6130 C.2   149  VAL149      0.2260
     26  O          6.9840   51.6430    3.4310 O.2   149  VAL149     -0.2867
     27  CB         5.4200   49.1990    2.1790 C.3   149  VAL149      0.0252
     28  CG1        4.4370   50.0390    2.9400 C.3   149  VAL149      0.0019
     29  CG2        5.3650   49.5230    0.6630 C.3   149  VAL149      0.0019
     30  N          8.1660   54.0380   -0.2700 N.3   151  LEU151     -0.1245
     31  CA         8.2090   54.6340   -1.5910 C.3   151  LEU151      0.1561
     32  C          9.6370   55.0980   -1.7830 C.2   151  LEU151      0.2260
     33  O         10.3050   55.4700   -0.8010 O.2   151  LEU151     -0.2867
     34  CB         7.2850   55.8480   -1.6640 C.3   151  LEU151      0.0270
     35  CG         5.7840   55.6140   -1.4780 C.3   151  LEU151      0.0019
     36  CD1        5.0670   56.9670   -1.5870 C.3   151  LEU151      0.0001
     37  CD2        5.2740   54.6340   -2.5140 C.3   151  LEU151      0.0001
     38  N         14.2960   60.3550   -1.3410 N.3   164  PHE164     -0.1241
     39  CA        13.3970   60.6380   -0.2390 C.3   164  PHE164      0.1605
     40  C         12.5070   59.3890   -0.0830 C.2   164  PHE164      0.2264
     41  O         11.9110   58.9100   -1.0540 O.2   164  PHE164     -0.2867
     42  CB        12.5350   61.8660   -0.5690 C.3   164  PHE164      0.0534
     43  CG        11.3600   62.0550    0.3690 C.ar  164  PHE164     -0.0203
     44  CD1       11.5630   62.3930    1.7030 C.ar  164  PHE164     -0.0042
     45  CD2       10.0490   61.9140   -0.1000 C.ar  164  PHE164     -0.0042
     46  CE1       10.4980   62.5710    2.5770 C.ar  164  PHE164     -0.0003
     47  CE2        8.9800   62.1010    0.7590 C.ar  164  PHE164     -0.0003
     48  CZ         9.2040   62.4270    2.1080 C.ar  164  PHE164     -0.0000
     49  N          9.6340   57.8760    2.1460 N.3   166  PRO166     -0.2102
     50  CA         8.5760   57.8160    3.1450 C.3   166  PRO166      0.1504
     51  C          8.1700   56.3550    3.3210 C.2   166  PRO166      0.2576
     52  O          8.2110   55.5850    2.3540 O.2   166  PRO166     -0.2718
     53  CB         7.4400   58.6420    2.5190 C.3   166  PRO166      0.0282
     54  CG         7.6850   58.6010    1.0320 C.3   166  PRO166      0.0208
     55  CD         9.1790   58.4290    0.8430 C.3   166  PRO166      0.0893
     56  N          7.8060   55.9530    4.5350 N.am  167  GLU167     -0.1966
     57  CA         7.6930   54.5050    4.7880 C.3   167  GLU167      0.1733
     58  C          6.7140   54.2310    5.9090 C.2   167  GLU167      0.2616
     59  O          6.4510   55.0960    6.7400 O.2   167  GLU167     -0.2715
     60  CB         9.0820   53.9000    5.1310 C.3   167  GLU167      0.0429
     61  CG         9.7420   54.4930    6.4140 C.3   167  GLU167      0.1163
     62  CD         9.3070   53.8190    7.7190 C.2   167  GLU167      0.3649
     63  OE1        8.8760   52.6760    7.7350 O.co2 167  GLU167     -0.2457
     64  OE2        9.4450   54.5180    8.8030 O.co2 167  GLU167     -0.2457
     65  N          6.1770   53.0200    5.9200 N.am  168  VAL168     -0.1977
     66  CA         5.3330   52.5760    7.0060 C.3   168  VAL168      0.1596
     67  C          5.8770   51.2240    7.4200 C.2   168  VAL168      0.2287
     68  O          6.2550   50.4180    6.5730 O.2   168  VAL168     -0.2864
     69  CB         3.8290   52.4370    6.5660 C.3   168  VAL168      0.0276
     70  CG1        2.9860   51.8090    7.6970 C.3   168  VAL168      0.0022
     71  CG2        3.2280   53.8180    6.2330 C.3   168  VAL168      0.0022
     72  N          5.4190   55.2230   11.0930 N.3   181  TYR181     -0.1227
     73  CA         5.4990   55.9590    9.8360 C.3   181  TYR181      0.1736
     74  C          6.6510   56.9320    9.9250 C.2   181  TYR181      0.2596
     75  O          6.9030   57.5300   10.9710 O.2   181  TYR181     -0.2718
     76  CB         4.1960   56.6870    9.4590 C.3   181  TYR181      0.0548
     77  CG         3.5600   57.4620   10.5890 C.ar  181  TYR181     -0.0200
     78  CD1        3.6320   58.8560   10.6520 C.ar  181  TYR181     -0.0009
     79  CD2        2.8640   56.7890   11.6020 C.ar  181  TYR181     -0.0009
     80  CE1        3.0200   59.5640   11.7170 C.ar  181  TYR181      0.0417
     81  CE2        2.2750   57.4740   12.6590 C.ar  181  TYR181      0.0417
     82  CZ         2.3480   58.8490   12.7030 C.ar  181  TYR181      0.1957
     83  OH         1.7380   59.4730   13.7660 O.3   181  TYR181     -0.2866
     84  N          7.3690   57.0730    8.8300 N.am  182  GLY182     -0.1942
     85  CA         8.5870   57.8660    8.8900 C.3   182  GLY182      0.2014
     86  C          9.1330   58.1740    7.5280 C.2   182  GLY182      0.2638
     87  O          8.5080   57.8870    6.5210 O.2   182  GLY182     -0.2714
     88  N         10.3120   58.7770    7.4930 N.am  183  ALA183     -0.1977
     89  CA        10.9130   59.1100    6.2110 C.3   183  ALA183      0.1597
     90  C         12.4060   59.2040    6.4210 C.2   183  ALA183      0.2287
     91  O         12.8330   59.5950    7.5090 O.2   183  ALA183     -0.2864
     92  CB        10.3800   60.4510    5.7100 C.3   183  ALA183      0.0319
     93  N         13.6290   59.9310   10.3930 N.3   223  VAL223     -0.1231
     94  CA        12.8980   59.9000   11.6610 C.3   223  VAL223      0.1692
     95  C         11.6900   59.0140   11.3950 C.2   223  VAL223      0.2592
     96  O         11.1390   59.0480   10.3040 O.2   223  VAL223     -0.2718
     97  CB        12.4570   61.3170   12.1370 C.3   223  VAL223      0.0266
     98  CG1       11.6870   62.0850   11.0280 C.3   223  VAL223      0.0020
     99  CG2       11.6310   61.2430   13.4560 C.3   223  VAL223      0.0020
    100  N         11.3060   58.2110   12.3810 N.am  224  GLU224     -0.1966
    101  CA        10.0930   57.4280   12.3210 C.3   224  GLU224      0.1733
    102  C          9.3920   57.6150   13.6460 C.2   224  GLU224      0.2616
    103  O         10.0050   57.5220   14.7100 O.2   224  GLU224     -0.2715
    104  CB        10.4090   55.9410   12.1160 C.3   224  GLU224      0.0429
    105  CG         9.1580   55.0750   12.0260 C.3   224  GLU224      0.1163
    106  CD         9.4380   53.5800   11.9980 C.2   224  GLU224      0.3649
    107  OE1        9.6280   52.9640   13.0860 O.co2 224  GLU224     -0.2457
    108  OE2        9.4730   53.0350   10.8740 O.co2 224  GLU224     -0.2457
    109  N          8.0990   57.8200   13.5640 N.am  225  ARG225     -0.1977
    110  CA         7.2280   57.8750   14.7490 C.3   225  ARG225      0.1597
    111  C          6.4630   56.5740   14.8360 C.2   225  ARG225      0.2287
    112  O          5.7930   56.1750   13.8930 O.2   225  ARG225     -0.2864
    113  CB         6.2180   59.0180   14.6180 C.3   225  ARG225      0.0334
    114  CG         5.1160   58.9620   15.6700 C.3   225  ARG225      0.0492
    115  CD         4.4610   60.3190   15.8510 C.3   225  ARG225      0.2205
    116  NE         5.4050   61.2660   16.4680 N.pl3 225  ARG225     -0.0865
    117  CZ         5.1420   62.5540   16.6720 C.cat 225  ARG225      0.5346
    118  NH1        3.9540   63.0460   16.3370 N.pl3 225  ARG225      0.1354
    119  NH2        6.0490   63.3510   17.2150 N.pl3 225  ARG225      0.1354
    120  N          9.3970   58.4060   18.9410 N.3   253  ASP253     -0.1239
    121  CA        10.0810   58.8020   17.7100 C.3   253  ASP253      0.1674
    122  C         11.4860   58.2470   17.7380 C.2   253  ASP253      0.2266
    123  O         12.1270   58.2700   18.7800 O.2   253  ASP253     -0.2867
    124  CB        10.1570   60.3380   17.6010 C.3   253  ASP253      0.1410
    125  CG         8.7900   60.9790   17.4350 C.2   253  ASP253      0.3668
    126  OD1        7.8440   60.2790   17.0130 O.co2 253  ASP253     -0.2456
    127  OD2        8.6620   62.1920   17.6990 O.co2 253  ASP253     -0.2456
    128  N         15.2180   58.7640   15.7400 N.3   255  TYR255     -0.1241
    129  CA        16.0630   59.4880   14.7900 C.3   255  TYR255      0.1605
    130  C         17.3250   58.7020   14.4510 C.2   255  TYR255      0.2264
    131  O         17.9870   58.1360   15.3300 O.2   255  TYR255     -0.2867
    132  CB        16.4620   60.8520   15.3720 C.3   255  TYR255      0.0534
    133  CG        15.2950   61.7810   15.5880 C.ar  255  TYR255     -0.0201
    134  CD1       14.9990   62.7770   14.6510 C.ar  255  TYR255     -0.0009
    135  CD2       14.4730   61.6700   16.7200 C.ar  255  TYR255     -0.0009
    136  CE1       13.9450   63.6510   14.8530 C.ar  255  TYR255      0.0417
    137  CE2       13.4020   62.5270   16.9110 C.ar  255  TYR255      0.0417
    138  CZ        13.1410   63.4990   15.9730 C.ar  255  TYR255      0.1957
    139  OH        12.0700   64.3420   16.1660 O.3   255  TYR255     -0.2866
@<TRIPOS>BOND
     1     9     7   ar
     2     9    10   ar
     3     7     6   ar
     4    10    12   ar
     5    10     8   ar
     6    12    14   ar
     7     6     8   ar
     8     6     5    1
     9     1     2    1
    10     8    11   ar
    11     5     2    1
    12    14    13   ar
    13     2     3    1
    14    11    13   ar
    15     3    15   am
    16     3     4    2
    17    15    16    1
    18    19    16    1
    19    19    20    1
    20    18    17    2
    21    16    17    1
    22    22    20    1
    23    20    21    1
    24    37    35    1
    25    32    31    1
    26    32    33    2
    27    34    31    1
    28    34    35    1
    29    31    30    1
    30    36    35    1
    31    38    39    1
    32    41    40    2
    33    42    39    1
    34    42    43    1
    35    39    40    1
    36    45    43   ar
    37    45    47   ar
    38    43    44   ar
    39    29    27    1
    40    47    48   ar
    41    55    54    1
    42    55    49    1
    43    54    53    1
    44    44    46   ar
    45    48    46   ar
    46    49    50    1
    47    27    24    1
    48    27    28    1
    49    52    51    2
    50    53    50    1
    51    25    24    1
    52    25    26    2
    53    24    23    1
    54    50    51    1
    55    51    56   am
    56    56    57    1
    57    57    60    1
    58    57    58    1
    59    60    61    1
    60    92    89    1
    61    58    65   am
    62    58    59    2
    63    65    66    1
    64    89    90    1
    65    89    88    1
    66    71    69    1
    67    61    62    1
    68    90    91    2
    69    87    86    2
    70    69    66    1
    71    69    70    1
    72    68    67    2
    73    66    67    1
    74    88    86   am
    75    86    85    1
    76    62    63   ar
    77    62    64   ar
    78    84    85    1
    79    84    74   am
    80    76    73    1
    81    76    77    1
    82    73    74    1
    83    73    72    1
    84    74    75    2
    85    96    95    2
    86    93    94    1
    87    77    78   ar
    88    77    79   ar
    89    78    80   ar
    90   108   106   ar
    91    98    97    1
    92    95    94    1
    93    95   100   am
    94    79    81   ar
    95    94    97    1
    96    80    82   ar
    97   106   105    1
    98   106   107   ar
    99   105   104    1
   100   104   101    1
   101    97    99    1
   102   101   100    1
   103   101   102    1
   104    81    82   ar
   105    82    83    1
   106   109   102   am
   107   109   110    1
   108   102   103    2
   109   112   111    2
   110   130   129    1
   111   130   131    2
   112   113   110    1
   113   113   114    1
   114   134   136   ar
   115   134   133   ar
   116   110   111    1
   117   129   132    1
   118   129   128    1
   119   136   138   ar
   120   132   133    1
   121   133   135   ar
   122   114   115    1
   123   115   116    1
   124   138   139    1
   125   138   137   ar
   126   118   117    1
   127   116   117    2
   128   117   119    1
   129   135   137   ar
   130   126   125   ar
   131   125   124    1
   132   125   127   ar
   133   124   121    1
   134   121   122    1
   135   121   120    1
   136   122   123    2
