@<TRIPOS>MOLECULE
tmp/3fidB01.pdb
 75 71 0 0 0
SMALL
GASTEIGER

@<TRIPOS>ATOM
      1  N         31.2450   63.3190   21.0600 N.3    17  PRO17      -0.2102
      2  CA        31.0280   64.7400   20.7650 C.3    17  PRO17       0.1504
      3  C         30.0270   64.9800   19.6010 C.2    17  PRO17       0.2576
      4  O         29.2320   65.9050   19.6710 O.2    17  PRO17      -0.2718
      5  CB        32.4280   65.2540   20.3960 C.3    17  PRO17       0.0282
      6  CG        33.3990   64.2830   20.9780 C.3    17  PRO17       0.0208
      7  CD        32.6790   62.9460   21.0420 C.3    17  PRO17       0.0893
      8  N         30.0670   64.1540   18.5580 N.am   18  SER18      -0.1953
      9  CA        29.1610   64.2730   17.4240 C.3    18  SER18       0.1924
     10  C         27.7480   63.8910   17.8300 C.2    18  SER18       0.2314
     11  O         26.7960   64.5640   17.4600 O.2    18  SER18      -0.2863
     12  CB        29.6020   63.3730   16.2630 C.3    18  SER18       0.2116
     13  OG        30.7650   63.8880   15.6360 O.3    18  SER18      -0.2180
     14  N         26.3730   66.7300   20.0520 N.3    21  ALA21      -0.1245
     15  CA        26.1030   67.9470   19.2540 C.3    21  ALA21       0.1562
     16  C         24.7670   67.7930   18.5100 C.2    21  ALA21       0.2260
     17  O         23.9790   68.7560   18.3880 O.2    21  ALA21      -0.2867
     18  CB        27.2460   68.1980   18.2610 C.3    21  ALA21       0.0290
     19  N         20.1060   60.8420   -5.1430 N.3   162  VAL162     -0.1245
     20  CA        19.5500   61.5920   -4.0050 C.3   162  VAL162      0.1561
     21  C         18.0770   61.2130   -3.8930 C.2   162  VAL162      0.2260
     22  O         17.3440   61.3410   -4.8560 O.2   162  VAL162     -0.2867
     23  CB        19.6880   63.1350   -4.1920 C.3   162  VAL162      0.0252
     24  CG1       19.2030   63.8770   -2.9380 C.3   162  VAL162      0.0019
     25  CG2       21.1560   63.5440   -4.5050 C.3   162  VAL162      0.0019
     26  N         16.0130   60.6410    4.2340 N.3   185  VAL185     -0.1231
     27  CA        16.6090   61.2140    3.0310 C.3   185  VAL185      0.1692
     28  C         18.0240   60.6800    2.9170 C.2   185  VAL185      0.2592
     29  O         18.7520   60.5050    3.9250 O.2   185  VAL185     -0.2718
     30  CB        16.6010   62.7690    3.0120 C.3   185  VAL185      0.0266
     31  CG1       15.2060   63.2820    2.8440 C.3   185  VAL185      0.0020
     32  CG2       17.2480   63.3710    4.3040 C.3   185  VAL185      0.0020
     33  N         18.4430   60.4190    1.6910 N.am  186  ALA186     -0.1966
     34  CA        19.7680   59.8900    1.5200 C.3   186  ALA186      0.1728
     35  C         20.4260   60.4110    0.2530 C.2   186  ALA186      0.2616
     36  O         19.7430   60.7440   -0.7410 O.2   186  ALA186     -0.2715
     37  CB        19.7270   58.3510    1.5140 C.3   186  ALA186      0.0334
     38  N         21.7510   60.4550    0.2980 N.am  187  LEU187     -0.1977
     39  CA        22.5270   60.6090   -0.9200 C.3   187  LEU187      0.1596
     40  C         23.6790   59.6170   -0.9450 C.2   187  LEU187      0.2287
     41  O         24.2050   59.2570    0.1060 O.2   187  LEU187     -0.2864
     42  CB        23.0020   62.0560   -1.0710 C.3   187  LEU187      0.0297
     43  CG        24.1720   62.8000   -0.4580 C.3   187  LEU187      0.0022
     44  CD1       25.5570   62.1460   -0.7110 C.3   187  LEU187      0.0001
     45  CD2       24.1610   64.2710   -1.0430 C.3   187  LEU187      0.0001
     46  N         25.0700   58.7240    2.7710 N.3   219  VAL219     -0.1231
     47  CA        24.8620   59.5510    3.9610 C.3   219  VAL219      0.1692
     48  C         23.3520   59.7130    4.0660 C.2   219  VAL219      0.2592
     49  O         22.6870   59.9000    3.0640 O.2   219  VAL219     -0.2718
     50  CB        25.4910   60.9760    3.8520 C.3   219  VAL219      0.0266
     51  CG1       25.1810   61.7810    5.1270 C.3   219  VAL219      0.0020
     52  CG2       27.0050   60.9310    3.5950 C.3   219  VAL219      0.0020
     53  N         22.7940   59.6360    5.2660 N.am  220  PHE220     -0.1962
     54  CA        21.3270   59.6220    5.3880 C.3   220  PHE220      0.1771
     55  C         20.8940   60.2690    6.7010 C.2   220  PHE220      0.2619
     56  O         21.6840   60.3790    7.6450 O.2   220  PHE220     -0.2715
     57  CB        20.7790   58.1850    5.2930 C.3   220  PHE220      0.0574
     58  CG        21.2070   57.3110    6.4520 C.ar  220  PHE220     -0.0200
     59  CD1       22.3630   56.5390    6.3640 C.ar  220  PHE220     -0.0042
     60  CD2       20.4840   57.3200    7.6490 C.ar  220  PHE220     -0.0042
     61  CE1       22.7900   55.7630    7.4460 C.ar  220  PHE220     -0.0003
     62  CE2       20.9140   56.5520    8.7560 C.ar  220  PHE220     -0.0003
     63  CZ        22.0460   55.7710    8.6520 C.ar  220  PHE220     -0.0000
     64  N         19.6480   60.7220    6.7410 N.am  221  ALA221     -0.1977
     65  CA        19.0370   61.2000    7.9820 C.3   221  ALA221      0.1597
     66  C         17.5600   60.8190    7.9300 C.2   221  ALA221      0.2287
     67  O         16.9290   60.9570    6.9060 O.2   221  ALA221     -0.2864
     68  CB        19.2270   62.7170    8.1280 C.3   221  ALA221      0.0319
     69  N         20.8960   59.2900   11.9790 N.3   257  VAL257     -0.1245
     70  CA        21.7280   60.0440   11.0690 C.3   257  VAL257      0.1561
     71  C         23.0260   59.2570   10.9400 C.2   257  VAL257      0.2260
     72  O         23.6450   58.8740   11.9530 O.2   257  VAL257     -0.2867
     73  CB        22.0300   61.4430   11.6210 C.3   257  VAL257      0.0252
     74  CG1       23.0850   62.1240   10.7660 C.3   257  VAL257      0.0019
     75  CG2       20.7110   62.3000   11.7860 C.3   257  VAL257      0.0019
@<TRIPOS>BOND
     1    19    20    1
     2    22    21    2
     3    25    23    1
     4    23    20    1
     5    23    24    1
     6    20    21    1
     7    42    39    1
     8    42    43    1
     9    45    43    1
    10    40    39    1
    11    40    41    2
    12    39    38    1
    13    36    35    2
    14    44    43    1
    15    35    38   am
    16    35    34    1
    17    37    34    1
    18    34    33    1
    19    33    28   am
    20    46    47    1
    21    31    30    1
    22    28    27    1
    23    28    29    2
    24    30    27    1
    25    30    32    1
    26    27    26    1
    27    49    48    2
    28    52    50    1
    29    50    47    1
    30    50    51    1
    31    47    48    1
    32    48    53   am
    33    53    54    1
    34    57    54    1
    35    57    58    1
    36    54    55    1
    37    59    58   ar
    38    59    61   ar
    39    58    60   ar
    40    55    64   am
    41    55    56    2
    42    64    65    1
    43    67    66    2
    44    61    63   ar
    45    60    62   ar
    46    66    65    1
    47    65    68    1
    48    63    62   ar
    49    74    73    1
    50    71    70    1
    51    71    72    2
    52    70    73    1
    53    70    69    1
    54    73    75    1
    55    13    12    1
    56    12     9    1
    57     9    10    1
    58     9     8    1
    59    11    10    2
    60    18    15    1
    61    17    16    2
    62    16    15    1
    63     8     3   am
    64    15    14    1
    65     3     4    2
    66     3     2    1
    67     5     2    1
    68     5     6    1
    69     2     1    1
    70     6     7    1
    71     7     1    1
