@<TRIPOS>MOLECULE
tmp/3fidB02.pdb
 87 82 0 0 0
SMALL
GASTEIGER

@<TRIPOS>ATOM
      1  N         24.5050   66.5780   18.0360 N.3    22  LEU22      -0.1231
      2  CA        23.2760   66.2830   17.2880 C.3    22  LEU22       0.1693
      3  C         22.0120   66.1640   18.1600 C.2    22  LEU22       0.2592
      4  O         20.9370   66.6840   17.8120 O.2    22  LEU22      -0.2718
      5  CB        23.5050   65.0160   16.4440 C.3    22  LEU22       0.0284
      6  CG        22.5300   64.5860   15.3570 C.3    22  LEU22       0.0019
      7  CD1       22.2850   65.6720   14.3160 C.3    22  LEU22       0.0001
      8  CD2       23.0800   63.2840   14.6870 C.3    22  LEU22       0.0001
      9  N         22.1320   65.4950   19.3050 N.am   23  TYR23      -0.1976
     10  CA        20.9490   65.1690   20.1060 C.3    23  TYR23       0.1639
     11  C         20.8620   65.8700   21.4710 C.2    23  TYR23       0.2290
     12  O         19.8410   65.7590   22.1550 O.2    23  TYR23      -0.2864
     13  CB        20.8040   63.6330   20.2630 C.3    23  TYR23       0.0560
     14  CG        20.5740   62.9060   18.9340 C.ar   23  TYR23      -0.0198
     15  CD1       19.5340   63.2780   18.0840 C.ar   23  TYR23      -0.0009
     16  CD2       21.4000   61.8580   18.5390 C.ar   23  TYR23      -0.0009
     17  CE1       19.3310   62.6180   16.8420 C.ar   23  TYR23       0.0417
     18  CE2       21.2100   61.1950   17.3010 C.ar   23  TYR23       0.0417
     19  CZ        20.1590   61.5830   16.4750 C.ar   23  TYR23       0.1957
     20  OH        19.9740   60.9360   15.2760 O.3    23  TYR23      -0.2866
     21  N         14.2960   60.3550   -1.3410 N.3   164  PHE164     -0.1241
     22  CA        13.3970   60.6380   -0.2390 C.3   164  PHE164      0.1605
     23  C         12.5070   59.3890   -0.0830 C.2   164  PHE164      0.2264
     24  O         11.9110   58.9100   -1.0540 O.2   164  PHE164     -0.2867
     25  CB        12.5350   61.8660   -0.5690 C.3   164  PHE164      0.0534
     26  CG        11.3600   62.0550    0.3690 C.ar  164  PHE164     -0.0203
     27  CD1       11.5630   62.3930    1.7030 C.ar  164  PHE164     -0.0042
     28  CD2       10.0490   61.9140   -0.1000 C.ar  164  PHE164     -0.0042
     29  CE1       10.4980   62.5710    2.5770 C.ar  164  PHE164     -0.0003
     30  CE2        8.9800   62.1010    0.7590 C.ar  164  PHE164     -0.0003
     31  CZ         9.2040   62.4270    2.1080 C.ar  164  PHE164     -0.0000
     32  N         10.3120   58.7770    7.4930 N.3   183  ALA183     -0.1245
     33  CA        10.9130   59.1100    6.2110 C.3   183  ALA183      0.1562
     34  C         12.4060   59.2040    6.4210 C.2   183  ALA183      0.2260
     35  O         12.8330   59.5950    7.5090 O.2   183  ALA183     -0.2867
     36  CB        10.3800   60.4510    5.7100 C.3   183  ALA183      0.0290
     37  N         16.0130   60.6410    4.2340 N.3   185  VAL185     -0.1245
     38  CA        16.6090   61.2140    3.0310 C.3   185  VAL185      0.1561
     39  C         18.0240   60.6800    2.9170 C.2   185  VAL185      0.2260
     40  O         18.7520   60.5050    3.9250 O.2   185  VAL185     -0.2867
     41  CB        16.6010   62.7690    3.0120 C.3   185  VAL185      0.0252
     42  CG1       15.2060   63.2820    2.8440 C.3   185  VAL185      0.0019
     43  CG2       17.2480   63.3710    4.3040 C.3   185  VAL185      0.0019
     44  N         19.6480   60.7220    6.7410 N.3   221  ALA221     -0.1231
     45  CA        19.0370   61.2000    7.9820 C.3   221  ALA221      0.1694
     46  C         17.5600   60.8190    7.9300 C.2   221  ALA221      0.2593
     47  O         16.9290   60.9570    6.9060 O.2   221  ALA221     -0.2718
     48  CB        19.2270   62.7170    8.1280 C.3   221  ALA221      0.0304
     49  N         16.9970   60.3230    9.0270 N.am  222  GLY222     -0.1942
     50  CA        15.6020   59.8830    8.9940 C.3   222  GLY222      0.2014
     51  C         14.9560   59.9810   10.3620 C.2   222  GLY222      0.2638
     52  O         15.6460   60.1460   11.3570 O.2   222  GLY222     -0.2714
     53  N         13.6290   59.9310   10.3930 N.am  223  VAL223     -0.1977
     54  CA        12.8980   59.9000   11.6610 C.3   223  VAL223      0.1596
     55  C         11.6900   59.0140   11.3950 C.2   223  VAL223      0.2287
     56  O         11.1390   59.0480   10.3040 O.2   223  VAL223     -0.2864
     57  CB        12.4570   61.3170   12.1370 C.3   223  VAL223      0.0276
     58  CG1       11.6870   62.0850   11.0280 C.3   223  VAL223      0.0022
     59  CG2       11.6310   61.2430   13.4560 C.3   223  VAL223      0.0022
     60  N         15.2180   58.7640   15.7400 N.3   255  TYR255     -0.1241
     61  CA        16.0630   59.4880   14.7900 C.3   255  TYR255      0.1605
     62  C         17.3250   58.7020   14.4510 C.2   255  TYR255      0.2264
     63  O         17.9870   58.1360   15.3300 O.2   255  TYR255     -0.2867
     64  CB        16.4620   60.8520   15.3720 C.3   255  TYR255      0.0534
     65  CG        15.2950   61.7810   15.5880 C.ar  255  TYR255     -0.0201
     66  CD1       14.9990   62.7770   14.6510 C.ar  255  TYR255     -0.0009
     67  CD2       14.4730   61.6700   16.7200 C.ar  255  TYR255     -0.0009
     68  CE1       13.9450   63.6510   14.8530 C.ar  255  TYR255      0.0417
     69  CE2       13.4020   62.5270   16.9110 C.ar  255  TYR255      0.0417
     70  CZ        13.1410   63.4990   15.9730 C.ar  255  TYR255      0.1957
     71  OH        12.0700   64.3420   16.1660 O.3   255  TYR255     -0.2866
     72  N         20.8960   59.2900   11.9790 N.3   257  VAL257     -0.1245
     73  CA        21.7280   60.0440   11.0690 C.3   257  VAL257      0.1561
     74  C         23.0260   59.2570   10.9400 C.2   257  VAL257      0.2260
     75  O         23.6450   58.8740   11.9530 O.2   257  VAL257     -0.2867
     76  CB        22.0300   61.4430   11.6210 C.3   257  VAL257      0.0252
     77  CG1       23.0850   62.1240   10.7660 C.3   257  VAL257      0.0019
     78  CG2       20.7110   62.3000   11.7860 C.3   257  VAL257      0.0019
     79  N         18.7940   58.4080   18.1740 N.3   274  LYS274     -0.1245
     80  CA        18.0670   58.8250   19.3960 C.3   274  LYS274      0.1561
     81  C         16.6640   58.2440   19.3930 C.2   274  LYS274      0.2260
     82  O         15.9960   58.2890   18.3650 O.2   274  LYS274     -0.2867
     83  CB        17.9760   60.3580   19.5080 C.3   274  LYS274      0.0271
     84  CG        17.4640   60.8390   20.9230 C.3   274  LYS274      0.0035
     85  CD        17.1010   62.3440   20.9960 C.3   274  LYS274      0.0206
     86  CE        15.7270   62.6370   20.3820 C.3   274  LYS274      0.1093
     87  NZ        15.2500   64.0600   20.6750 N.3   274  LYS274     -0.1314
@<TRIPOS>BOND
     1    21    22    1
     2    24    23    2
     3    25    22    1
     4    25    26    1
     5    22    23    1
     6    28    26   ar
     7    28    30   ar
     8    26    27   ar
     9    30    31   ar
    10    27    29   ar
    11    31    29   ar
    12    42    41    1
    13    39    38    1
    14    39    40    2
    15    41    38    1
    16    41    43    1
    17    38    37    1
    18    36    33    1
    19    33    34    1
    20    33    32    1
    21    34    35    2
    22    44    45    1
    23    47    46    2
    24    46    45    1
    25    46    49   am
    26    45    48    1
    27    50    49    1
    28    50    51    1
    29    56    55    2
    30    51    53   am
    31    51    52    2
    32    53    54    1
    33    77    76    1
    34    74    73    1
    35    74    75    2
    36    58    57    1
    37    73    76    1
    38    73    72    1
    39    55    54    1
    40    76    78    1
    41    54    57    1
    42    57    59    1
    43     7     6    1
    44    62    61    1
    45    62    63    2
    46    66    68   ar
    47    66    65   ar
    48     8     6    1
    49    61    64    1
    50    61    60    1
    51    68    70   ar
    52    20    19    1
    53     6     5    1
    54    64    65    1
    55    65    67   ar
    56    70    71    1
    57    70    69   ar
    58     5     2    1
    59    19    17   ar
    60    19    18   ar
    61    67    69   ar
    62    17    15   ar
    63     2     1    1
    64     2     3    1
    65    18    16   ar
    66     4     3    2
    67    15    14   ar
    68     3     9   am
    69    79    80    1
    70    82    81    2
    71    16    14   ar
    72    14    13    1
    73     9    10    1
    74    81    80    1
    75    80    83    1
    76    83    84    1
    77    10    13    1
    78    10    11    1
    79    86    87    1
    80    86    85    1
    81    84    85    1
    82    11    12    2
