@<TRIPOS>MOLECULE
tmp/3firA00.pdb
 114 112 0 0 0
SMALL
GASTEIGER

@<TRIPOS>ATOM
      1  N         -0.4000    0.1640   16.6020 N.3     7  PRO7       -0.2102
      2  CA        -0.1460    1.6020   16.4980 C.3     7  PRO7        0.1504
      3  C          0.1820    2.0780   15.0800 C.2     7  PRO7        0.2576
      4  O          0.5540    1.2780   14.2210 O.2     7  PRO7       -0.2718
      5  CB         1.0610    1.8060   17.4180 C.3     7  PRO7        0.0282
      6  CG         1.7980    0.4990   17.3670 C.3     7  PRO7        0.0208
      7  CD         0.7390   -0.5630   17.1950 C.3     7  PRO7        0.0893
      8  N          0.0240    3.3750   14.8430 N.am    8  GLY8       -0.1957
      9  CA         0.4940    3.9750   13.6070 C.3     8  GLY8        0.1869
     10  C          2.0050    3.8890   13.6010 C.2     8  GLY8        0.2309
     11  O          2.6340    3.8690   14.6610 O.2     8  GLY8       -0.2863
     12  N         -3.5360    3.0660   14.7800 N.3    34  GLY34      -0.1210
     13  CA        -3.7070    4.3380   15.4700 C.3    34  GLY34       0.1940
     14  C         -3.5740    4.1550   16.9670 C.2    34  GLY34       0.2454
     15  O         -3.3140    3.0490   17.4400 O.2    34  GLY34      -0.2732
     16  N         -3.7290    5.2490   17.7230 N.am   35  PRO35      -0.2717
     17  CA        -3.7570    5.1500   19.1730 C.3    35  PRO35       0.1535
     18  C         -4.7100    4.0370   19.6000 C.2    35  PRO35       0.2598
     19  O         -5.7200    3.8020   18.9360 O.2    35  PRO35      -0.2715
     20  CB        -4.2860    6.5220   19.6200 C.3    35  PRO35       0.0310
     21  CG        -4.4340    7.3570   18.3720 C.3    35  PRO35       0.0237
     22  CD        -3.7510    6.6420   17.2550 C.3    35  PRO35       0.0939
     23  N         -4.3860    3.3680   20.7040 N.am   36  GLN36      -0.1978
     24  CA        -5.1190    2.1840   21.1660 C.3    36  GLN36       0.1601
     25  C         -6.6100    2.4010   21.4170 C.2    36  GLN36       0.2287
     26  O         -7.4320    1.5540   21.0740 O.2    36  GLN36      -0.2864
     27  CB        -4.4710    1.6290   22.4330 C.3    36  GLN36       0.0394
     28  CG        -5.2090    0.4470   23.0490 C.3    36  GLN36       0.0908
     29  CD        -4.5670   -0.0320   24.3430 C.2    36  GLN36       0.2608
     30  OE1       -3.5800    0.5400   24.8100 O.2    36  GLN36      -0.2717
     31  NE2       -5.1270   -1.0860   24.9280 N.am   36  GLN36      -0.0878
     32  N          4.9830   -1.6260   18.2090 N.3    53  ALA53      -0.1245
     33  CA         6.1160   -0.7970   17.7970 C.3    53  ALA53       0.1562
     34  C          7.2270   -0.7050   18.8570 C.2    53  ALA53       0.2260
     35  O          8.1530    0.0880   18.7280 O.2    53  ALA53      -0.2867
     36  CB         5.6310    0.5910   17.4000 C.3    53  ALA53       0.0290
     37  N          5.3910   -1.5330   24.9130 N.3    57  SER57      -0.1217
     38  CA         4.0660   -1.0740   24.5100 C.3    57  SER57       0.1889
     39  C          3.1720   -2.2320   24.0630 C.2    57  SER57       0.2288
     40  O          1.9720   -2.2380   24.3410 O.2    57  SER57      -0.2866
     41  CB         4.1500    0.0140   23.4290 C.3    57  SER57       0.2089
     42  OG         4.8050   -0.4500   22.2610 O.3    57  SER57      -0.2183
     43  N         -0.9390    6.6480   28.3930 N.3   116  SER116     -0.1202
     44  CA        -1.1370    5.7880   27.2270 C.3   116  SER116      0.2020
     45  C          0.0290    4.8270   27.0070 C.2   116  SER116      0.2619
     46  O          1.1450    5.0710   27.4670 O.2   116  SER116     -0.2717
     47  CB        -1.3800    6.6180   25.9610 C.3   116  SER116      0.2103
     48  OG        -0.1960    7.2700   25.5260 O.3   116  SER116     -0.2182
     49  N         -0.2460    3.7360   26.2970 N.am  117  ASN117     -0.1960
     50  CA         0.7750    2.7580   25.9440 C.3   117  ASN117      0.1819
     51  C          1.4280    3.1440   24.6200 C.2   117  ASN117      0.2622
     52  O          0.8510    2.9400   23.5530 O.2   117  ASN117     -0.2715
     53  CB         0.1630    1.3580   25.8390 C.3   117  ASN117      0.1195
     54  CG        -0.5360    0.9260   27.1160 C.2   117  ASN117      0.2630
     55  OD1        0.0400    0.9730   28.2050 O.2   117  ASN117     -0.2716
     56  ND2       -1.7850    0.4880   26.9840 N.am  117  ASN117     -0.0877
     57  N          2.6310    3.7020   24.6880 N.am  118  THR118     -0.1937
     58  CA         3.2620    4.2540   23.4980 C.3   118  THR118      0.2028
     59  C          4.6880    3.7300   23.3060 C.2   118  THR118      0.2642
     60  O          5.3760    3.4000   24.2680 O.2   118  THR118     -0.2714
     61  CB         3.2010    5.8110   23.4990 C.3   118  THR118      0.1808
     62  OG1        3.4880    6.3130   22.1880 O.3   118  THR118     -0.2208
     63  CG2        4.1720    6.4150   24.5090 C.3   118  THR118      0.0379
     64  N          5.1200    3.6540   22.0530 N.am  119  SER119     -0.1949
     65  CA         6.3870    3.0110   21.7190 C.3   119  SER119      0.1924
     66  C          7.6180    3.7230   22.2790 C.2   119  SER119      0.2314
     67  O          8.6260    3.0800   22.5620 O.2   119  SER119     -0.2863
     68  CB         6.5230    2.8500   20.2020 C.3   119  SER119      0.2116
     69  OG         6.8750    4.0730   19.5790 O.3   119  SER119     -0.2180
     70  N          2.9940   11.4750   23.1500 N.3   149  PRO149     -0.2102
     71  CA         3.1990   10.2530   22.3680 C.3   149  PRO149      0.1504
     72  C          3.5640   10.5210   20.9030 C.2   149  PRO149      0.2576
     73  O          3.1270   11.5180   20.3190 O.2   149  PRO149     -0.2718
     74  CB         1.8420    9.5510   22.4640 C.3   149  PRO149      0.0282
     75  CG         1.2940   10.0020   23.7730 C.3   149  PRO149      0.0208
     76  CD         1.7290   11.4350   23.9090 C.3   149  PRO149      0.0893
     77  N          4.3720    9.6350   20.3260 N.am  150  ASN150     -0.1961
     78  CA         4.7880    9.7600   18.9330 C.3   150  ASN150      0.1819
     79  C          3.5610    9.9590   18.0540 C.2   150  ASN150      0.2622
     80  O          2.4900    9.4380   18.3540 O.2   150  ASN150     -0.2715
     81  CB         5.5700    8.5130   18.5030 C.3   150  ASN150      0.1195
     82  CG         6.4160    8.7430   17.2610 C.2   150  ASN150      0.2630
     83  OD1        5.9010    8.8080   16.1410 O.2   150  ASN150     -0.2716
     84  ND2        7.7280    8.8410   17.4520 N.am  150  ASN150     -0.0877
     85  N          3.7070   10.7210   16.9760 N.am  151  SER151     -0.1936
     86  CA         2.5620   11.0370   16.1290 C.3   151  SER151      0.2055
     87  C          2.0600    9.8120   15.3740 C.2   151  SER151      0.2644
     88  O          0.8950    9.7610   14.9780 O.2   151  SER151     -0.2714
     89  CB         2.8980   12.1640   15.1520 C.3   151  SER151      0.2130
     90  OG         4.0560   11.8530   14.3980 O.3   151  SER151     -0.2179
     91  N          2.9500    8.8410   15.1720 N.am  152  GLY152     -0.1939
     92  CA         2.5970    7.5500   14.5770 C.3   152  GLY152      0.2014
     93  C          1.8920    7.6200   13.2340 C.2   152  GLY152      0.2639
     94  O          2.5280    7.7940   12.1970 O.2   152  GLY152     -0.2714
     95  N          0.5680    7.4950   13.2530 N.am  153  SER153     -0.1949
     96  CA        -0.2150    7.4540   12.0180 C.3   153  SER153      0.1924
     97  C         -0.4910    8.8280   11.4050 C.2   153  SER153      0.2314
     98  O         -0.9250    8.9210   10.2570 O.2   153  SER153     -0.2863
     99  CB        -1.5320    6.7060   12.2410 C.3   153  SER153      0.2116
    100  OG        -2.1490    7.1130   13.4500 O.3   153  SER153     -0.2180
    101  N         11.2730    7.8180   15.2380 N.3   169  TRP169     -0.1241
    102  CA        11.8270    6.5800   14.6970 C.3   169  TRP169      0.1605
    103  C         12.1080    6.7470   13.2120 C.2   169  TRP169      0.2264
    104  O         11.3700    7.4420   12.5210 O.2   169  TRP169     -0.2867
    105  CB        10.8510    5.4140   14.8820 C.3   169  TRP169      0.0550
    106  CG        10.4880    5.0880   16.3070 C.ar  169  TRP169      0.0003
    107  CD1        9.2630    5.2490   16.8930 C.ar  169  TRP169      0.0946
    108  CD2       11.3430    4.5300   17.3180 C.ar  169  TRP169      0.0152
    109  NE1        9.3050    4.8320   18.2010 N.ar  169  TRP169     -0.2442
    110  CE2       10.5690    4.3880   18.4880 C.ar  169  TRP169      0.0810
    111  CE3       12.6840    4.1380   17.3490 C.ar  169  TRP169      0.0012
    112  CZ2       11.0920    3.8750   19.6730 C.ar  169  TRP169      0.0191
    113  CZ3       13.2010    3.6290   18.5280 C.ar  169  TRP169      0.0001
    114  CH2       12.4070    3.5020   19.6720 C.ar  169  TRP169      0.0015
@<TRIPOS>BOND
     1    98    97    2
     2    97    96    1
     3    96    99    1
     4    96    95    1
     5    94    93    2
     6    99   100    1
     7   104   103    2
     8   103   102    1
     9    93    95   am
    10    93    92    1
    11    10     9    1
    12    10    11    2
    13     9     8    1
    14     4     3    2
    15    90    89    1
    16    92    91    1
    17   102   105    1
    18   102   101    1
    19    12    13    1
    20     8     3   am
    21   105   106    1
    22    88    87    2
    23     3     2    1
    24    89    86    1
    25    91    87   am
    26    87    86    1
    27    13    14    1
    28    86    85    1
    29    83    82    2
    30   106   107   ar
    31   106   108   ar
    32     2     1    1
    33     2     5    1
    34     1     7    1
    35   107   109   ar
    36    14    15    2
    37    14    16   am
    38    85    79   am
    39     7     6    1
    40    22    16    1
    41    22    21    1
    42    82    84   am
    43    82    81    1
    44   108   111   ar
    45   108   110   ar
    46   111   113   ar
    47     6     5    1
    48    36    33    1
    49    16    17    1
    50    33    32    1
    51    33    34    1
    52    79    80    2
    53    79    78    1
    54   109   110   ar
    55    21    20    1
    56   110   112   ar
    57    81    78    1
    58   113   114   ar
    59    35    34    2
    60    78    77    1
    61    19    18    2
    62    17    18    1
    63    17    20    1
    64    69    68    1
    65    18    23   am
    66   114   112   ar
    67    68    65    1
    68    73    72    2
    69    77    72   am
    70    23    24    1
    71    72    71    1
    72    26    25    2
    73    24    25    1
    74    24    27    1
    75    65    64    1
    76    65    66    1
    77    64    59   am
    78    62    61    1
    79    42    41    1
    80    66    67    2
    81    71    74    1
    82    71    70    1
    83    27    28    1
    84    74    75    1
    85    28    29    1
    86    70    76    1
    87    59    58    1
    88    59    60    2
    89    41    38    1
    90    58    61    1
    91    58    57    1
    92    61    63    1
    93    52    51    2
    94    75    76    1
    95    39    40    2
    96    39    38    1
    97    29    30    2
    98    29    31   am
    99    38    37    1
   100    51    57   am
   101    51    50    1
   102    48    47    1
   103    53    50    1
   104    53    54    1
   105    50    49    1
   106    47    44    1
   107    49    45   am
   108    56    54   am
   109    45    44    1
   110    45    46    2
   111    54    55    2
   112    44    43    1
