@<TRIPOS>MOLECULE
tmp/3fitA00.pdb
 139 135 0 0 0
SMALL
GASTEIGER

@<TRIPOS>ATOM
      1  N         13.4310   29.9910   22.7930 N.3     5  PHE5       -0.1241
      2  CA        13.2230   28.5700   22.5460 C.3     5  PHE5        0.1605
      3  C         12.1780   28.4220   21.4670 C.2     5  PHE5        0.2264
      4  O         10.9990   28.2010   21.7270 O.2     5  PHE5       -0.2867
      5  CB        12.7820   27.8380   23.8090 C.3     5  PHE5        0.0534
      6  CG        12.4710   26.3690   23.6000 C.ar    5  PHE5       -0.0203
      7  CD1       13.3950   25.5170   23.0260 C.ar    5  PHE5       -0.0042
      8  CD2       11.2680   25.8250   24.0080 C.ar    5  PHE5       -0.0042
      9  CE1       13.1130   24.1220   22.8610 C.ar    5  PHE5       -0.0003
     10  CE2       10.9900   24.4220   23.8440 C.ar    5  PHE5       -0.0003
     11  CZ        11.9100   23.5910   23.2730 C.ar    5  PHE5       -0.0000
     12  N          8.9860   31.2980   21.1410 N.3     8  HIS8       -0.1226
     13  CA         8.4830   31.8320   22.3970 C.3     8  HIS8        0.1752
     14  C          9.6260   32.0910   23.3760 C.2     8  HIS8        0.2596
     15  O         10.7150   31.5240   23.2310 O.2     8  HIS8       -0.2718
     16  CB         7.2920   31.0420   23.0050 C.3     8  HIS8        0.0759
     17  CG         7.3640   29.5510   22.8430 C.ar    8  HIS8        0.0818
     18  ND1        6.3120   28.8080   22.3480 N.ar    8  HIS8       -0.2268
     19  CD2        8.3310   28.6550   23.1660 C.ar    8  HIS8        0.1154
     20  CE1        6.6240   27.5240   22.3780 C.ar    8  HIS8        0.1986
     21  NE2        7.8410   27.4020   22.8680 N.ar    8  HIS8       -0.2212
     22  N          9.4540   33.1080   24.2150 N.am    9  LEU9       -0.1966
     23  CA        10.4770   33.4380   25.1770 C.3     9  LEU9        0.1728
     24  C         10.2670   32.6710   26.4500 C.2     9  LEU9        0.2616
     25  O          9.1570   32.6070   26.9710 O.2     9  LEU9       -0.2715
     26  CB        10.4760   34.9170   25.5160 C.3     9  LEU9        0.0311
     27  CG        11.0980   35.9170   24.5660 C.3     9  LEU9        0.0022
     28  CD1       10.4470   37.1780   24.9740 C.3     9  LEU9        0.0001
     29  CD2       12.6210   36.0410   24.6860 C.3     9  LEU9        0.0001
     30  N         11.3750   32.1680   26.9730 N.am   10  ILE10      -0.1977
     31  CA        11.3750   31.4060   28.2060 C.3    10  ILE10       0.1596
     32  C         11.8710   32.2690   29.3420 C.2    10  ILE10       0.2287
     33  O         12.9310   32.8910   29.2670 O.2    10  ILE10      -0.2864
     34  CB        12.2720   30.1930   28.1000 C.3    10  ILE10       0.0276
     35  CG1       11.7970   29.2530   26.9640 C.3    10  ILE10       0.0022
     36  CG2       12.3500   29.5240   29.4440 C.3    10  ILE10       0.0022
     37  CD1       10.4580   28.5770   27.1650 C.3    10  ILE10       0.0001
     38  N         12.4910   29.7580   34.9100 N.3    14  VAL14      -0.1245
     39  CA        12.3650   28.3460   34.6650 C.3    14  VAL14       0.1561
     40  C         13.6370   27.7460   34.0570 C.2    14  VAL14       0.2260
     41  O         13.6680   26.5730   33.7390 O.2    14  VAL14      -0.2867
     42  CB        11.1210   28.0260   33.8340 C.3    14  VAL14       0.0252
     43  CG1        9.9300   28.6650   34.4810 C.3    14  VAL14       0.0019
     44  CG2       11.2680   28.5160   32.4260 C.3    14  VAL14       0.0019
     45  N         16.1630   24.0710   30.8640 N.3    25  LEU25      -0.1231
     46  CA        14.8870   24.5240   31.3920 C.3    25  LEU25       0.1693
     47  C         14.0330   23.3430   31.8680 C.2    25  LEU25       0.2592
     48  O         14.2600   22.1990   31.4600 O.2    25  LEU25      -0.2718
     49  CB        14.1190   25.3030   30.2900 C.3    25  LEU25       0.0284
     50  CG        13.6890   24.6490   28.9350 C.3    25  LEU25       0.0019
     51  CD1       12.4670   25.3020   28.3330 C.3    25  LEU25       0.0001
     52  CD2       14.8050   24.6980   27.8990 C.3    25  LEU25       0.0001
     53  N         13.0820   23.6110   32.7540 N.am   26  VAL26      -0.1966
     54  CA        12.1690   22.5870   33.2330 C.3    26  VAL26       0.1727
     55  C         10.9350   22.6780   32.3100 C.2    26  VAL26       0.2616
     56  O         10.7330   23.7180   31.7260 O.2    26  VAL26      -0.2715
     57  CB        11.7910   22.8580   34.7420 C.3    26  VAL26       0.0290
     58  CG1       13.0370   23.0590   35.5870 C.3    26  VAL26       0.0023
     59  CG2       10.9740   24.0970   34.8770 C.3    26  VAL26       0.0023
     60  N         10.0950   21.6320   32.1870 N.am   27  ASN27      -0.1958
     61  CA         8.8520   21.6330   31.3180 C.3    27  ASN27       0.1819
     62  C          7.5380   22.0150   31.9890 C.2    27  ASN27       0.2621
     63  O          7.3250   21.7160   33.1620 O.2    27  ASN27      -0.2715
     64  CB         8.5160   20.2350   30.7650 C.3    27  ASN27       0.1195
     65  CG         9.4240   19.7960   29.7140 C.2    27  ASN27       0.2630
     66  OD1        9.4060   18.6320   29.3570 O.2    27  ASN27      -0.2716
     67  ND2       10.3020   20.6620   29.2690 N.am   27  ASN27      -0.0877
     68  N          6.5870   22.4710   31.1660 N.am   28  ARG28      -0.1963
     69  CA         5.2420   22.8170   31.6600 C.3    28  ARG28       0.1729
     70  C          4.5070   21.5120   31.9150 C.2    28  ARG28       0.2616
     71  O          3.7500   21.3590   32.8950 O.2    28  ARG28      -0.2715
     72  CB         4.4520   23.6290   30.6250 C.3    28  ARG28       0.0348
     73  CG         2.9410   23.7580   30.9700 C.3    28  ARG28       0.0492
     74  CD         2.6640   24.5630   32.2700 C.3    28  ARG28       0.2205
     75  NE         2.8900   26.0150   32.1200 N.pl3  28  ARG28      -0.0865
     76  CZ         2.4630   26.9540   32.9710 C.cat  28  ARG28       0.5346
     77  NH1        1.7990   26.6280   34.0500 N.pl3  28  ARG28       0.1354
     78  NH2        2.6130   28.2450   32.6950 N.pl3  28  ARG28       0.1354
     79  N          4.7800   20.5730   31.0190 N.am   29  LYS29      -0.1977
     80  CA         4.2000   19.2500   31.0730 C.3    29  LYS29       0.1596
     81  C          5.2680   18.1320   31.0640 C.2    29  LYS29       0.2287
     82  O          5.4540   17.4270   30.0590 O.2    29  LYS29      -0.2864
     83  CB         3.2550   19.0620   29.8810 C.3    29  LYS29       0.0298
     84  CG         1.9720   19.8730   29.9200 C.3    29  LYS29       0.0038
     85  CD         1.2050   19.6970   28.6130 C.3    29  LYS29       0.0206
     86  CE        -0.0870   20.5100   28.6460 C.3    29  LYS29       0.1093
     87  NZ        -0.9630   20.3700   27.4150 N.3    29  LYS29      -0.1314
     88  N         11.7280   15.5440   33.9370 N.3    35  HIS35      -0.1241
     89  CA        11.8370   15.6910   32.4920 C.3    35  HIS35       0.1621
     90  C         12.2500   17.1520   32.2530 C.2    35  HIS35       0.2264
     91  O         11.4860   18.0480   32.5460 O.2    35  HIS35      -0.2867
     92  CB        10.4730   15.3950   31.8590 C.3    35  HIS35       0.0745
     93  CG        10.4350   15.5890   30.3680 C.ar   35  HIS35       0.0817
     94  ND1        9.2970   15.3970   29.6260 N.ar   35  HIS35      -0.2268
     95  CD2       11.3770   15.9930   29.4960 C.ar   35  HIS35       0.1154
     96  CE1        9.5380   15.6870   28.3620 C.ar   35  HIS35       0.1986
     97  NE2       10.7970   16.0470   28.2600 N.ar   35  HIS35      -0.2212
     98  N         14.8580   20.0120   29.6080 N.3    37  LEU37      -0.1245
     99  CA        15.3320   20.1870   28.2440 C.3    37  LEU37       0.1561
    100  C         16.6210   20.9210   28.2350 C.2    37  LEU37       0.2260
    101  O         16.7830   21.8530   29.0070 O.2    37  LEU37      -0.2867
    102  CB        14.3370   21.0330   27.4690 C.3    37  LEU37       0.0270
    103  CG        12.9260   20.5360   27.3260 C.3    37  LEU37       0.0019
    104  CD1       12.2100   21.5670   26.5180 C.3    37  LEU37       0.0001
    105  CD2       12.8820   19.1570   26.6600 C.3    37  LEU37       0.0001
    106  N          8.1290   19.0750   17.7260 N.3    90  THR90      -0.1203
    107  CA         7.0520   20.0740   17.7450 C.3    90  THR90       0.1994
    108  C          7.6890   21.4600   17.7270 C.2    90  THR90       0.2617
    109  O          7.2590   22.3070   16.9610 O.2    90  THR90      -0.2717
    110  CB         6.0570   19.9540   18.9450 C.3    90  THR90       0.1784
    111  OG1        6.7510   20.0480   20.1900 O.3    90  THR90      -0.2211
    112  CG2        5.3110   18.6510   18.9090 C.3    90  THR90       0.0376
    113  N          8.7240   21.7120   18.5280 N.am   91  VAL91      -0.1979
    114  CA         9.3500   23.0410   18.5150 C.3    91  VAL91       0.1595
    115  C         10.5680   22.9880   17.6310 C.2    91  VAL91       0.2287
    116  O         11.4350   22.1180   17.7670 O.2    91  VAL91      -0.2864
    117  CB         9.7480   23.5430   19.9010 C.3    91  VAL91       0.0276
    118  CG1       10.3610   24.9100   19.7950 C.3    91  VAL91       0.0022
    119  CG2        8.5430   23.6800   20.7350 C.3    91  VAL91       0.0022
    120  N         16.8330   20.3670   20.6070 N.3    95  HIS95      -0.1241
    121  CA        16.8090   20.2400   22.0280 C.3    95  HIS95       0.1621
    122  C         16.8010   18.8030   22.4290 C.2    95  HIS95       0.2264
    123  O         16.1960   17.9660   21.7690 O.2    95  HIS95      -0.2867
    124  CB        15.6420   21.0200   22.6630 C.3    95  HIS95       0.0745
    125  CG        14.2780   20.5480   22.2750 C.ar   95  HIS95       0.0817
    126  ND1       13.6470   20.9670   21.1210 N.ar   95  HIS95      -0.2268
    127  CD2       13.3860   19.7580   22.9250 C.ar   95  HIS95       0.1154
    128  CE1       12.4250   20.4710   21.0790 C.ar   95  HIS95       0.1986
    129  NE2       12.2370   19.7320   22.1570 N.ar   95  HIS95      -0.2212
    130  N         15.8690   15.9040   25.2100 N.3    97  HIS97      -0.1241
    131  CA        14.9600   15.5980   26.2700 C.3    97  HIS97       0.1621
    132  C         15.7810   14.7630   27.2060 C.2    97  HIS97       0.2264
    133  O         16.4010   13.8280   26.7570 O.2    97  HIS97      -0.2867
    134  CB        13.8250   14.7360   25.7440 C.3    97  HIS97       0.0745
    135  CG        12.8870   15.4550   24.8420 C.ar   97  HIS97       0.0817
    136  ND1       11.8380   16.2190   25.3090 N.ar   97  HIS97      -0.2268
    137  CD2       12.8270   15.5190   23.4920 C.ar   97  HIS97       0.1154
    138  CE1       11.1680   16.7100   24.2860 C.ar   97  HIS97       0.1986
    139  NE2       11.7450   16.3000   23.1750 N.ar   97  HIS97      -0.2212
@<TRIPOS>BOND
     1   109   108    2
     2   115   116    2
     3   115   114    1
     4   106   107    1
     5   108   107    1
     6   108   113   am
     7   107   110    1
     8   114   113    1
     9   114   117    1
    10   112   110    1
    11   110   111    1
    12   118   117    1
    13   117   119    1
    14   120   121    1
    15   128   126   ar
    16   128   129   ar
    17   126   125   ar
    18    12    13    1
    19     3     4    2
    20     3     2    1
    21   123   122    2
    22   121   122    1
    23   121   124    1
    24   129   127   ar
    25   125   124    1
    26   125   127   ar
    27    18    20   ar
    28    18    17   ar
    29    20    21   ar
    30    13    16    1
    31    13    14    1
    32     2     1    1
    33     2     5    1
    34    17    16    1
    35    17    19   ar
    36     9     7   ar
    37     9    11   ar
    38    21    19   ar
    39     7     6   ar
    40   139   137   ar
    41   139   138   ar
    42    15    14    2
    43    11    10   ar
    44    14    22   am
    45   137   135   ar
    46     6     5    1
    47     6     8   ar
    48    10     8   ar
    49    22    23    1
    50   138   136   ar
    51    27    29    1
    52    27    28    1
    53    27    26    1
    54   135   136   ar
    55   135   134    1
    56    23    26    1
    57    23    24    1
    58   130   131    1
    59   134   131    1
    60   131   132    1
    61    24    25    2
    62    24    30   am
    63   104   103    1
    64   105   103    1
    65   133   132    2
    66    35    37    1
    67    35    34    1
    68    30    31    1
    69   103   102    1
    70    87    86    1
    71   102    99    1
    72    52    50    1
    73    34    31    1
    74    34    36    1
    75    31    32    1
    76   100    99    1
    77   100   101    2
    78    99    98    1
    79    97    96   ar
    80    97    95   ar
    81    51    50    1
    82    96    94   ar
    83    85    86    1
    84    85    84    1
    85    50    49    1
    86    33    32    2
    87    67    65   am
    88    66    65    2
    89    95    93   ar
    90    94    93   ar
    91    65    64    1
    92    83    84    1
    93    83    80    1
    94    82    81    2
    95    49    46    1
    96    93    92    1
    97    72    73    1
    98    72    69    1
    99    64    61    1
   100    45    46    1
   101    73    74    1
   102    79    80    1
   103    79    70   am
   104    81    80    1
   105    68    69    1
   106    68    62   am
   107    61    62    1
   108    61    60    1
   109    46    47    1
   110    48    47    2
   111    69    70    1
   112    56    55    2
   113    92    89    1
   114    47    53   am
   115    70    71    2
   116    62    63    2
   117    75    74    1
   118    75    76    2
   119    60    55   am
   120    90    89    1
   121    90    91    2
   122    55    54    1
   123    44    42    1
   124    89    88    1
   125    78    76    1
   126    53    54    1
   127    76    77    1
   128    54    57    1
   129    41    40    2
   130    42    43    1
   131    42    39    1
   132    40    39    1
   133    39    38    1
   134    57    59    1
   135    57    58    1
