@<TRIPOS>MOLECULE
tmp/3fiuC01.pdb
 78 72 0 0 0
SMALL
GASTEIGER

@<TRIPOS>ATOM
      1  N        -15.6060   17.6550   97.5870 N.3    32  SER32      -0.1217
      2  CA       -16.8660   17.4160   96.9180 C.3    32  SER32       0.1889
      3  C        -17.5440   18.7160   96.5080 C.2    32  SER32       0.2288
      4  O        -18.5010   18.6850   95.7320 O.2    32  SER32      -0.2866
      5  CB       -17.8110   16.7010   97.8780 C.3    32  SER32       0.2089
      6  OG       -17.9520   17.4960   99.0450 O.3    32  SER32      -0.2183
      7  N        -18.8250   20.2460   99.0680 N.3    34  GLY34      -0.1210
      8  CA       -19.6160   20.3400  100.3170 C.3    34  GLY34       0.1956
      9  C        -18.8000   20.9590  101.4400 C.2    34  GLY34       0.2612
     10  O        -17.5930   21.1770  101.3150 O.2    34  GLY34      -0.2717
     11  N        -19.4790   21.2220  102.5670 N.am   35  ILE35      -0.1965
     12  CA       -18.9050   21.9910  103.6500 C.3    35  ILE35       0.1727
     13  C        -17.8810   21.1870  104.4660 C.2    35  ILE35       0.2616
     14  O        -16.8680   21.7370  104.9200 O.2    35  ILE35      -0.2715
     15  CB       -20.0500   22.5860  104.5570 C.3    35  ILE35       0.0290
     16  CG1      -19.4520   23.5190  105.6140 C.3    35  ILE35       0.0022
     17  CG2      -20.8560   21.4700  105.1780 C.3    35  ILE35       0.0023
     18  CD1      -18.8420   24.7680  105.0600 C.3    35  ILE35       0.0001
     19  N        -18.1260   19.8830  104.6480 N.am   36  ASP36      -0.1957
     20  CA       -17.2690   19.0940  105.5200 C.3    36  ASP36       0.1840
     21  C        -15.8650   19.0310  104.9020 C.2    36  ASP36       0.2622
     22  O        -14.8720   19.3030  105.5690 O.2    36  ASP36      -0.2715
     23  CB       -17.7910   17.6550  105.7080 C.3    36  ASP36       0.1450
     24  CG       -19.1840   17.5660  106.3640 C.2    36  ASP36       0.3671
     25  OD1      -19.5520   18.4140  107.1930 O.co2  36  ASP36      -0.2456
     26  OD2      -19.9050   16.5920  106.0270 O.co2  36  ASP36      -0.2456
     27  N        -15.7890   18.6520  103.6200 N.am   37  SER37      -0.1950
     28  CA       -14.5000   18.5450  102.9420 C.3    37  SER37       0.1924
     29  C        -13.8460   19.9310  102.7780 C.2    37  SER37       0.2314
     30  O        -12.6460   20.0230  102.8870 O.2    37  SER37      -0.2863
     31  CB       -14.6160   17.8210  101.5970 C.3    37  SER37       0.2116
     32  OG       -15.5570   18.4540  100.7930 O.3    37  SER37      -0.2180
     33  N        -13.6640   13.1710  106.4240 N.3   131  THR131     -0.1218
     34  CA       -14.4050   14.3930  106.6680 C.3   131  THR131      0.1862
     35  C        -15.6570   14.2080  107.5340 C.2   131  THR131      0.2287
     36  O        -16.3980   15.1550  107.7130 O.2   131  THR131     -0.2866
     37  CB       -14.8320   15.0210  105.3530 C.3   131  THR131      0.1770
     38  OG1      -15.8040   14.1680  104.7370 O.3   131  THR131     -0.2211
     39  CG2      -13.6000   15.2030  104.4210 C.3   131  THR131      0.0375
     40  N        -22.7890   12.6800  110.9470 N.3   136  GLU136     -0.1245
     41  CA       -22.5220   11.5480  110.0490 C.3   136  GLU136      0.1567
     42  C        -22.0330   10.3070  110.7890 C.2   136  GLU136      0.2260
     43  O        -22.4970    9.1900  110.5120 O.2   136  GLU136     -0.2867
     44  CB       -21.5300   11.9540  108.9590 C.3   136  GLU136      0.0388
     45  CG       -22.0380   13.1370  108.1640 C.3   136  GLU136      0.1160
     46  CD       -20.9790   13.7150  107.2460 C.2   136  GLU136      0.3649
     47  OE1      -21.3170   14.0500  106.1100 O.co2 136  GLU136     -0.2457
     48  OE2      -19.8150   13.8040  107.6450 O.co2 136  GLU136     -0.2457
     49  N        -22.9530   19.5620  113.1070 N.3   160  LYS160     -0.1245
     50  CA       -22.9720   20.1360  111.7550 C.3   160  LYS160      0.1561
     51  C        -22.9560   21.6580  111.8230 C.2   160  LYS160      0.2260
     52  O        -22.2640   22.3120  111.0270 O.2   160  LYS160     -0.2867
     53  CB       -24.2000   19.6680  110.9730 C.3   160  LYS160      0.0271
     54  CG       -24.1620   20.0620  109.4760 C.3   160  LYS160      0.0035
     55  CD       -23.1440   19.2500  108.7070 C.3   160  LYS160      0.0206
     56  CE       -23.2110   19.4730  107.1720 C.3   160  LYS160      0.1093
     57  NZ       -22.2060   18.5330  106.4840 N.3   160  LYS160     -0.1314
     58  N        -26.4770   20.1770  102.2900 N.3   181  PRO181     -0.2102
     59  CA       -25.6450   18.9870  102.4820 C.3   181  PRO181      0.1504
     60  C        -26.1920   17.8580  101.6160 C.2   181  PRO181      0.2576
     61  O        -27.4120   17.6770  101.5440 O.2   181  PRO181     -0.2718
     62  CB       -25.8010   18.6900  103.9830 C.3   181  PRO181      0.0282
     63  CG       -25.9370   20.0530  104.5770 C.3   181  PRO181      0.0208
     64  CD       -26.8450   20.7820  103.5850 C.3   181  PRO181      0.0893
     65  N        -25.3010   17.1400  100.9210 N.am  182  SER182     -0.1953
     66  CA       -25.7330   16.2150   99.8760 C.3   182  SER182      0.1924
     67  C        -24.6420   15.2090   99.5720 C.2   182  SER182      0.2314
     68  O        -23.4550   15.5560   99.5800 O.2   182  SER182     -0.2863
     69  CB       -26.0920   16.9820   98.5980 C.3   182  SER182      0.2116
     70  OG       -26.4170   16.0690   97.5580 O.3   182  SER182     -0.2180
     71  N        -29.0920   15.4160  102.1320 N.3   191  ASP191     -0.1239
     72  CA       -28.9030   14.5710  103.3020 C.3   191  ASP191      0.1674
     73  C        -30.1980   14.5130  104.1280 C.2   191  ASP191      0.2266
     74  O        -30.6110   13.4410  104.5620 O.2   191  ASP191     -0.2867
     75  CB       -27.8030   15.1310  104.1930 C.3   191  ASP191      0.1410
     76  CG       -26.4180   14.9750  103.5900 C.2   191  ASP191      0.3668
     77  OD1      -26.2760   14.5040  102.4200 O.co2 191  ASP191     -0.2456
     78  OD2      -25.4790   15.3310  104.3250 O.co2 191  ASP191     -0.2456
@<TRIPOS>BOND
     1     4     3    2
     2     3     2    1
     3     2     1    1
     4     2     5    1
     5    70    69    1
     6     5     6    1
     7    69    66    1
     8     7     8    1
     9    67    68    2
    10    67    66    1
    11    66    65    1
    12     8     9    1
    13    32    31    1
    14    65    60   am
    15    10     9    2
    16     9    11   am
    17    61    60    2
    18    31    28    1
    19    60    59    1
    20    71    72    1
    21    58    59    1
    22    58    64    1
    23    77    76   ar
    24    59    62    1
    25    11    12    1
    26    29    30    2
    27    29    28    1
    28    28    27    1
    29    72    73    1
    30    72    75    1
    31    64    63    1
    32    76    75    1
    33    76    78   ar
    34    27    21   am
    35    12    13    1
    36    12    15    1
    37    62    63    1
    38    73    74    2
    39    39    37    1
    40    13    19   am
    41    13    14    2
    42    15    17    1
    43    15    16    1
    44    19    20    1
    45    38    37    1
    46    21    20    1
    47    21    22    2
    48    18    16    1
    49    37    34    1
    50    20    23    1
    51    23    24    1
    52    26    24   ar
    53    47    46   ar
    54    24    25   ar
    55    33    34    1
    56    57    56    1
    57    34    35    1
    58    56    55    1
    59    46    48   ar
    60    46    45    1
    61    35    36    2
    62    45    44    1
    63    55    54    1
    64    44    41    1
    65    54    53    1
    66    41    42    1
    67    41    40    1
    68    43    42    2
    69    53    50    1
    70    52    51    2
    71    50    51    1
    72    50    49    1
