@<TRIPOS>MOLECULE
tmp/3fiuC00.pdb
 153 142 0 0 0
SMALL
GASTEIGER

@<TRIPOS>ATOM
      1  N        -10.3840   14.4060   99.5050 N.3    30  GLY30      -0.1210
      2  CA       -11.3910   14.5510   98.4310 C.3    30  GLY30       0.1956
      3  C        -12.2640   15.7790   98.6650 C.2    30  GLY30       0.2612
      4  O        -12.8730   15.9190   99.7420 O.2    30  GLY30      -0.2717
      5  N        -12.3600   16.6490   97.6620 N.am   31  LEU31      -0.1965
      6  CA       -13.2190   17.8600   97.7260 C.3    31  LEU31       0.1728
      7  C        -14.4700   17.7380   96.9030 C.2    31  LEU31       0.2616
      8  O        -14.4240   17.7120   95.6680 O.2    31  LEU31      -0.2715
      9  CB       -12.4820   19.1330   97.2730 C.3    31  LEU31       0.0311
     10  CG       -11.5200   19.8330   98.2040 C.3    31  LEU31       0.0022
     11  CD1      -11.1390   21.1650   97.5080 C.3    31  LEU31       0.0001
     12  CD2      -12.1460   20.0930   99.5680 C.3    31  LEU31       0.0001
     13  N        -15.6060   17.6550   97.5870 N.am   32  SER32      -0.1950
     14  CA       -16.8660   17.4160   96.9180 C.3    32  SER32       0.1924
     15  C        -17.5440   18.7160   96.5080 C.2    32  SER32       0.2314
     16  O        -18.5010   18.6850   95.7320 O.2    32  SER32      -0.2863
     17  CB       -17.8110   16.7010   97.8780 C.3    32  SER32       0.2116
     18  OG       -17.9520   17.4960   99.0450 O.3    32  SER32      -0.2180
     19  N        -18.1260   19.8830  104.6480 N.3    36  ASP36      -0.1225
     20  CA       -17.2690   19.0940  105.5200 C.3    36  ASP36       0.1805
     21  C        -15.8650   19.0310  104.9020 C.2    36  ASP36       0.2598
     22  O        -14.8720   19.3030  105.5690 O.2    36  ASP36      -0.2718
     23  CB       -17.7910   17.6550  105.7080 C.3    36  ASP36       0.1424
     24  CG       -19.1840   17.5660  106.3640 C.2    36  ASP36       0.3668
     25  OD1      -19.5520   18.4140  107.1930 O.co2  36  ASP36      -0.2456
     26  OD2      -19.9050   16.5920  106.0270 O.co2  36  ASP36      -0.2456
     27  N        -15.7890   18.6520  103.6200 N.am   37  SER37      -0.1952
     28  CA       -14.5000   18.5450  102.9420 C.3    37  SER37       0.1924
     29  C        -13.8460   19.9310  102.7780 C.2    37  SER37       0.2314
     30  O        -12.6460   20.0230  102.8870 O.2    37  SER37      -0.2863
     31  CB       -14.6160   17.8210  101.5970 C.3    37  SER37       0.2116
     32  OG       -15.5570   18.4540  100.7930 O.3    37  SER37      -0.2180
     33  N         -8.2150   16.1690   95.7820 N.3    54  LEU54      -0.1231
     34  CA        -8.7430   15.4970   94.6040 C.3    54  LEU54       0.1693
     35  C        -10.2160   15.8300   94.4210 C.2    54  LEU54       0.2592
     36  O        -10.9910   15.7650   95.3670 O.2    54  LEU54      -0.2718
     37  CB        -8.5570   13.9700   94.6940 C.3    54  LEU54       0.0284
     38  CG        -7.1490   13.4600   95.0270 C.3    54  LEU54       0.0019
     39  CD1       -7.1300   11.8980   95.0280 C.3    54  LEU54       0.0001
     40  CD2       -6.0790   14.0450   94.0210 C.3    54  LEU54       0.0001
     41  N        -10.5880   16.2030   93.2020 N.am   55  ILE55      -0.1966
     42  CA       -11.9940   16.3290   92.8150 C.3    55  ILE55       0.1727
     43  C        -12.2890   15.1160   91.9810 C.2    55  ILE55       0.2616
     44  O        -11.5760   14.8370   90.9960 O.2    55  ILE55      -0.2715
     45  CB       -12.3090   17.6550   92.0520 C.3    55  ILE55       0.0290
     46  CG1      -11.9330   18.8770   92.9100 C.3    55  ILE55       0.0022
     47  CG2      -13.7930   17.6920   91.6330 C.3    55  ILE55       0.0023
     48  CD1      -12.0740   20.2250   92.1820 C.3    55  ILE55       0.0001
     49  N        -13.3170   14.3710   92.3770 N.am   56  LEU56      -0.1964
     50  CA       -13.5430   13.0110   91.8270 C.3    56  LEU56       0.1713
     51  C        -14.9820   12.8470   91.4030 C.2    56  LEU56       0.2458
     52  O        -15.7510   12.1230   92.0550 O.2    56  LEU56      -0.2730
     53  CB       -13.1670   11.9310   92.8660 C.3    56  LEU56       0.0310
     54  CG       -11.7050   11.9520   93.3540 C.3    56  LEU56       0.0022
     55  CD1      -11.4590   11.1340   94.6450 C.3    56  LEU56       0.0001
     56  CD2      -10.7580   11.4820   92.2150 C.3    56  LEU56       0.0001
     57  N        -15.3790   13.5500   90.3260 N.am   57  PRO57      -0.2727
     58  CA       -16.8050   13.5060   90.0260 C.3    57  PRO57       0.1402
     59  C        -17.2220   12.2200   89.3400 C.2    57  PRO57       0.2269
     60  O        -16.3960   11.5520   88.6970 O.2    57  PRO57      -0.2865
     61  CB       -17.0070   14.7010   89.0750 C.3    57  PRO57       0.0296
     62  CG       -15.6610   14.9750   88.4580 C.3    57  PRO57       0.0237
     63  CD       -14.6030   14.3710   89.3680 C.3    57  PRO57       0.0939
     64  N        -22.6970   13.8300   89.4930 N.3    61  ASN61      -0.1240
     65  CA       -22.3340   15.0470   90.2170 C.3    61  ASN61       0.1653
     66  C        -22.6840   16.3140   89.4150 C.2    61  ASN61       0.2266
     67  O        -22.8080   16.2670   88.1830 O.2    61  ASN61      -0.2867
     68  CB       -20.8540   15.0470   90.6200 C.3    61  ASN61       0.1155
     69  CG       -20.5610   14.0940   91.7640 C.2    61  ASN61       0.2627
     70  OD1      -19.8760   13.1070   91.5830 O.2    61  ASN61      -0.2716
     71  ND2      -21.1230   14.3680   92.9390 N.am   61  ASN61      -0.0877
     72  N        -13.5020    6.5030   95.2130 N.3   113  ARG113     -0.1245
     73  CA       -12.8460    7.6930   95.7760 C.3   113  ARG113      0.1563
     74  C        -11.8000    7.3660   96.8210 C.2   113  ARG113      0.2260
     75  O        -10.7240    7.9270   96.7780 O.2   113  ARG113     -0.2867
     76  CB       -13.8710    8.6890   96.3250 C.3   113  ARG113      0.0307
     77  CG       -14.7560    9.2470   95.1990 C.3   113  ARG113      0.0489
     78  CD       -15.6240   10.4550   95.6170 C.3   113  ARG113      0.2205
     79  NE       -16.4110   10.8040   94.4350 N.pl3 113  ARG113     -0.0865
     80  CZ       -17.6890   10.4940   94.2320 C.cat 113  ARG113      0.5346
     81  NH1      -18.4080    9.8860   95.1650 N.pl3 113  ARG113      0.1354
     82  NH2      -18.2590   10.8260   93.0880 N.pl3 113  ARG113      0.1354
     83  N         -7.7440    8.3920   96.6510 N.3   117  LEU117     -0.1245
     84  CA        -7.0760    9.0640   97.7480 C.3   117  LEU117      0.1561
     85  C         -5.9190    8.2680   98.2780 C.2   117  LEU117      0.2260
     86  O         -4.8590    8.8380   98.5230 O.2   117  LEU117     -0.2867
     87  CB        -8.0670    9.3850   98.9010 C.3   117  LEU117      0.0270
     88  CG        -9.1930   10.3420   98.5200 C.3   117  LEU117      0.0019
     89  CD1      -10.3860   10.2260   99.5290 C.3   117  LEU117      0.0001
     90  CD2       -8.6190   11.8310   98.4190 C.3   117  LEU117      0.0001
     91  N         -7.3220   12.5120  104.9040 N.3   129  ILE129     -0.1245
     92  CA        -8.2480   13.1750  105.8340 C.3   129  ILE129      0.1561
     93  C         -9.6520   12.7030  105.5400 C.2   129  ILE129      0.2260
     94  O        -10.1320   12.8590  104.4100 O.2   129  ILE129     -0.2867
     95  CB        -8.1990   14.7200  105.7190 C.3   129  ILE129      0.0252
     96  CG1       -6.7850   15.2250  106.0110 C.3   129  ILE129      0.0019
     97  CG2       -9.1590   15.3700  106.7250 C.3   129  ILE129      0.0019
     98  CD1       -6.6370   16.7250  105.7880 C.3   129  ILE129      0.0001
     99  N        -13.6640   13.1710  106.4240 N.3   131  THR131     -0.1218
    100  CA       -14.4050   14.3930  106.6680 C.3   131  THR131      0.1862
    101  C        -15.6570   14.2080  107.5340 C.2   131  THR131      0.2287
    102  O        -16.3980   15.1550  107.7130 O.2   131  THR131     -0.2866
    103  CB       -14.8320   15.0210  105.3530 C.3   131  THR131      0.1770
    104  OG1      -15.8040   14.1680  104.7370 O.3   131  THR131     -0.2211
    105  CG2      -13.6000   15.2030  104.4210 C.3   131  THR131      0.0375
    106  N        -22.7890   12.6800  110.9470 N.3   136  GLU136     -0.1245
    107  CA       -22.5220   11.5480  110.0490 C.3   136  GLU136      0.1567
    108  C        -22.0330   10.3070  110.7890 C.2   136  GLU136      0.2260
    109  O        -22.4970    9.1900  110.5120 O.2   136  GLU136     -0.2867
    110  CB       -21.5300   11.9540  108.9590 C.3   136  GLU136      0.0388
    111  CG       -22.0380   13.1370  108.1640 C.3   136  GLU136      0.1160
    112  CD       -20.9790   13.7150  107.2460 C.2   136  GLU136      0.3649
    113  OE1      -21.3170   14.0500  106.1100 O.co2 136  GLU136     -0.2457
    114  OE2      -19.8150   13.8040  107.6450 O.co2 136  GLU136     -0.2457
    115  N        -23.9500    7.7260  108.4930 N.3   141  TYR141     -0.1241
    116  CA       -24.2430    8.2060  107.1240 C.3   141  TYR141      0.1605
    117  C        -22.8910    8.3530  106.3880 C.2   141  TYR141      0.2264
    118  O        -22.3710    9.4660  106.1760 O.2   141  TYR141     -0.2867
    119  CB       -25.0700    9.5220  107.1190 C.3   141  TYR141      0.0534
    120  CG       -25.7550    9.8380  105.7800 C.ar  141  TYR141     -0.0201
    121  CD1      -26.7140   10.8460  105.6750 C.ar  141  TYR141     -0.0009
    122  CD2      -25.4480    9.1280  104.6230 C.ar  141  TYR141     -0.0009
    123  CE1      -27.3450   11.1350  104.4480 C.ar  141  TYR141      0.0417
    124  CE2      -26.0640    9.4180  103.4060 C.ar  141  TYR141      0.0417
    125  CZ       -27.0110   10.4280  103.3300 C.ar  141  TYR141      0.1957
    126  OH       -27.6200   10.6970  102.1150 O.3   141  TYR141     -0.2866
    127  N        -16.0750    6.6420  102.0290 N.3   147  ASP147     -0.1239
    128  CA       -15.7690    7.8990  102.7260 C.3   147  ASP147      0.1674
    129  C        -15.5410    7.6940  104.2280 C.2   147  ASP147      0.2266
    130  O        -14.9600    8.5390  104.9040 O.2   147  ASP147     -0.2867
    131  CB       -16.8250    8.9660  102.4480 C.3   147  ASP147      0.1410
    132  CG       -18.2290    8.5480  102.8680 C.2   147  ASP147      0.3668
    133  OD1      -18.8870    9.3760  103.5110 O.co2 147  ASP147     -0.2456
    134  OD2      -18.6840    7.4360  102.5170 O.co2 147  ASP147     -0.2456
    135  N        -25.3010   17.1400  100.9210 N.3   182  SER182     -0.1202
    136  CA       -25.7330   16.2150   99.8760 C.3   182  SER182      0.2020
    137  C        -24.6420   15.2090   99.5720 C.2   182  SER182      0.2618
    138  O        -23.4550   15.5560   99.5800 O.2   182  SER182     -0.2717
    139  CB       -26.0920   16.9820   98.5980 C.3   182  SER182      0.2103
    140  OG       -26.4170   16.0690   97.5580 O.3   182  SER182     -0.2182
    141  N        -25.0410   13.9570   99.3200 N.am  183  ALA183     -0.1979
    142  CA       -24.0890   12.9130   98.9070 C.3   183  ALA183      0.1597
    143  C        -23.7350   13.0610   97.4240 C.2   183  ALA183      0.2287
    144  O        -22.7480   12.4800   96.9620 O.2   183  ALA183     -0.2864
    145  CB       -24.6680   11.4770   99.1980 C.3   183  ALA183      0.0319
    146  N        -29.0920   15.4160  102.1320 N.3   191  ASP191     -0.1239
    147  CA       -28.9030   14.5710  103.3020 C.3   191  ASP191      0.1674
    148  C        -30.1980   14.5130  104.1280 C.2   191  ASP191      0.2266
    149  O        -30.6110   13.4410  104.5620 O.2   191  ASP191     -0.2867
    150  CB       -27.8030   15.1310  104.1930 C.3   191  ASP191      0.1410
    151  CG       -26.4180   14.9750  103.5900 C.2   191  ASP191      0.3668
    152  OD1      -26.2760   14.5040  102.4200 O.co2 191  ASP191     -0.2456
    153  OD2      -25.4790   15.3310  104.3250 O.co2 191  ASP191     -0.2456
@<TRIPOS>BOND
     1    67    66    2
     2    62    61    1
     3    62    63    1
     4    60    59    2
     5    61    58    1
     6    59    58    1
     7    63    57    1
     8    66    65    1
     9    64    65    1
    10    58    57    1
    11    65    68    1
    12    57    51   am
    13    68    69    1
    14    44    43    2
    15    51    50    1
    16    51    52    2
    17    70    69    2
    18    47    45    1
    19    69    71   am
    20    50    49    1
    21    50    53    1
    22    43    49   am
    23    43    42    1
    24    45    42    1
    25    45    46    1
    26    48    46    1
    27    56    54    1
    28    42    41    1
    29    53    54    1
    30    82    80    1
    31    41    35   am
    32    54    55    1
    33    40    38    1
    34    80    79    2
    35    80    81    1
    36    35    34    1
    37    35    36    2
    38    79    78    1
    39    34    37    1
    40    34    33    1
    41    37    38    1
    42    38    39    1
    43    77    78    1
    44    77    76    1
    45    72    73    1
    46     8     7    2
    47    16    15    2
    48    73    76    1
    49    73    74    1
    50    15    14    1
    51    83    84    1
    52    75    74    2
    53     7    13   am
    54     7     6    1
    55    14    13    1
    56    14    17    1
    57   144   143    2
    58     9     6    1
    59     9    10    1
    60   143   142    1
    61    11    10    1
    62   140   139    1
    63     5     6    1
    64     5     3   am
    65    84    85    1
    66    84    87    1
    67    17    18    1
    68    10    12    1
    69    85    86    2
    70    90    88    1
    71     2     3    1
    72     2     1    1
    73    88    87    1
    74    88    89    1
    75   139   136    1
    76     3     4    2
    77   142   145    1
    78   142   141    1
    79   141   137   am
    80   137   138    2
    81   137   136    1
    82   136   135    1
    83    32    31    1
    84    31    28    1
    85   127   128    1
    86   126   125    1
    87   146   147    1
    88   152   151   ar
    89   131   128    1
    90   131   132    1
    91   134   132   ar
    92   128   129    1
    93    29    30    2
    94    29    28    1
    95   132   133   ar
    96    28    27    1
    97   147   148    1
    98   147   150    1
    99   125   124   ar
   100   125   123   ar
   101   124   122   ar
   102   151   150    1
   103   151   153   ar
   104    27    21   am
   105   148   149    2
   106   129   130    2
   107    94    93    2
   108   105   103    1
   109   123   121   ar
   110   122   120   ar
   111    19    20    1
   112   104   103    1
   113    21    20    1
   114    21    22    2
   115    91    92    1
   116   103   100    1
   117    20    23    1
   118    93    92    1
   119   121   120   ar
   120    23    24    1
   121    95    92    1
   122    95    96    1
   123    95    97    1
   124   120   119    1
   125    98    96    1
   126    26    24   ar
   127   113   112   ar
   128   118   117    2
   129    24    25   ar
   130   117   116    1
   131    99   100    1
   132   100   101    1
   133   119   116    1
   134   116   115    1
   135   112   114   ar
   136   112   111    1
   137   101   102    2
   138   111   110    1
   139   110   107    1
   140   107   108    1
   141   107   106    1
   142   109   108    2
