@<TRIPOS>MOLECULE
tmp/3fj4B00.pdb
 139 128 0 0 0
SMALL
GASTEIGER

@<TRIPOS>ATOM
      1  N        -28.6740   42.4280    1.5970 N.3    21  HIS21      -0.1241
      2  CA       -27.9290   43.6170    2.0000 C.3    21  HIS21       0.1621
      3  C        -26.6270   43.1390    2.6390 C.2    21  HIS21       0.2264
      4  O        -26.6400   42.5830    3.7350 O.2    21  HIS21      -0.2867
      5  CB       -28.7590   44.4170    3.0070 C.3    21  HIS21       0.0745
      6  CG       -28.5300   45.8940    2.9460 C.ar   21  HIS21       0.0817
      7  ND1      -27.9570   46.6040    3.9810 N.ar   21  HIS21      -0.2268
      8  CD2      -28.8190   46.8010    1.9830 C.ar   21  HIS21       0.1154
      9  CE1      -27.9060   47.8830    3.6580 C.ar   21  HIS21       0.1986
     10  NE2      -28.4230   48.0290    2.4500 N.ar   21  HIS21      -0.2212
     11  N        -23.2420   43.5700    4.5570 N.3    23  LEU23      -0.1245
     12  CA       -22.4430   44.3690    5.4780 C.3    23  LEU23       0.1561
     13  C        -21.0830   43.6780    5.5670 C.2    23  LEU23       0.2260
     14  O        -20.9510   42.5050    5.2130 O.2    23  LEU23      -0.2867
     15  CB       -23.0760   44.4010    6.8740 C.3    23  LEU23       0.0270
     16  CG       -24.4380   45.0620    7.0950 C.3    23  LEU23       0.0019
     17  CD1      -24.3290   46.5480    6.8150 C.3    23  LEU23       0.0001
     18  CD2      -25.4880   44.4100    6.2110 C.3    23  LEU23       0.0001
     19  N        -29.5230   44.3660   13.5670 N.3    53  ILE53      -0.1245
     20  CA       -29.1160   43.7440   12.3120 C.3    53  ILE53       0.1561
     21  C        -28.3820   42.4220   12.5020 C.2    53  ILE53       0.2260
     22  O        -27.4400   42.3350   13.2850 O.2    53  ILE53      -0.2867
     23  CB       -28.1990   44.6980   11.5050 C.3    53  ILE53       0.0252
     24  CG1      -28.9890   45.9380   11.0810 C.3    53  ILE53       0.0019
     25  CG2      -27.6180   43.9750   10.2990 C.3    53  ILE53       0.0019
     26  CD1      -28.1450   47.0290   10.4820 C.3    53  ILE53       0.0001
     27  N        -24.2260   42.2670   14.7640 N.3    58  TYR58      -0.1241
     28  CA       -23.9590   43.6900   14.8430 C.3    58  TYR58       0.1605
     29  C        -23.7550   44.1620   16.2790 C.2    58  TYR58       0.2264
     30  O        -22.7340   44.7760   16.5910 O.2    58  TYR58      -0.2867
     31  CB       -25.1080   44.4650   14.2010 C.3    58  TYR58       0.0534
     32  CG       -24.7890   45.9200   13.9660 C.ar   58  TYR58      -0.0201
     33  CD1      -24.3840   46.3700   12.7110 C.ar   58  TYR58      -0.0009
     34  CD2      -24.8710   46.8450   15.0060 C.ar   58  TYR58      -0.0009
     35  CE1      -24.0690   47.7120   12.4950 C.ar   58  TYR58       0.0417
     36  CE2      -24.5550   48.1870   14.8030 C.ar   58  TYR58       0.0417
     37  CZ       -24.1570   48.6110   13.5470 C.ar   58  TYR58       0.1957
     38  OH       -23.8510   49.9360   13.3480 O.3    58  TYR58      -0.2866
     39  N        -28.3920   53.1380    0.7970 N.3   140  THR140     -0.1218
     40  CA       -27.2050   52.2980    0.8830 C.3   140  THR140      0.1862
     41  C        -27.0660   51.3050   -0.2690 C.2   140  THR140      0.2287
     42  O        -27.9980   50.5690   -0.5860 O.2   140  THR140     -0.2866
     43  CB       -27.1800   51.5040    2.1990 C.3   140  THR140      0.1770
     44  OG1      -27.1330   52.4140    3.3060 O.3   140  THR140     -0.2211
     45  CG2      -25.9630   50.5990    2.2500 C.3   140  THR140      0.0375
     46  N        -24.6270   55.6310    0.2570 N.3   166  LYS166     -0.1245
     47  CA       -23.7140   55.0620    1.2340 C.3   166  LYS166      0.1561
     48  C        -23.3050   53.6720    0.7600 C.2   166  LYS166      0.2260
     49  O        -24.1490   52.8030    0.5530 O.2   166  LYS166     -0.2867
     50  CB       -24.4110   54.9890    2.5940 C.3   166  LYS166      0.0271
     51  CG       -23.7280   54.1180    3.6280 C.3   166  LYS166      0.0035
     52  CD       -24.3840   54.3220    4.9850 C.3   166  LYS166      0.0206
     53  CE       -24.0020   53.2260    5.9590 C.3   166  LYS166      0.1093
     54  NZ       -24.4200   53.5520    7.3490 N.3   166  LYS166     -0.1314
     55  N        -21.3850   50.1480    1.3840 N.3   168  LYS168     -0.1245
     56  CA       -20.8800   49.2220    2.3870 C.3   168  LYS168      0.1561
     57  C        -19.6360   48.5290    1.8470 C.2   168  LYS168      0.2260
     58  O        -19.6670   47.9610    0.7550 O.2   168  LYS168     -0.2867
     59  CB       -21.9330   48.1610    2.7020 C.3   168  LYS168      0.0271
     60  CG       -23.1520   48.6850    3.4130 C.3   168  LYS168      0.0035
     61  CD       -22.7750   49.0970    4.8050 C.3   168  LYS168      0.0206
     62  CE       -23.9630   49.5820    5.5860 C.3   168  LYS168      0.1093
     63  NZ       -23.5470   49.8160    6.9840 N.3   168  LYS168     -0.1314
     64  N        -19.0590   53.1360    4.3380 N.3   197  ASP197     -0.1239
     65  CA       -19.2120   52.6460    5.7020 C.3   197  ASP197      0.1674
     66  C        -18.4300   51.3370    5.7420 C.2   197  ASP197      0.2266
     67  O        -18.7480   50.3970    5.0100 O.2   197  ASP197     -0.2867
     68  CB       -20.6810   52.3850    6.0340 C.3   197  ASP197      0.1410
     69  CG       -20.8870   51.9680    7.4830 C.2   197  ASP197      0.3668
     70  OD1      -19.8900   51.8650    8.2340 O.co2 197  ASP197     -0.2456
     71  OD2      -22.0490   51.7450    7.8750 O.co2 197  ASP197     -0.2456
     72  N        -17.9190   49.6270    8.6650 N.3   199  ASN199     -0.1240
     73  CA       -18.3810   48.8420    9.8070 C.3   199  ASN199      0.1653
     74  C        -17.2350   48.2550   10.6470 C.2   199  ASN199      0.2266
     75  O        -17.2610   47.0750   11.0000 O.2   199  ASN199     -0.2867
     76  CB       -19.3090   47.7080    9.3380 C.3   199  ASN199      0.1155
     77  CG       -20.6760   48.2110    8.8900 C.2   199  ASN199      0.2627
     78  OD1      -21.0250   48.1390    7.7090 O.2   199  ASN199     -0.2716
     79  ND2      -21.4550   48.7280    9.8350 N.am  199  ASN199     -0.0877
     80  N        -19.7900   55.7240   14.4080 N.3   248  ASP248     -0.1239
     81  CA       -21.0980   55.0810   14.4880 C.3   248  ASP248      0.1674
     82  C        -21.0270   54.0410   15.5980 C.2   248  ASP248      0.2266
     83  O        -21.5080   54.2860   16.7040 O.2   248  ASP248     -0.2867
     84  CB       -21.5040   54.4100   13.1750 C.3   248  ASP248      0.1410
     85  CG       -22.8110   53.6430   13.3090 C.2   248  ASP248      0.3668
     86  OD1      -23.5770   53.9500   14.2530 O.co2 248  ASP248     -0.2456
     87  OD2      -23.0800   52.7460   12.4830 O.co2 248  ASP248     -0.2456
     88  N        -28.1980   57.4210   16.4190 N.3   272  LYS272     -0.1245
     89  CA       -29.1130   56.2820   16.3550 C.3   272  LYS272      0.1561
     90  C        -29.8550   56.1180   17.6750 C.2   272  LYS272      0.2260
     91  O        -29.2360   55.9660   18.7250 O.2   272  LYS272     -0.2867
     92  CB       -28.3370   55.0040   16.0250 C.3   272  LYS272      0.0271
     93  CG       -27.6260   55.0770   14.6890 C.3   272  LYS272      0.0035
     94  CD       -27.0030   53.7480   14.2770 C.3   272  LYS272      0.0206
     95  CE       -26.3290   53.8850   12.9170 C.3   272  LYS272      0.1093
     96  NZ       -25.7860   52.5980   12.4080 N.3   272  LYS272     -0.1314
     97  N        -29.6200   55.0200   11.2990 N.3   300  THR300     -0.1203
     98  CA       -30.6500   53.9950   11.4490 C.3   300  THR300      0.1994
     99  C        -30.0530   52.6060   11.6900 C.2   300  THR300      0.2618
    100  O        -28.8890   52.3500   11.3690 O.2   300  THR300     -0.2717
    101  CB       -31.5310   53.9120   10.1710 C.3   300  THR300      0.1784
    102  OG1      -32.6250   53.0130   10.3890 O.3   300  THR300     -0.2211
    103  CG2      -30.7120   53.3960    8.9900 C.3   300  THR300      0.0376
    104  N        -30.8480   51.7180   12.2810 N.am  301  MET301     -0.1965
    105  CA       -30.4290   50.3340   12.4910 C.3   301  MET301      0.1736
    106  C        -31.3720   49.5130   11.6000 C.2   301  MET301      0.2616
    107  O        -31.6750   48.3460   11.8700 O.2   301  MET301     -0.2715
    108  CB       -30.5650   49.9210   13.9630 C.3   301  MET301      0.0427
    109  CG       -29.4210   50.4350   14.8770 C.3   301  MET301      0.0599
    110  SD       -27.7660   49.8750   14.3780 S.3   301  MET301     -0.1393
    111  CE       -28.0270   48.0720   14.3460 C.3   301  MET301      0.0692
    112  N        -31.8240   50.1590   10.5280 N.am  302  LEU302     -0.1977
    113  CA       -32.7340   49.5640    9.5550 C.3   302  LEU302      0.1596
    114  C        -34.0810   49.1810   10.1540 C.2   302  LEU302      0.2287
    115  O        -34.5960   48.0810    9.9290 O.2   302  LEU302     -0.2864
    116  CB       -32.0790   48.3550    8.8830 C.3   302  LEU302      0.0297
    117  CG       -30.8810   48.7280    8.0050 C.3   302  LEU302      0.0022
    118  CD1      -30.3340   47.4850    7.3240 C.3   302  LEU302      0.0001
    119  CD2      -31.3070   49.7550    6.9650 C.3   302  LEU302      0.0001
    120  N        -30.1410   58.6430    6.9460 N.3   326  GLU326     -0.1245
    121  CA       -30.2290   57.3820    6.2160 C.3   326  GLU326      0.1567
    122  C        -31.4900   56.6560    6.6690 C.2   326  GLU326      0.2260
    123  O        -31.4880   55.4440    6.8590 O.2   326  GLU326     -0.2867
    124  CB       -29.0030   56.5080    6.5030 C.3   326  GLU326      0.0388
    125  CG       -28.6480   56.4150    7.9810 C.3   326  GLU326      0.1160
    126  CD       -27.5250   55.4350    8.2590 C.2   326  GLU326      0.3649
    127  OE1      -26.6580   55.2500    7.3750 O.co2 326  GLU326     -0.2457
    128  OE2      -27.5010   54.8580    9.3680 O.co2 326  GLU326     -0.2457
    129  N        -33.9720   55.1050    5.5690 N.3   328  PHE328     -0.1241
    130  CA       -34.5710   54.3700    4.4510 C.3   328  PHE328      0.1605
    131  C        -35.0370   52.9650    4.8400 C.2   328  PHE328      0.2264
    132  O        -35.5150   52.2060    3.9950 O.2   328  PHE328     -0.2867
    133  CB       -33.5720   54.2780    3.2870 C.3   328  PHE328      0.0534
    134  CG       -32.3450   53.4510    3.5890 C.ar  328  PHE328     -0.0203
    135  CD1      -32.3780   52.0610    3.4900 C.ar  328  PHE328     -0.0042
    136  CD2      -31.1580   54.0630    3.9830 C.ar  328  PHE328     -0.0042
    137  CE1      -31.2490   51.2900    3.7790 C.ar  328  PHE328     -0.0003
    138  CE2      -30.0240   53.3040    4.2740 C.ar  328  PHE328     -0.0003
    139  CZ       -30.0700   51.9130    4.1720 C.ar  328  PHE328     -0.0000
@<TRIPOS>BOND
     1    42    41    2
     2    41    40    1
     3    46    47    1
     4    49    48    2
     5    58    57    2
     6    48    47    1
     7    39    40    1
     8    40    43    1
     9    47    50    1
    10    55    56    1
    11     1     2    1
    12    57    56    1
    13     8    10   ar
    14     8     6   ar
    15     2     3    1
    16     2     5    1
    17    43    45    1
    18    43    44    1
    19    56    59    1
    20    10     9   ar
    21    50    51    1
    22     3     4    2
    23    59    60    1
    24     6     5    1
    25     6     7   ar
    26   133   134    1
    27   133   130    1
    28    60    61    1
    29   135   134   ar
    30   135   137   ar
    31   134   136   ar
    32    51    52    1
    33     9     7   ar
    34   137   139   ar
    35   136   138   ar
    36   132   131    2
    37   139   138   ar
    38    64    65    1
    39   130   131    1
    40   130   129    1
    41    11    12    1
    42    61    62    1
    43    52    53    1
    44    67    66    2
    45    14    13    2
    46    12    13    1
    47    12    15    1
    48    62    63    1
    49    65    66    1
    50    65    68    1
    51    53    54    1
    52    68    69    1
    53    18    16    1
    54   121   124    1
    55   121   122    1
    56   121   120    1
    57   124   125    1
    58   122   123    2
    59    17    16    1
    60    15    16    1
    61   119   117    1
    62   118   117    1
    63   127   126   ar
    64    69    71   ar
    65    69    70   ar
    66    78    77    2
    67   125   126    1
    68   117   116    1
    69   126   128   ar
    70    72    73    1
    71   116   113    1
    72    77    76    1
    73    77    79   am
    74   103   101    1
    75    76    73    1
    76   113   114    1
    77   113   112    1
    78    73    74    1
    79   115   114    2
    80   101   102    1
    81   101    98    1
    82    25    23    1
    83    26    24    1
    84   112   106   am
    85    74    75    2
    86    24    23    1
    87    97    98    1
    88   100    99    2
    89    98    99    1
    90    23    20    1
    91   106   107    2
    92   106   105    1
    93    99   104   am
    94   104   105    1
    95    20    21    1
    96    20    19    1
    97    96    95    1
    98    87    85   ar
    99   105   108    1
   100    35    33   ar
   101    35    37   ar
   102    21    22    2
   103    33    32   ar
   104    95    94    1
   105    84    85    1
   106    84    81    1
   107    85    86   ar
   108    38    37    1
   109    37    36   ar
   110   108   109    1
   111    32    31    1
   112    32    34   ar
   113    31    28    1
   114    94    93    1
   115   111   110    1
   116   110   109    1
   117    80    81    1
   118    81    82    1
   119    93    92    1
   120    27    28    1
   121    36    34   ar
   122    28    29    1
   123    82    83    2
   124    92    89    1
   125    29    30    2
   126    89    88    1
   127    89    90    1
   128    90    91    2
