@<TRIPOS>MOLECULE
tmp/3fj7A00.pdb
 109 107 0 0 0
SMALL
GASTEIGER

@<TRIPOS>ATOM
      1  N        -32.5040    7.6710  -21.1890 N.3     7  PRO7       -0.2102
      2  CA       -32.4350    7.3890  -22.6170 C.3     7  PRO7        0.1504
      3  C        -33.4860    6.3890  -23.0760 C.2     7  PRO7        0.2576
      4  O        -33.9990    5.6070  -22.2720 O.2     7  PRO7       -0.2718
      5  CB       -31.0390    6.7790  -22.7780 C.3     7  PRO7        0.0282
      6  CG       -30.7730    6.1250  -21.4640 C.3     7  PRO7        0.0208
      7  CD       -31.4260    7.0070  -20.4340 C.3     7  PRO7        0.0893
      8  N        -33.8100    6.4230  -24.3630 N.am    8  GLY8       -0.1957
      9  CA       -34.5800    5.3480  -24.9610 C.3     8  GLY8        0.1869
     10  C        -33.7840    4.0700  -24.7930 C.2     8  GLY8        0.2309
     11  O        -32.5530    4.1000  -24.7520 O.2     8  GLY8       -0.2863
     12  N        -35.6340    9.4420  -24.0390 N.3    34  GLY34      -0.1210
     13  CA       -35.1280    9.9760  -25.2970 C.3    34  GLY34       0.1940
     14  C        -33.7650   10.6170  -25.1280 C.2    34  GLY34       0.2454
     15  O        -33.1700   10.5490  -24.0510 O.2    34  GLY34      -0.2732
     16  N        -33.2520   11.2350  -26.2010 N.am   35  PRO35      -0.2717
     17  CA       -32.0080   11.9840  -26.1060 C.3    35  PRO35       0.1535
     18  C        -32.1090   13.0360  -25.0060 C.2    35  PRO35       0.2598
     19  O        -33.1600   13.6570  -24.8370 O.2    35  PRO35      -0.2715
     20  CB       -31.8970   12.6480  -27.4810 C.3    35  PRO35       0.0310
     21  CG       -32.6460   11.7380  -28.3910 C.3    35  PRO35       0.0237
     22  CD       -33.7910   11.2190  -27.5720 C.3    35  PRO35       0.0939
     23  N        -31.0230   13.2250  -24.2650 N.am   36  GLN36      -0.1978
     24  CA       -31.0150   14.1240  -23.1140 C.3    36  GLN36       0.1601
     25  C        -31.5640   15.5130  -23.4350 C.2    36  GLN36       0.2287
     26  O        -32.2990   16.0960  -22.6390 O.2    36  GLN36      -0.2864
     27  CB       -29.5980   14.2410  -22.5470 C.3    36  GLN36       0.0394
     28  CG       -29.4740   15.1860  -21.3620 C.3    36  GLN36       0.0908
     29  CD       -28.0510   15.2750  -20.8390 C.2    36  GLN36       0.2608
     30  OE1      -27.1270   14.7100  -21.4240 O.2    36  GLN36      -0.2717
     31  NE2      -27.8690   15.9870  -19.7340 N.am   36  GLN36      -0.0878
     32  N        -28.4690    3.8790  -19.4440 N.3    53  ALA53      -0.1245
     33  CA       -28.3040    2.7150  -20.3090 C.3    53  ALA53       0.1562
     34  C        -26.8470    2.2620  -20.3390 C.2    53  ALA53       0.2260
     35  O        -26.4890    1.3230  -21.0520 O.2    53  ALA53      -0.2867
     36  CB       -28.7930    3.0290  -21.7130 C.3    53  ALA53       0.0290
     37  N        -22.4130    6.9360  -19.5380 N.3    57  SER57      -0.1217
     38  CA       -23.4340    7.8780  -19.9870 C.3    57  SER57       0.1889
     39  C        -24.2690    8.3860  -18.8120 C.2    57  SER57       0.2288
     40  O        -24.6460    9.5580  -18.7690 O.2    57  SER57      -0.2866
     41  CB       -24.3290    7.2560  -21.0650 C.3    57  SER57       0.2089
     42  OG       -25.0810    6.1700  -20.5570 O.3    57  SER57      -0.2183
     43  N        -24.3910   12.3110  -24.6470 N.3   117  ASN117     -0.1225
     44  CA       -24.2560   11.2650  -23.6450 C.3   117  ASN117      0.1785
     45  C        -25.0700   10.0300  -24.0180 C.2   117  ASN117      0.2598
     46  O        -26.2790    9.9710  -23.7920 O.2   117  ASN117     -0.2718
     47  CB       -24.6340   11.8010  -22.2620 C.3   117  ASN117      0.1169
     48  CG       -23.7450   12.9540  -21.8320 C.2   117  ASN117      0.2627
     49  OD1      -22.5620   12.9960  -22.1710 O.2   117  ASN117     -0.2716
     50  ND2      -24.3100   13.8980  -21.0870 N.am  117  ASN117     -0.0877
     51  N        -24.3820    9.0510  -24.6010 N.am  118  THR118     -0.1939
     52  CA       -25.0190    7.8670  -25.1620 C.3   118  THR118      0.2028
     53  C        -24.3610    6.5860  -24.6600 C.2   118  THR118      0.2642
     54  O        -23.1470    6.5350  -24.4680 O.2   118  THR118     -0.2714
     55  CB       -24.9390    7.8800  -26.6990 C.3   118  THR118      0.1808
     56  OG1      -25.2440    6.5750  -27.2060 O.3   118  THR118     -0.2208
     57  CG2      -23.5390    8.2760  -27.1530 C.3   118  THR118      0.0379
     58  N        -25.1680    5.5490  -24.4660 N.am  119  SER119     -0.1949
     59  CA       -24.6720    4.2700  -23.9710 C.3   119  SER119      0.1924
     60  C        -23.6310    3.6450  -24.8980 C.2   119  SER119      0.2314
     61  O        -22.9040    2.7390  -24.5000 O.2   119  SER119     -0.2863
     62  CB       -25.8320    3.2910  -23.7900 C.3   119  SER119      0.2116
     63  OG       -26.3530    2.8950  -25.0490 O.3   119  SER119     -0.2180
     64  N        -26.7520    9.0590  -30.7120 N.3   150  ASN150     -0.1225
     65  CA       -27.4780    8.1960  -29.7820 C.3   150  ASN150      0.1785
     66  C        -28.1550    7.0240  -30.4820 C.2   150  ASN150      0.2598
     67  O        -28.2340    6.9840  -31.7100 O.2   150  ASN150     -0.2718
     68  CB       -28.5070    9.0070  -28.9950 C.3   150  ASN150      0.1169
     69  CG       -29.3980    9.8370  -29.8920 C.2   150  ASN150      0.2627
     70  OD1      -30.0630    9.3110  -30.7860 O.2   150  ASN150     -0.2716
     71  ND2      -29.4180   11.1450  -29.6590 N.am  150  ASN150     -0.0877
     72  N        -28.6430    6.0730  -29.6920 N.am  151  SER151     -0.1938
     73  CA       -29.2570    4.8630  -30.2310 C.3   151  SER151      0.2055
     74  C        -30.4800    5.1710  -31.0920 C.2   151  SER151      0.2643
     75  O        -30.6960    4.5410  -32.1280 O.2   151  SER151     -0.2714
     76  CB       -29.6250    3.9000  -29.0980 C.3   151  SER151      0.2130
     77  OG       -28.4610    3.3710  -28.4840 O.3   151  SER151     -0.2179
     78  N        -31.2790    6.1430  -30.6630 N.am  152  GLY152     -0.1954
     79  CA       -32.4490    6.5520  -31.4290 C.3   152  GLY152      0.1869
     80  C        -32.0660    6.9680  -32.8360 C.2   152  GLY152      0.2309
     81  O        -32.7560    6.6360  -33.8020 O.2   152  GLY152     -0.2863
     82  N        -27.8090   -2.9600  -28.4510 N.3   169  TRP169     -0.1241
     83  CA       -28.0260   -3.7840  -27.2650 C.3   169  TRP169      0.1605
     84  C        -29.1780   -4.7480  -27.4920 C.2   169  TRP169      0.2264
     85  O        -30.1140   -4.4410  -28.2260 O.2   169  TRP169     -0.2867
     86  CB       -28.3480   -2.9020  -26.0620 C.3   169  TRP169      0.0550
     87  CG       -27.3010   -1.8830  -25.7840 C.ar  169  TRP169      0.0003
     88  CD1      -27.4120   -0.5310  -25.9250 C.ar  169  TRP169      0.0946
     89  CD2      -25.9700   -2.1330  -25.3280 C.ar  169  TRP169      0.0152
     90  NE1      -26.2310    0.0790  -25.5770 N.ar  169  TRP169     -0.2442
     91  CE2      -25.3290   -0.8840  -25.2070 C.ar  169  TRP169      0.0810
     92  CE3      -25.2580   -3.2920  -25.0050 C.ar  169  TRP169      0.0012
     93  CZ2      -24.0080   -0.7630  -24.7810 C.ar  169  TRP169      0.0191
     94  CZ3      -23.9480   -3.1690  -24.5810 C.ar  169  TRP169      0.0001
     95  CH2      -23.3370   -1.9140  -24.4720 C.ar  169  TRP169      0.0015
     96  N        -32.8470   -3.4910  -27.5150 N.3   172  TRP172     -0.1241
     97  CA       -33.3850   -2.7940  -28.6790 C.3   172  TRP172      0.1605
     98  C        -34.0500   -3.7740  -29.6410 C.2   172  TRP172      0.2264
     99  O        -35.0540   -3.4520  -30.2770 O.2   172  TRP172     -0.2867
    100  CB       -32.3020   -1.9710  -29.3830 C.3   172  TRP172      0.0550
    101  CG       -32.1370   -0.6040  -28.7870 C.ar  172  TRP172      0.0003
    102  CD1      -31.2460   -0.2290  -27.8230 C.ar  172  TRP172      0.0946
    103  CD2      -32.9040    0.5640  -29.1010 C.ar  172  TRP172      0.0152
    104  NE1      -31.4050    1.1040  -27.5240 N.ar  172  TRP172     -0.2442
    105  CE2      -32.4170    1.6130  -28.2960 C.ar  172  TRP172      0.0810
    106  CE3      -33.9510    0.8270  -29.9910 C.ar  172  TRP172      0.0012
    107  CZ2      -32.9410    2.9040  -28.3520 C.ar  172  TRP172      0.0191
    108  CZ3      -34.4720    2.1090  -30.0440 C.ar  172  TRP172      0.0001
    109  CH2      -33.9650    3.1310  -29.2310 C.ar  172  TRP172      0.0015
@<TRIPOS>BOND
     1    81    80    2
     2    80    79    1
     3    75    74    2
     4    67    66    2
     5    79    78    1
     6    74    78   am
     7    74    73    1
     8    70    69    2
     9    64    65    1
    10    66    65    1
    11    66    72   am
    12    99    98    2
    13    73    72    1
    14    73    76    1
    15   108   106   ar
    16   108   109   ar
    17   106   103   ar
    18    69    71   am
    19    69    68    1
    20    65    68    1
    21    98    97    1
    22   100   101    1
    23   100    97    1
    24   109   107   ar
    25   103   101   ar
    26   103   105   ar
    27    76    77    1
    28   101   102   ar
    29    97    96    1
    30    82    83    1
    31    21    22    1
    32    21    20    1
    33   107   105   ar
    34   105   104   ar
    35    85    84    2
    36   102   104   ar
    37    22    16    1
    38    84    83    1
    39    20    17    1
    40    83    86    1
    41    56    55    1
    42    57    55    1
    43    55    52    1
    44    16    17    1
    45    16    14   am
    46    17    18    1
    47    86    87    1
    48    88    87   ar
    49    88    90   ar
    50    87    89   ar
    51    90    91   ar
    52    89    91   ar
    53    89    92   ar
    54    13    14    1
    55    13    12    1
    56    91    93   ar
    57    52    53    1
    58    52    51    1
    59    14    15    2
    60    63    62    1
    61    18    19    2
    62    18    23   am
    63    92    94   ar
    64     9    10    1
    65     9     8    1
    66    60    61    2
    67    60    59    1
    68    10    11    2
    69    93    95   ar
    70    53    54    2
    71    53    58   am
    72    43    44    1
    73    51    45   am
    74    94    95   ar
    75    58    59    1
    76     8     3   am
    77    23    24    1
    78    45    46    2
    79    45    44    1
    80    59    62    1
    81    44    47    1
    82    25    24    1
    83    25    26    2
    84    24    27    1
    85     3     2    1
    86     3     4    2
    87     5     2    1
    88     5     6    1
    89     2     1    1
    90    27    28    1
    91    47    48    1
    92    49    48    2
    93    48    50   am
    94    36    33    1
    95     6     7    1
    96    30    29    2
    97    28    29    1
    98     1     7    1
    99    41    42    1
   100    41    38    1
   101    35    34    2
   102    29    31   am
   103    34    33    1
   104    33    32    1
   105    38    37    1
   106    38    39    1
   107    39    40    2
