@<TRIPOS>MOLECULE
tmp/3fjgD00.pdb
 120 119 0 0 0
SMALL
GASTEIGER

@<TRIPOS>ATOM
      1  N          5.9090   30.3330   35.5710 N.3     7  PRO7       -0.2102
      2  CA         5.9740   30.6760   34.1570 C.3     7  PRO7        0.1504
      3  C          7.3360   31.2190   33.7390 C.2     7  PRO7        0.2576
      4  O          8.0790   31.7550   34.5670 O.2     7  PRO7       -0.2718
      5  CB         4.9080   31.7660   34.0170 C.3     7  PRO7        0.0282
      6  CG         4.8460   32.4100   35.3600 C.3     7  PRO7        0.0208
      7  CD         5.1400   31.3200   36.3530 C.3     7  PRO7        0.0893
      8  N          7.6610   31.0680   32.4600 N.am    8  GLY8       -0.1957
      9  CA         8.8010   31.7620   31.8910 C.3     8  GLY8        0.1869
     10  C          8.5170   33.2450   31.9950 C.2     8  GLY8        0.2309
     11  O          7.3580   33.6550   32.0680 O.2     8  GLY8       -0.2863
     12  N         10.6570   26.3970   35.0380 N.3    33  PHE33      -0.1227
     13  CA         9.8170   27.3830   34.3700 C.3    33  PHE33       0.1736
     14  C          9.2400   26.8420   33.0690 C.2    33  PHE33       0.2596
     15  O          9.6930   25.8200   32.5560 O.2    33  PHE33      -0.2718
     16  CB        10.6150   28.6640   34.0920 C.3    33  PHE33       0.0547
     17  CG        11.7170   28.4910   33.0760 C.ar   33  PHE33      -0.0202
     18  CD1       12.9800   28.0670   33.4640 C.ar   33  PHE33      -0.0042
     19  CD2       11.4900   28.7610   31.7350 C.ar   33  PHE33      -0.0042
     20  CE1       13.9920   27.9070   32.5330 C.ar   33  PHE33      -0.0003
     21  CE2       12.4980   28.6050   30.7980 C.ar   33  PHE33      -0.0003
     22  CZ        13.7500   28.1760   31.1970 C.ar   33  PHE33      -0.0000
     23  N          8.2430   27.5450   32.5410 N.am   34  GLY34      -0.1943
     24  CA         7.6140   27.1780   31.2810 C.3    34  GLY34       0.1998
     25  C          6.1080   27.2320   31.4100 C.2    34  GLY34       0.2481
     26  O          5.5890   27.6940   32.4280 O.2    34  GLY34      -0.2729
     27  N          5.3930   26.7690   30.3720 N.am   35  PRO35      -0.2715
     28  CA         3.9390   26.6620   30.4540 C.3    35  PRO35       0.1536
     29  C          3.5720   25.6830   31.5530 C.2    35  PRO35       0.2598
     30  O          4.2350   24.6600   31.7020 O.2    35  PRO35      -0.2715
     31  CB         3.5470   26.0800   29.0910 C.3    35  PRO35       0.0310
     32  CG         4.7150   26.3520   28.1940 C.3    35  PRO35       0.0237
     33  CD         5.9170   26.3010   29.0780 C.3    35  PRO35       0.0939
     34  N          2.5270   25.9900   32.3120 N.am   36  GLN36      -0.1978
     35  CA         2.1150   25.1380   33.4250 C.3    36  GLN36       0.1601
     36  C          2.1110   23.6510   33.0720 C.2    36  GLN36       0.2287
     37  O          2.5790   22.8230   33.8540 O.2    36  GLN36      -0.2864
     38  CB         0.7410   25.5580   33.9570 C.3    36  GLN36       0.0394
     39  CG         0.2390   24.6850   35.1040 C.3    36  GLN36       0.0908
     40  CD        -1.0660   25.1830   35.6910 C.2    36  GLN36       0.2608
     41  OE1       -1.7120   26.0690   35.1320 O.2    36  GLN36      -0.2717
     42  NE2       -1.4650   24.6110   36.8210 N.am   36  GLN36      -0.0878
     43  N          3.4720   35.3140   37.3110 N.3    53  ALA53      -0.1245
     44  CA         3.7100   36.4390   36.4130 C.3    53  ALA53       0.1562
     45  C          2.5640   37.4610   36.4530 C.2    53  ALA53       0.2260
     46  O          2.6130   38.4920   35.7840 O.2    53  ALA53      -0.2867
     47  CB         3.9510   35.9380   34.9910 C.3    53  ALA53       0.0290
     48  N         -3.3240   34.8530   37.3680 N.3    57  SER57      -0.1217
     49  CA        -2.7470   33.5930   36.9010 C.3    57  SER57       0.1889
     50  C         -2.1330   32.7840   38.0420 C.2    57  SER57       0.2288
     51  O         -2.2260   31.5580   38.0560 O.2    57  SER57      -0.2866
     52  CB        -1.7210   33.8230   35.7830 C.3    57  SER57       0.2089
     53  OG        -0.6330   34.6190   36.2190 O.3    57  SER57      -0.2183
     54  N         -3.7320   29.1420   32.2420 N.3   117  ASN117     -0.1225
     55  CA        -3.4180   30.1640   33.2280 C.3   117  ASN117      0.1785
     56  C         -2.2270   31.0100   32.7980 C.2   117  ASN117      0.2598
     57  O         -1.0750   30.6340   33.0120 O.2   117  ASN117     -0.2718
     58  CB        -3.1780   29.5220   34.5950 C.3   117  ASN117      0.1169
     59  CG        -4.3960   28.7730   35.1000 C.2   117  ASN117      0.2627
     60  OD1       -5.5310   29.1780   34.8500 O.2   117  ASN117     -0.2716
     61  ND2       -4.1680   27.6750   35.8110 N.am  117  ASN117     -0.0877
     62  N         -2.5180   32.1550   32.1850 N.am  118  THR118     -0.1939
     63  CA        -1.4870   33.0250   31.6350 C.3   118  THR118      0.2028
     64  C         -1.6080   34.4570   32.1600 C.2   118  THR118      0.2642
     65  O         -2.7100   34.9430   32.4250 O.2   118  THR118     -0.2714
     66  CB        -1.5110   33.0300   30.0830 C.3   118  THR118      0.1808
     67  OG1       -0.6520   34.0670   29.5910 O.3   118  THR118     -0.2208
     68  CG2       -2.9230   33.2590   29.5590 C.3   118  THR118      0.0379
     69  N         -0.4660   35.1220   32.3080 N.am  119  SER119     -0.1949
     70  CA        -0.4240   36.4970   32.8020 C.3   119  SER119      0.1924
     71  C         -1.1040   37.4910   31.8630 C.2   119  SER119      0.2314
     72  O         -1.4230   38.6090   32.2610 O.2   119  SER119     -0.2863
     73  CB         1.0250   36.9300   33.0270 C.3   119  SER119      0.2116
     74  OG         1.7510   36.9230   31.8070 O.3   119  SER119     -0.2180
     75  N         -0.6580   31.2850   26.0400 N.3   150  ASN150     -0.1225
     76  CA         0.3870   31.7480   26.9480 C.3   150  ASN150      0.1785
     77  C          1.4580   32.5770   26.2430 C.2   150  ASN150      0.2598
     78  O          1.4660   32.6750   25.0160 O.2   150  ASN150     -0.2718
     79  CB         1.0060   30.5590   27.6980 C.3   150  ASN150      0.1169
     80  CG         1.6950   29.5730   26.7700 C.2   150  ASN150      0.2627
     81  OD1        2.6980   29.8990   26.1360 O.2   150  ASN150     -0.2716
     82  ND2        1.1690   28.3550   26.7010 N.am  150  ASN150     -0.0877
     83  N          2.3550   33.1790   27.0220 N.am  151  SER151     -0.1938
     84  CA         3.4080   34.0280   26.4650 C.3   151  SER151      0.2055
     85  C          4.3770   33.2450   25.5770 C.2   151  SER151      0.2643
     86  O          4.8510   33.7540   24.5620 O.2   151  SER151     -0.2714
     87  CB         4.1700   34.7480   27.5800 C.3   151  SER151      0.2130
     88  OG         3.3670   35.7490   28.1800 O.3   151  SER151     -0.2179
     89  N          4.6700   32.0080   25.9630 N.am  152  GLY152     -0.1954
     90  CA         5.5250   31.1530   25.1520 C.3   152  GLY152      0.1869
     91  C          4.9710   30.9850   23.7490 C.2   152  GLY152      0.2309
     92  O          5.7190   30.9720   22.7730 O.2   152  GLY152     -0.2863
     93  N          5.2930   41.8960   28.3200 N.3   169  TRP169     -0.1241
     94  CA         5.8210   42.6010   29.4840 C.3   169  TRP169      0.1605
     95  C          7.2470   43.0870   29.2520 C.2   169  TRP169      0.2264
     96  O          8.0160   42.4640   28.5230 O.2   169  TRP169     -0.2867
     97  CB         5.7770   41.6880   30.7050 C.3   169  TRP169      0.0550
     98  CG         4.4300   41.1010   30.9320 C.ar  169  TRP169      0.0003
     99  CD1        4.0320   39.8240   30.6610 C.ar  169  TRP169      0.0946
    100  CD2        3.2900   41.7740   31.4690 C.ar  169  TRP169      0.0152
    101  NE1        2.7130   39.6590   31.0050 N.ar  169  TRP169     -0.2442
    102  CE2        2.2330   40.8420   31.5030 C.ar  169  TRP169      0.0810
    103  CE3        3.0600   43.0730   31.9300 C.ar  169  TRP169      0.0012
    104  CZ2        0.9640   41.1690   31.9790 C.ar  169  TRP169      0.0191
    105  CZ3        1.8020   43.3960   32.4020 C.ar  169  TRP169      0.0001
    106  CH2        0.7680   42.4480   32.4210 C.ar  169  TRP169      0.0015
    107  N         10.1220   40.5600   29.3930 N.3   172  TRP172     -0.1241
    108  CA        10.3350   39.6830   28.2470 C.3   172  TRP172      0.1605
    109  C         11.3150   40.3180   27.2660 C.2   172  TRP172      0.2264
    110  O         12.1640   39.6370   26.6930 O.2   172  TRP172     -0.2867
    111  CB         9.0130   39.3550   27.5470 C.3   172  TRP172      0.0550
    112  CG         8.2990   38.1830   28.1420 C.ar  172  TRP172      0.0003
    113  CD1        7.3680   38.2090   29.1390 C.ar  172  TRP172      0.0946
    114  CD2        8.4600   36.8050   27.7790 C.ar  172  TRP172      0.0152
    115  NE1        6.9390   36.9330   29.4190 N.ar  172  TRP172     -0.2442
    116  CE2        7.5930   36.0530   28.5970 C.ar  172  TRP172      0.0810
    117  CE3        9.2510   36.1360   26.8410 C.ar  172  TRP172      0.0012
    118  CZ2        7.4980   34.6640   28.5070 C.ar  172  TRP172      0.0191
    119  CZ3        9.1530   34.7580   26.7510 C.ar  172  TRP172      0.0001
    120  CH2        8.2820   34.0370   27.5790 C.ar  172  TRP172      0.0015
@<TRIPOS>BOND
     1    92    91    2
     2    91    90    1
     3    86    85    2
     4    78    77    2
     5    90    89    1
     6    85    89   am
     7    85    84    1
     8    75    76    1
     9    81    80    2
    10    77    76    1
    11    77    83   am
    12    84    83    1
    13    84    87    1
    14   110   109    2
    15    82    80   am
    16   119   117   ar
    17   119   120   ar
    18    80    79    1
    19   117   114   ar
    20    76    79    1
    21   109   108    1
    22   111   112    1
    23   111   108    1
    24   120   118   ar
    25    87    88    1
    26   114   112   ar
    27   114   116   ar
    28   112   113   ar
    29    32    33    1
    30    32    31    1
    31   108   107    1
    32    93    94    1
    33   118   116   ar
    34    96    95    2
    35   116   115   ar
    36    33    27    1
    37    31    28    1
    38   113   115   ar
    39    95    94    1
    40    94    97    1
    41    68    66    1
    42    67    66    1
    43    66    63    1
    44    27    28    1
    45    27    25   am
    46    28    29    1
    47    99    98   ar
    48    99   101   ar
    49    97    98    1
    50    21    22   ar
    51    21    19   ar
    52    98   100   ar
    53   101   102   ar
    54    22    20   ar
    55    24    25    1
    56    24    23    1
    57    25    26    2
    58   100   102   ar
    59   100   103   ar
    60   102   104   ar
    61    29    30    2
    62    29    34   am
    63    63    64    1
    64    63    62    1
    65    19    17   ar
    66    74    73    1
    67    71    72    2
    68    71    70    1
    69     9    10    1
    70     9     8    1
    71   103   105   ar
    72   104   106   ar
    73    10    11    2
    74    64    69   am
    75    64    65    2
    76    62    56   am
    77    54    55    1
    78    69    70    1
    79    34    35    1
    80   105   106   ar
    81     8     3   am
    82    20    18   ar
    83    23    14   am
    84    15    14    2
    85    56    57    2
    86    56    55    1
    87    70    73    1
    88    14    13    1
    89    36    35    1
    90    36    37    2
    91    17    18   ar
    92    17    16    1
    93    55    58    1
    94    35    38    1
    95     3     2    1
    96     3     4    2
    97    38    39    1
    98     5     2    1
    99     5     6    1
   100    16    13    1
   101     2     1    1
   102    13    12    1
   103    58    59    1
   104    60    59    2
   105    47    44    1
   106    59    61   am
   107    39    40    1
   108    41    40    2
   109     6     7    1
   110     1     7    1
   111    40    42   am
   112    52    53    1
   113    52    49    1
   114    46    45    2
   115    44    45    1
   116    44    43    1
   117    49    48    1
   118    49    50    1
   119    50    51    2
