@<TRIPOS>MOLECULE
tmp/3fjlA02.pdb
 195 187 0 0 0
SMALL
GASTEIGER

@<TRIPOS>ATOM
      1  N          5.6370  -24.4220   -7.5540 N.3     6  TYR6       -0.1241
      2  CA         5.3910  -25.7760   -7.0510 C.3     6  TYR6        0.1605
      3  C          4.1780  -26.4510   -7.6820 C.2     6  TYR6        0.2264
      4  O          4.2760  -27.5820   -8.1440 O.2     6  TYR6       -0.2867
      5  CB         5.2760  -25.7770   -5.5270 C.3     6  TYR6        0.0534
      6  CG         6.6150  -25.8700   -4.8420 C.ar    6  TYR6       -0.0201
      7  CD1        7.3840  -24.7260   -4.6150 C.ar    6  TYR6       -0.0009
      8  CD2        7.1220  -27.1030   -4.4330 C.ar    6  TYR6       -0.0009
      9  CE1        8.6180  -24.8030   -3.9880 C.ar    6  TYR6        0.0417
     10  CE2        8.3520  -27.1940   -3.8080 C.ar    6  TYR6        0.0417
     11  CZ         9.0920  -26.0410   -3.5900 C.ar    6  TYR6        0.1957
     12  OH        10.3080  -26.1240   -2.9760 O.3     6  TYR6       -0.2866
     13  N          7.1670  -27.8160  -10.3810 N.3    10  LEU10      -0.1231
     14  CA         7.9280  -28.8030   -9.6030 C.3    10  LEU10       0.1693
     15  C          7.1720  -30.1080   -9.3620 C.2    10  LEU10       0.2591
     16  O          7.6720  -31.1920   -9.6910 O.2    10  LEU10      -0.2718
     17  CB         8.4370  -28.2240   -8.2740 C.3    10  LEU10       0.0284
     18  CG         9.7220  -27.3880   -8.2750 C.3    10  LEU10       0.0019
     19  CD1       10.3260  -27.3830   -6.8770 C.3    10  LEU10       0.0001
     20  CD2       10.7780  -27.8700   -9.2990 C.3    10  LEU10       0.0001
     21  N          5.9740  -29.9930   -8.7930 N.am   11  MET11      -0.1979
     22  CA         5.1470  -31.1610   -8.4690 C.3    11  MET11       0.1605
     23  C          4.7200  -31.9690   -9.7070 C.2    11  MET11       0.2287
     24  O          4.9220  -33.1820   -9.7320 O.2    11  MET11      -0.2864
     25  CB         3.9460  -30.7770   -7.5860 C.3    11  MET11       0.0413
     26  CG         4.3470  -30.1410   -6.2500 C.3    11  MET11       0.0598
     27  SD         5.4670  -31.1680   -5.2700 S.3    11  MET11      -0.1393
     28  CE         4.3540  -32.4730   -4.7240 C.3    11  MET11       0.0692
     29  N          7.8400  -33.7950  -10.8820 N.3    14  LEU14      -0.1231
     30  CA         8.0870  -34.9010   -9.9630 C.3    14  LEU14       0.1693
     31  C          7.1110  -36.0560  -10.2050 C.2    14  LEU14       0.2591
     32  O          7.5290  -37.2120  -10.2530 O.2    14  LEU14      -0.2718
     33  CB         8.0030  -34.4170   -8.5070 C.3    14  LEU14       0.0284
     34  CG         7.8850  -35.4510   -7.3750 C.3    14  LEU14       0.0019
     35  CD1        9.0980  -36.3550   -7.3080 C.3    14  LEU14       0.0001
     36  CD2        7.6840  -34.7450   -6.0440 C.3    14  LEU14       0.0001
     37  N          5.8250  -35.7270  -10.3510 N.am   15  GLN15      -0.1979
     38  CA         4.7580  -36.7210  -10.5530 C.3    15  GLN15       0.1601
     39  C          4.8960  -37.4140  -11.9210 C.2    15  GLN15       0.2287
     40  O          4.4770  -38.5560  -12.0870 O.2    15  GLN15      -0.2864
     41  CB         3.3510  -36.0940  -10.3790 C.3    15  GLN15       0.0394
     42  CG         3.0440  -35.5270   -8.9610 C.3    15  GLN15       0.0908
     43  CD         1.5380  -35.2340   -8.6860 C.2    15  GLN15       0.2608
     44  OE1        0.8510  -34.5840   -9.4960 O.2    15  GLN15      -0.2717
     45  NE2        1.0310  -35.7050   -7.5260 N.am   15  GLN15      -0.0878
     46  N          4.0830  -42.8530   -7.4440 N.3    20  PRO20      -0.2116
     47  CA         3.6970  -42.1770   -6.1960 C.3    20  PRO20       0.1372
     48  C          4.5060  -42.6300   -4.9740 C.2    20  PRO20       0.2244
     49  O          4.9200  -41.7910   -4.2000 O.2    20  PRO20      -0.2868
     50  CB         2.2220  -42.5590   -6.0460 C.3    20  PRO20       0.0268
     51  CG         1.7700  -42.7840   -7.4340 C.3    20  PRO20       0.0207
     52  CD         2.9180  -43.5060   -8.0700 C.3    20  PRO20       0.0892
     53  N          7.9830  -41.1410   -5.1190 N.3    23  ALA23      -0.1231
     54  CA         7.8750  -39.7090   -4.8450 C.3    23  ALA23       0.1694
     55  C          7.7390  -39.4660   -3.3280 C.2    23  ALA23       0.2592
     56  O          8.3760  -38.5730   -2.7760 O.2    23  ALA23      -0.2718
     57  CB         6.6770  -39.1210   -5.5980 C.3    23  ALA23       0.0304
     58  N          6.9050  -40.2740   -2.6820 N.am   24  HIS24      -0.1976
     59  CA         6.7150  -40.2060   -1.2330 C.3    24  HIS24       0.1656
     60  C          8.0480  -40.4120   -0.5010 C.2    24  HIS24       0.2291
     61  O          8.4540  -39.5980    0.3320 O.2    24  HIS24      -0.2864
     62  CB         5.6840  -41.2510   -0.8020 C.3    24  HIS24       0.0771
     63  CG         5.4150  -41.2630    0.6710 C.ar   24  HIS24       0.0820
     64  ND1        4.7250  -42.2860    1.2870 N.ar   24  HIS24      -0.2267
     65  CD2        5.7230  -40.3700    1.6460 C.ar   24  HIS24       0.1154
     66  CE1        4.6350  -42.0290    2.5840 C.ar   24  HIS24       0.1986
     67  NE2        5.2520  -40.8830    2.8270 N.ar   24  HIS24      -0.2212
     68  N         10.3560  -37.5110   -1.0250 N.3    27  ALA27      -0.1245
     69  CA         9.7950  -36.4520   -0.1880 C.3    27  ALA27       0.1562
     70  C         10.2290  -36.5970    1.2810 C.2    27  ALA27       0.2260
     71  O         10.6170  -35.6200    1.9070 O.2    27  ALA27      -0.2867
     72  CB         8.2710  -36.4450   -0.2770 C.3    27  ALA27       0.0290
     73  N         14.0320  -35.9260    1.4650 N.3    30  PHE30      -0.1227
     74  CA        14.3230  -34.5300    1.2460 C.3    30  PHE30       0.1736
     75  C         13.9480  -33.6660    2.4480 C.2    30  PHE30       0.2596
     76  O         14.6950  -32.7370    2.8270 O.2    30  PHE30      -0.2718
     77  CB        13.5640  -34.0480    0.0230 C.3    30  PHE30       0.0547
     78  CG        13.9660  -32.6980   -0.4230 C.ar   30  PHE30      -0.0202
     79  CD1       15.1970  -32.5000   -1.0430 C.ar   30  PHE30      -0.0042
     80  CD2       13.1200  -31.6110   -0.2270 C.ar   30  PHE30      -0.0042
     81  CE1       15.5910  -31.2320   -1.4670 C.ar   30  PHE30      -0.0003
     82  CE2       13.4990  -30.3350   -0.6560 C.ar   30  PHE30      -0.0003
     83  CZ        14.7450  -30.1490   -1.2800 C.ar   30  PHE30      -0.0000
     84  N         12.7760  -33.9510    3.0170 N.am   31  THR31      -0.1953
     85  CA        12.2820  -33.2310    4.1880 C.3    31  THR31       0.1897
     86  C         13.2180  -33.4470    5.3830 C.2    31  THR31       0.2313
     87  O         13.5420  -32.4970    6.0950 O.2    31  THR31      -0.2863
     88  CB        10.8370  -33.6790    4.5630 C.3    31  THR31       0.1794
     89  OG1        9.9730  -33.4340    3.4490 O.3    31  THR31      -0.2208
     90  CG2       10.3210  -32.9060    5.7810 C.3    31  THR31       0.0378
     91  N         14.4150  -27.1580    2.0620 N.3    36  LEU36      -0.1231
     92  CA        13.0060  -26.8510    1.8090 C.3    36  LEU36       0.1678
     93  C         12.8300  -25.3780    1.4400 C.2    36  LEU36       0.2434
     94  O         13.6960  -24.5520    1.7660 O.2    36  LEU36      -0.2733
     95  CB        12.1550  -27.1800    3.0560 C.3    36  LEU36       0.0284
     96  CG        12.0810  -28.6250    3.5720 C.3    36  LEU36       0.0019
     97  CD1       11.8900  -28.7030    5.0900 C.3    36  LEU36       0.0001
     98  CD2       11.0000  -29.4000    2.8250 C.3    36  LEU36       0.0001
     99  N         11.7050  -25.0380    0.7680 N.am   37  PRO37      -0.2729
    100  CA        11.3920  -23.6380    0.4610 C.3    37  PRO37       0.1401
    101  C         10.9290  -22.8680    1.7010 C.2    37  PRO37       0.2269
    102  O         11.3290  -23.2010    2.8240 O.2    37  PRO37      -0.2865
    103  CB        10.2420  -23.7560   -0.5430 C.3    37  PRO37       0.0296
    104  CG         9.5490  -25.0120   -0.1480 C.3    37  PRO37       0.0237
    105  CD        10.6600  -25.9500    0.2540 C.3    37  PRO37       0.0939
    106  N          2.4460  -39.7600    6.2720 N.3    63  PHE63      -0.1241
    107  CA         3.5150  -39.1480    5.4900 C.3    63  PHE63       0.1605
    108  C          4.8730  -39.5490    6.0650 C.2    63  PHE63       0.2264
    109  O          5.7610  -40.0410    5.3440 O.2    63  PHE63      -0.2867
    110  CB         3.4180  -37.6370    5.4300 C.3    63  PHE63       0.0534
    111  CG         4.6080  -37.0180    4.7640 C.ar   63  PHE63      -0.0203
    112  CD1        4.8000  -37.1580    3.3730 C.ar   63  PHE63      -0.0042
    113  CD2        5.5930  -36.3910    5.5220 C.ar   63  PHE63      -0.0042
    114  CE1        5.9370  -36.6060    2.7520 C.ar   63  PHE63      -0.0003
    115  CE2        6.7400  -35.8320    4.9040 C.ar   63  PHE63      -0.0003
    116  CZ         6.9020  -35.9580    3.5230 C.ar   63  PHE63      -0.0000
    117  N          8.7990  -26.9230    7.7350 N.3    76  MET76      -0.1245
    118  CA         7.7980  -26.6690    6.6960 C.3    76  MET76       0.1570
    119  C          6.6640  -25.7480    7.1980 C.2    76  MET76       0.2261
    120  O          5.8950  -25.1920    6.4020 O.2    76  MET76      -0.2867
    121  CB         7.2350  -28.0150    6.2270 C.3    76  MET76       0.0387
    122  CG         6.8700  -28.0660    4.7820 C.3    76  MET76       0.0595
    123  SD         6.4250  -29.7100    4.2040 S.3    76  MET76      -0.1393
    124  CE         7.9550  -30.5930    4.2470 C.3    76  MET76       0.0692
    125  N          0.0340  -47.3700   -3.9470 N.3    99  VAL99      -0.1245
    126  CA        -0.3800  -45.9540   -3.8630 C.3    99  VAL99       0.1561
    127  C         -0.6760  -45.4860   -5.2810 C.2    99  VAL99       0.2260
    128  O          0.0590  -45.8370   -6.2240 O.2    99  VAL99      -0.2867
    129  CB         0.7150  -44.9890   -3.3080 C.3    99  VAL99       0.0252
    130  CG1        0.0540  -43.6430   -2.8990 C.3    99  VAL99       0.0019
    131  CG2        1.4580  -45.6040   -2.1450 C.3    99  VAL99       0.0019
    132  N         -2.4010  -42.1150   -7.7600 N.3   101  ARG101     -0.1245
    133  CA        -2.7970  -40.7090   -7.7810 C.3   101  ARG101      0.1563
    134  C         -4.0100  -40.5660   -8.6950 C.2   101  ARG101      0.2260
    135  O         -4.0860  -41.2490   -9.7200 O.2   101  ARG101     -0.2867
    136  CB        -1.6770  -39.8380   -8.3350 C.3   101  ARG101      0.0307
    137  CG        -0.3890  -39.7620   -7.5430 C.3   101  ARG101      0.0489
    138  CD         0.5490  -38.9230   -8.4280 C.3   101  ARG101      0.2205
    139  NE         1.8550  -38.5820   -7.8830 N.pl3 101  ARG101     -0.0865
    140  CZ         3.0450  -39.0210   -8.3240 C.cat 101  ARG101      0.5346
    141  NH1        3.1610  -39.8930   -9.3330 N.pl3 101  ARG101      0.1354
    142  NH2        4.1380  -38.5690   -7.7270 N.pl3 101  ARG101      0.1354
    143  N         -5.9420  -39.2180   -3.7610 N.3   108  VAL108     -0.1245
    144  CA        -5.0230  -40.3520   -3.7300 C.3   108  VAL108      0.1561
    145  C         -5.7990  -41.5780   -3.2450 C.2   108  VAL108      0.2260
    146  O         -6.7240  -41.4270   -2.4290 O.2   108  VAL108     -0.2867
    147  CB        -3.7500  -40.0360   -2.8290 C.3   108  VAL108      0.0252
    148  CG1       -2.9840  -41.2940   -2.4230 C.3   108  VAL108      0.0019
    149  CG2       -2.8060  -39.0300   -3.5520 C.3   108  VAL108      0.0019
    150  N         -1.2380  -49.1310    1.5380 N.3   112  TYR112     -0.1241
    151  CA         0.0680  -49.4940    2.1120 C.3   112  TYR112      0.1605
    152  C          0.0410  -50.7210    3.0240 C.2   112  TYR112      0.2264
    153  O          0.9300  -51.5820    2.9330 O.2   112  TYR112     -0.2867
    154  CB         0.6390  -48.3150    2.8880 C.3   112  TYR112      0.0534
    155  CG         1.5170  -47.3900    2.1060 C.ar  112  TYR112     -0.0201
    156  CD1        1.1120  -46.0810    1.8310 C.ar  112  TYR112     -0.0009
    157  CD2        2.7790  -47.8050    1.6550 C.ar  112  TYR112     -0.0009
    158  CE1        1.9460  -45.2010    1.1370 C.ar  112  TYR112      0.0417
    159  CE2        3.6150  -46.9390    0.9450 C.ar  112  TYR112      0.0417
    160  CZ         3.1970  -45.6430    0.7010 C.ar  112  TYR112      0.1957
    161  OH         4.0320  -44.7800    0.0200 O.3   112  TYR112     -0.2866
    162  N         -2.6270  -34.1200    4.4360 N.3   321  TYR321     -0.1241
    163  CA        -1.5300  -34.8670    3.8420 C.3   321  TYR321      0.1605
    164  C         -1.6560  -34.7370    2.3230 C.2   321  TYR321      0.2264
    165  O         -0.7690  -34.1610    1.6670 O.2   321  TYR321     -0.2867
    166  CB        -1.5200  -36.3160    4.3480 C.3   321  TYR321      0.0534
    167  CG        -0.4870  -37.2600    3.7390 C.ar  321  TYR321     -0.0201
    168  CD1       -0.4920  -38.6060    4.0910 C.ar  321  TYR321     -0.0009
    169  CD2        0.4890  -36.8180    2.8130 C.ar  321  TYR321     -0.0009
    170  CE1        0.4210  -39.4830    3.5590 C.ar  321  TYR321      0.0417
    171  CE2        1.4270  -37.7090    2.2660 C.ar  321  TYR321      0.0417
    172  CZ         1.3820  -39.0370    2.6430 C.ar  321  TYR321      0.1957
    173  OH         2.2830  -39.9420    2.1410 O.3   321  TYR321     -0.2866
    174  N         -0.4530  -31.7490    0.2120 N.3   324  LEU324     -0.1231
    175  CA         1.0180  -31.6100    0.0980 C.3   324  LEU324      0.1693
    176  C          1.5730  -32.3410   -1.1380 C.2   324  LEU324      0.2592
    177  O          2.5390  -31.8940   -1.7730 O.2   324  LEU324     -0.2718
    178  CB         1.7000  -32.0880    1.4020 C.3   324  LEU324      0.0284
    179  CG         3.2230  -32.0900    1.4720 C.3   324  LEU324      0.0019
    180  CD1        3.7070  -30.6220    1.5740 C.3   324  LEU324      0.0001
    181  CD2        3.7040  -32.9310    2.6790 C.3   324  LEU324      0.0001
    182  N          0.9450  -33.4540   -1.4950 N.am  325  THR325     -0.1953
    183  CA         1.3640  -34.2560   -2.6450 C.3   325  THR325      0.1897
    184  C          0.9810  -33.6140   -3.9820 C.2   325  THR325      0.2313
    185  O          1.5620  -33.9460   -5.0150 O.2   325  THR325     -0.2863
    186  CB         0.8220  -35.7130   -2.5710 C.3   325  THR325      0.1794
    187  OG1       -0.5140  -35.7380   -3.0790 O.3   325  THR325     -0.2208
    188  CG2        0.8550  -36.2450   -1.1250 C.3   325  THR325      0.0378
    189  N          5.2180  -28.1470   -0.4220 N.3   329  PRO329     -0.2116
    190  CA         5.3720  -27.3850    0.8330 C.3   329  PRO329      0.1372
    191  C          4.6960  -25.9910    0.9150 C.2   329  PRO329      0.2244
    192  O          4.2530  -25.6220    2.0050 O.2   329  PRO329     -0.2868
    193  CB         6.9000  -27.2990    1.0090 C.3   329  PRO329      0.0268
    194  CG         7.3950  -28.5730    0.3450 C.3   329  PRO329      0.0207
    195  CD         6.5120  -28.6900   -0.8930 C.3   329  PRO329      0.0892
@<TRIPOS>BOND
     1    40    39    2
     2    39    38    1
     3    29    30    1
     4    38    41    1
     5    38    37    1
     6    13    14    1
     7    41    42    1
     8    37    31   am
     9    32    31    2
    10    31    30    1
    11    30    33    1
    12    24    23    2
    13   135   134    2
    14    23    22    1
    15    16    15    2
    16    14    15    1
    17    14    17    1
    18    44    43    2
    19    15    21   am
    20   141   140    1
    21    20    18    1
    22    42    43    1
    23    21    22    1
    24   134   133    1
    25    43    45   am
    26    33    34    1
    27    22    25    1
    28   138   139    1
    29   138   137    1
    30   136   133    1
    31   136   137    1
    32   140   139    2
    33   140   142    1
    34    18    17    1
    35    18    19    1
    36     4     3    2
    37    52    46    1
    38    52    51    1
    39   133   132    1
    40     3     2    1
    41    25    26    1
    42     1     2    1
    43    46    47    1
    44    51    50    1
    45    34    35    1
    46    34    36    1
    47     2     5    1
    48    26    27    1
    49   128   127    2
    50    47    50    1
    51    47    48    1
    52    57    54    1
    53     5     6    1
    54   127   126    1
    55    27    28    1
    56    53    54    1
    57   185   184    2
    58    48    49    2
    59    54    55    1
    60     6     7   ar
    61     6     8   ar
    62     7     9   ar
    63     8    10   ar
    64     9    11   ar
    65   184   183    1
    66   125   126    1
    67   126   129    1
    68    10    11   ar
    69   143   144    1
    70   144   145    1
    71   144   147    1
    72    11    12    1
    73   149   147    1
    74    55    56    2
    75    55    58   am
    76   129   130    1
    77   129   131    1
    78   145   146    2
    79   187   186    1
    80   147   148    1
    81    58    59    1
    82   183   186    1
    83   183   182    1
    84   186   188    1
    85   177   176    2
    86   182   176   am
    87    81    83   ar
    88    81    79   ar
    89    83    82   ar
    90    59    62    1
    91    59    60    1
    92   176   175    1
    93    79    78   ar
    94    68    69    1
    95   195   189    1
    96   195   194    1
    97    62    63    1
    98    82    80   ar
    99   103   104    1
   100   103   100    1
   101    60    61    2
   102    78    80   ar
   103    78    77    1
   104   189   190    1
   105    72    69    1
   106    69    70    1
   107   104   105    1
   108   161   160    1
   109    77    74    1
   110   175   174    1
   111   175   178    1
   112   105    99    1
   113   194   193    1
   114   100    99    1
   115   100   101    1
   116    63    64   ar
   117    63    65   ar
   118   160   159   ar
   119   160   158   ar
   120    99    93   am
   121   190   191    1
   122   190   193    1
   123   191   192    2
   124   159   157   ar
   125   158   156   ar
   126    74    73    1
   127    74    75    1
   128    70    71    2
   129    64    66   ar
   130   178   179    1
   131    93    94    2
   132    93    92    1
   133   179   180    1
   134   179   181    1
   135   150   151    1
   136    65    67   ar
   137   157   155   ar
   138   165   164    2
   139   101   102    2
   140    92    91    1
   141    92    95    1
   142   156   155   ar
   143   155   154    1
   144   151   154    1
   145   151   152    1
   146   173   172    1
   147   171   172   ar
   148   171   169   ar
   149   164   163    1
   150    75    76    2
   151    75    84   am
   152    66    67   ar
   153   172   170   ar
   154   114   112   ar
   155   114   116   ar
   156   169   167   ar
   157    98    96    1
   158   153   152    2
   159    84    85    1
   160    95    96    1
   161   112   111   ar
   162    89    88    1
   163   116   115   ar
   164   170   168   ar
   165    96    97    1
   166   167   168   ar
   167   167   166    1
   168   163   166    1
   169   163   162    1
   170    85    88    1
   171    85    86    1
   172   123   124    1
   173   123   122    1
   174    88    90    1
   175   111   110    1
   176   111   113   ar
   177   122   121    1
   178   115   113   ar
   179   109   108    2
   180    86    87    2
   181   110   107    1
   182   107   108    1
   183   107   106    1
   184   121   118    1
   185   120   119    2
   186   118   119    1
   187   118   117    1
