@<TRIPOS>MOLECULE
tmp/3fjoA00.pdb
 153 149 0 0 0
SMALL
GASTEIGER

@<TRIPOS>ATOM
      1  N        -44.7630   23.2010   -0.1090 N.3    21  SER21      -0.1202
      2  CA       -44.0680   23.7750   -1.2480 C.3    21  SER21       0.2020
      3  C        -44.9280   23.6800   -2.5050 C.2    21  SER21       0.2619
      4  O        -45.3350   22.5950   -2.9010 O.2    21  SER21      -0.2717
      5  CB       -42.7530   23.0150   -1.4490 C.3    21  SER21       0.2103
      6  OG       -41.9420   23.6210   -2.4390 O.3    21  SER21      -0.2182
      7  N        -45.2090   24.8180   -3.1230 N.am   22  GLN22      -0.1965
      8  CA       -45.9690   24.8490   -4.3750 C.3    22  GLN22       0.1733
      9  C        -45.0610   24.6170   -5.5680 C.2    22  GLN22       0.2617
     10  O        -45.3970   23.8680   -6.4730 O.2    22  GLN22      -0.2715
     11  CB       -46.6330   26.2110   -4.5640 C.3    22  GLN22       0.0408
     12  CG       -47.8470   26.1930   -5.4790 C.3    22  GLN22       0.0908
     13  CD       -49.1390   26.0590   -4.6920 C.2    22  GLN22       0.2608
     14  OE1      -49.9410   26.9960   -4.6380 O.2    22  GLN22      -0.2717
     15  NE2      -49.3300   24.9050   -4.0420 N.am   22  GLN22      -0.0878
     16  N        -43.9070   25.2760   -5.5430 N.am   23  THR23      -0.1951
     17  CA       -43.0150   25.3820   -6.6840 C.3    23  THR23       0.1897
     18  C        -41.5980   24.8250   -6.4140 C.2    23  THR23       0.2313
     19  O        -40.6700   25.0830   -7.1820 O.2    23  THR23      -0.2863
     20  CB       -43.0060   26.8690   -7.1460 C.3    23  THR23       0.1794
     21  OG1      -44.0250   27.0440   -8.1450 O.3    23  THR23      -0.2208
     22  CG2      -41.6520   27.3160   -7.6950 C.3    23  THR23       0.0378
     23  N        -39.1590   25.0270   -3.9500 N.3    25  THR25      -0.1203
     24  CA       -38.0470   25.6640   -3.2360 C.3    25  THR25       0.1994
     25  C        -37.9370   25.1410   -1.8100 C.2    25  THR25       0.2617
     26  O        -36.8490   24.7570   -1.3880 O.2    25  THR25      -0.2717
     27  CB       -38.1790   27.1960   -3.2150 C.3    25  THR25       0.1784
     28  OG1      -38.4460   27.6510   -4.5410 O.3    25  THR25      -0.2211
     29  CG2      -36.9070   27.8450   -2.6950 C.3    25  THR25       0.0376
     30  N        -39.0590   25.1310   -1.0860 N.am   26  ALA26      -0.1979
     31  CA       -39.1270   24.5500    0.2710 C.3    26  ALA26       0.1597
     32  C        -38.7360   23.0830    0.2610 C.2    26  ALA26       0.2287
     33  O        -38.0410   22.6200    1.1680 O.2    26  ALA26      -0.2864
     34  CB       -40.5210   24.6970    0.8590 C.3    26  ALA26       0.0319
     35  N        -43.6590   27.5560    2.7200 N.3    70  SER70      -0.1202
     36  CA       -43.7280   28.6950    1.8210 C.3    70  SER70       0.2020
     37  C        -45.0380   29.4530    1.9410 C.2    70  SER70       0.2619
     38  O        -46.0570   28.8940    2.3390 O.2    70  SER70      -0.2717
     39  CB       -43.5450   28.2300    0.3790 C.3    70  SER70       0.2103
     40  OG       -42.2000   27.8610    0.1700 O.3    70  SER70      -0.2182
     41  N        -44.9940   30.7290    1.5640 N.am   71  THR71      -0.1938
     42  CA       -46.1460   31.6290    1.6320 C.3    71  THR71       0.2028
     43  C        -46.6810   31.9230    0.2200 C.2    71  THR71       0.2642
     44  O        -45.8900   32.0710   -0.7160 O.2    71  THR71      -0.2714
     45  CB       -45.7310   32.9130    2.3490 C.3    71  THR71       0.1808
     46  OG1      -45.1680   32.5690    3.6220 O.3    71  THR71      -0.2208
     47  CG2      -46.9060   33.8450    2.5490 C.3    71  THR71       0.0379
     48  N        -48.0100   32.0030    0.0660 N.am   72  TYR72      -0.1959
     49  CA       -48.6280   32.0740   -1.2790 C.3    72  TYR72       0.1771
     50  C        -49.9310   32.8730   -1.4970 C.2    72  TYR72       0.2620
     51  O        -50.4930   32.8360   -2.5990 O.2    72  TYR72      -0.2715
     52  CB       -48.8230   30.6530   -1.8320 C.3    72  TYR72       0.0574
     53  CG       -47.6500   30.2190   -2.6580 C.ar   72  TYR72      -0.0198
     54  CD1      -46.6800   29.3820   -2.1300 C.ar   72  TYR72      -0.0009
     55  CD2      -47.4790   30.6970   -3.9520 C.ar   72  TYR72      -0.0009
     56  CE1      -45.5860   29.0060   -2.8720 C.ar   72  TYR72       0.0417
     57  CE2      -46.3850   30.3220   -4.7120 C.ar   72  TYR72       0.0417
     58  CZ       -45.4380   29.4760   -4.1660 C.ar   72  TYR72       0.1957
     59  OH       -44.3470   29.1080   -4.9180 O.3    72  TYR72      -0.2866
     60  N        -50.4210   33.5970   -0.5060 N.am   73  GLY73      -0.1954
     61  CA       -51.6190   34.3950   -0.7410 C.3    73  GLY73       0.1869
     62  C        -51.6820   35.5790    0.1870 C.2    73  GLY73       0.2309
     63  O        -51.0000   36.5830   -0.0220 O.2    73  GLY73      -0.2863
     64  N        -50.6620   35.4640    3.2830 N.3    75  GLY75      -0.1225
     65  CA       -49.9430   34.6980    4.2960 C.3    75  GLY75       0.1811
     66  C        -50.4820   33.2760    4.3900 C.2    75  GLY75       0.2280
     67  O        -50.4030   32.6490    5.4500 O.2    75  GLY75      -0.2866
     68  N        -40.3030   30.2780    3.8350 N.3   106  LEU106     -0.1231
     69  CA       -39.8210   30.8070    2.5620 C.3   106  LEU106      0.1693
     70  C        -40.8150   31.8030    2.0040 C.2   106  LEU106      0.2593
     71  O        -41.9790   31.4810    1.7930 O.2   106  LEU106     -0.2718
     72  CB       -39.5770   29.6890    1.5540 C.3   106  LEU106      0.0284
     73  CG       -38.4070   28.7540    1.8790 C.3   106  LEU106      0.0019
     74  CD1      -38.7570   27.8530    3.0570 C.3   106  LEU106      0.0001
     75  CD2      -38.0310   27.9250    0.6590 C.3   106  LEU106      0.0001
     76  N        -40.3490   33.0260    1.7740 N.am  107  GLY107     -0.1942
     77  CA       -41.2120   34.0840    1.2890 C.3   107  GLY107      0.2014
     78  C        -40.5150   35.0270    0.3370 C.2   107  GLY107      0.2638
     79  O        -39.5150   34.6770   -0.2980 O.2   107  GLY107     -0.2714
     80  N        -41.0530   36.2380    0.2630 N.am  108  ASN108     -0.1972
     81  CA       -40.6250   37.2380   -0.6940 C.3   108  ASN108      0.1688
     82  C        -41.2130   38.5610   -0.2200 C.2   108  ASN108      0.2292
     83  O        -42.4230   38.7320   -0.2470 O.2   108  ASN108     -0.2864
     84  CB       -41.1230   36.8400   -2.0900 C.3   108  ASN108      0.1181
     85  CG       -40.6180   37.7460   -3.1950 C.2   108  ASN108      0.2629
     86  OD1      -40.1430   38.8400   -2.9540 O.2   108  ASN108     -0.2716
     87  ND2      -40.7450   37.2880   -4.4260 N.am  108  ASN108     -0.0877
     88  N        -43.9920   40.9120   -1.8230 N.3   111  TYR111     -0.1227
     89  CA       -45.4280   40.6990   -1.6680 C.3   111  TYR111      0.1736
     90  C        -45.9270   41.4070   -0.4060 C.2   111  TYR111      0.2595
     91  O        -45.1320   41.9390    0.3690 O.2   111  TYR111     -0.2718
     92  CB       -45.7300   39.1960   -1.6220 C.3   111  TYR111      0.0548
     93  CG       -45.5420   38.5430   -2.9710 C.ar  111  TYR111     -0.0200
     94  CD1      -44.2870   38.1110   -3.3890 C.ar  111  TYR111     -0.0009
     95  CD2      -46.6160   38.3950   -3.8460 C.ar  111  TYR111     -0.0009
     96  CE1      -44.1090   37.5370   -4.6330 C.ar  111  TYR111      0.0417
     97  CE2      -46.4510   37.8220   -5.0940 C.ar  111  TYR111      0.0417
     98  CZ       -45.1960   37.3910   -5.4870 C.ar  111  TYR111      0.1957
     99  OH       -45.0340   36.8170   -6.7380 O.3   111  TYR111     -0.2866
    100  N        -47.2420   41.4000   -0.2040 N.am  112  GLU112     -0.1965
    101  CA       -47.8600   42.1250    0.9030 C.3   112  GLU112      0.1733
    102  C        -47.4660   41.5460    2.2670 C.2   112  GLU112      0.2616
    103  O        -46.9700   42.2760    3.1280 O.2   112  GLU112     -0.2715
    104  CB       -49.3890   42.1600    0.7460 C.3   112  GLU112      0.0429
    105  CG       -50.0530   43.4050    1.3760 C.3   112  GLU112      0.1163
    106  CD       -51.5740   43.4590    1.1850 C.2   112  GLU112      0.3649
    107  OE1      -52.1790   42.4660    0.7280 O.co2 112  GLU112     -0.2457
    108  OE2      -52.1710   44.5070    1.4990 O.co2 112  GLU112     -0.2457
    109  N        -47.6510   40.2390    2.4490 N.am  113  PHE113     -0.1960
    110  CA       -47.4550   39.5890    3.7540 C.3   113  PHE113      0.1771
    111  C        -46.1780   38.7400    3.8020 C.2   113  PHE113      0.2620
    112  O        -46.2350   37.5120    3.6660 O.2   113  PHE113     -0.2715
    113  CB       -48.6600   38.6900    4.0770 C.3   113  PHE113      0.0574
    114  CG       -49.9540   39.4330    4.2360 C.ar  113  PHE113     -0.0200
    115  CD1      -50.8050   39.6210    3.1530 C.ar  113  PHE113     -0.0042
    116  CD2      -50.3350   39.9350    5.4770 C.ar  113  PHE113     -0.0042
    117  CE1      -52.0150   40.3120    3.3000 C.ar  113  PHE113     -0.0003
    118  CE2      -51.5430   40.6210    5.6340 C.ar  113  PHE113     -0.0003
    119  CZ       -52.3830   40.8060    4.5430 C.ar  113  PHE113     -0.0000
    120  N        -45.0350   39.3790    4.0340 N.am  114  PHE114     -0.1960
    121  CA       -43.7540   38.6770    4.0080 C.3   114  PHE114      0.1771
    122  C        -43.6970   37.5320    5.0030 C.2   114  PHE114      0.2619
    123  O        -43.7450   37.7590    6.2070 O.2   114  PHE114     -0.2715
    124  CB       -42.5970   39.6330    4.2910 C.3   114  PHE114      0.0574
    125  CG       -41.2480   38.9610    4.3180 C.ar  114  PHE114     -0.0200
    126  CD1      -40.4240   39.0660    5.4260 C.ar  114  PHE114     -0.0042
    127  CD2      -40.8120   38.2160    3.2350 C.ar  114  PHE114     -0.0042
    128  CE1      -39.1850   38.4520    5.4510 C.ar  114  PHE114     -0.0003
    129  CE2      -39.5730   37.5950    3.2510 C.ar  114  PHE114     -0.0003
    130  CZ       -38.7580   37.7110    4.3620 C.ar  114  PHE114     -0.0000
    131  N        -43.5650   36.3090    4.4870 N.am  115  ASN115     -0.1972
    132  CA       -43.4680   35.0900    5.3030 C.3   115  ASN115      0.1688
    133  C        -44.6590   34.8550    6.2270 C.2   115  ASN115      0.2292
    134  O        -44.5060   34.3390    7.3260 O.2   115  ASN115     -0.2864
    135  CB       -42.1520   35.0640    6.0950 C.3   115  ASN115      0.1181
    136  CG       -41.1220   34.1720    5.4620 C.2   115  ASN115      0.2629
    137  OD1      -41.1880   32.9440    5.5910 O.2   115  ASN115     -0.2716
    138  ND2      -40.1580   34.7800    4.7580 N.am  115  ASN115     -0.0877
    139  N        -36.8810   35.7630   -0.9650 N.3   141  ASP141     -0.1239
    140  CA       -36.6280   35.6340   -2.3800 C.3   141  ASP141      0.1674
    141  C        -36.6750   37.0100   -3.0670 C.2   141  ASP141      0.2266
    142  O        -36.0760   37.1940   -4.1230 O.2   141  ASP141     -0.2867
    143  CB       -37.6200   34.6710   -3.0160 C.3   141  ASP141      0.1410
    144  CG       -37.1870   34.2210   -4.3930 C.2   141  ASP141      0.3668
    145  OD1      -35.9860   33.9350   -4.5690 O.co2 141  ASP141     -0.2456
    146  OD2      -38.0500   34.1590   -5.2980 O.co2 141  ASP141     -0.2456
    147  N        -32.2980   34.0960   -0.3760 N.3   146  THR146     -0.1218
    148  CA       -32.8430   32.8130    0.0980 C.3   146  THR146      0.1862
    149  C        -31.7880   31.7700    0.4640 C.2   146  THR146      0.2287
    150  O        -31.9180   31.0880    1.4790 O.2   146  THR146     -0.2866
    151  CB       -33.8020   32.1880   -0.9500 C.3   146  THR146      0.1770
    152  OG1      -34.9270   33.0490   -1.1450 O.3   146  THR146     -0.2211
    153  CG2      -34.2960   30.8300   -0.4950 C.3   146  THR146      0.0375
@<TRIPOS>BOND
     1    21    20    1
     2    22    20    1
     3    19    18    2
     4    20    17    1
     5    99    98    1
     6    17    18    1
     7    17    16    1
     8    10     9    2
     9     9    16   am
    10     9     8    1
    11    98    97   ar
    12    98    96   ar
    13    12    13    1
    14    12    11    1
    15   146   144   ar
    16    97    95   ar
    17    59    58    1
    18    57    58   ar
    19    57    55   ar
    20    13    14    2
    21    13    15   am
    22    96    94   ar
    23   145   144   ar
    24    11     8    1
    25    28    27    1
    26    87    85   am
    27   144   143    1
    28     8     7    1
    29    58    56   ar
    30   142   141    2
    31    55    53   ar
    32    23    24    1
    33    95    93   ar
    34    94    93   ar
    35    24    27    1
    36    24    25    1
    37    27    29    1
    38    85    86    2
    39    85    84    1
    40     7     3   am
    41   141   140    1
    42   143   140    1
    43    93    92    1
    44     4     3    2
    45    56    54   ar
    46    53    54   ar
    47    53    52    1
    48    51    50    2
    49     3     2    1
    50     6     5    1
    51   140   139    1
    52    84    81    1
    53    52    49    1
    54    88    89    1
    55    25    26    2
    56    25    30   am
    57    89    92    1
    58    89    90    1
    59    50    49    1
    60    50    60   am
    61     5     2    1
    62    49    48    1
    63     2     1    1
    64   152   151    1
    65    30    31    1
    66   151   153    1
    67   151   148    1
    68    61    60    1
    69    61    62    1
    70    44    43    2
    71    81    82    1
    72    81    80    1
    73    90   100   am
    74    90    91    2
    75   147   148    1
    76    79    78    2
    77    83    82    2
    78   100   101    1
    79    63    62    2
    80    48    43   am
    81   148   149    1
    82    40    39    1
    83    43    42    1
    84    32    31    1
    85    32    33    2
    86    80    78   am
    87    31    34    1
    88    78    77    1
    89    39    36    1
    90   149   150    2
    91    75    73    1
    92   107   106   ar
    93   104   101    1
    94   104   105    1
    95   101   102    1
    96   106   105    1
    97   106   108   ar
    98    77    76    1
    99    72    73    1
   100    72    69    1
   101    41    42    1
   102    41    37   am
   103    42    45    1
   104    76    70   am
   105    71    70    2
   106    36    37    1
   107    36    35    1
   108    73    74    1
   109    37    38    2
   110    70    69    1
   111   102   109   am
   112   102   103    2
   113    45    47    1
   114    45    46    1
   115   109   110    1
   116    69    68    1
   117   115   117   ar
   118   115   114   ar
   119   127   129   ar
   120   127   125   ar
   121   129   130   ar
   122    64    65    1
   123   117   119   ar
   124   112   111    2
   125   110   111    1
   126   110   113    1
   127   111   120   am
   128   121   120    1
   129   121   124    1
   130   121   122    1
   131   113   114    1
   132   114   116   ar
   133   124   125    1
   134    65    66    1
   135   125   126   ar
   136   130   128   ar
   137    66    67    2
   138   131   122   am
   139   131   132    1
   140   119   118   ar
   141   138   136   am
   142   122   123    2
   143   132   135    1
   144   132   133    1
   145   126   128   ar
   146   136   137    2
   147   136   135    1
   148   116   118   ar
   149   133   134    2
