@<TRIPOS>MOLECULE
tmp/3fjoA01.pdb
 216 209 0 0 0
SMALL
GASTEIGER

@<TRIPOS>ATOM
      1  N         11.8460   -1.9180   49.3580 N.3   253  HIS253     -0.1241
      2  CA        11.8060   -2.0690   47.9180 C.3   253  HIS253      0.1621
      3  C         12.8500   -1.1600   47.3110 C.2   253  HIS253      0.2264
      4  O         13.1690   -0.1120   47.8730 O.2   253  HIS253     -0.2867
      5  CB        10.4250   -1.6930   47.3860 C.3   253  HIS253      0.0745
      6  CG         9.3210   -2.5480   47.9160 C.ar  253  HIS253      0.0817
      7  ND1        8.3900   -2.0830   48.8200 N.ar  253  HIS253     -0.2268
      8  CD2        8.9900   -3.8360   47.6620 C.ar  253  HIS253      0.1154
      9  CE1        7.5330   -3.0490   49.1000 C.ar  253  HIS253      0.1986
     10  NE2        7.8710   -4.1230   48.4090 N.ar  253  HIS253     -0.2212
     11  N          5.3300    1.4070   25.4790 N.3   312  THR312     -0.1203
     12  CA         5.1940   -0.0450   25.4180 C.3   312  THR312      0.1994
     13  C          3.8210   -0.5270   25.8660 C.2   312  THR312      0.2617
     14  O          3.3810   -1.5890   25.4450 O.2   312  THR312     -0.2717
     15  CB         6.2290   -0.7160   26.3260 C.3   312  THR312      0.1784
     16  OG1        6.2630   -0.0250   27.5800 O.3   312  THR312     -0.2211
     17  CG2        7.6090   -0.6970   25.6890 C.3   312  THR312      0.0376
     18  N          3.1690    0.2300   26.7460 N.am  313  ASN313     -0.1974
     19  CA         1.8590   -0.1530   27.2520 C.3   313  ASN313      0.1688
     20  C          0.7580    0.2560   26.2820 C.2   313  ASN313      0.2292
     21  O          0.9750    1.1130   25.4240 O.2   313  ASN313     -0.2864
     22  CB         1.6140    0.4640   28.6340 C.3   313  ASN313      0.1181
     23  CG         2.3610   -0.2590   29.7290 C.2   313  ASN313      0.2629
     24  OD1        2.3770   -1.4910   29.7710 O.2   313  ASN313     -0.2716
     25  ND2        2.9850    0.4960   30.6230 N.am  313  ASN313     -0.0877
     26  N         -6.1800   -5.9790   25.1560 N.3   356  GLU356     -0.1245
     27  CA        -5.9550   -7.4300   25.2340 C.3   356  GLU356      0.1567
     28  C         -4.8710   -7.9240   24.2710 C.2   356  GLU356      0.2260
     29  O         -4.1470   -8.8670   24.5890 O.2   356  GLU356     -0.2867
     30  CB        -7.2590   -8.2180   25.0210 C.3   356  GLU356      0.0388
     31  CG        -7.8150   -8.8930   26.2790 C.3   356  GLU356      0.1160
     32  CD        -7.2730  -10.3070   26.4800 C.2   356  GLU356      0.3649
     33  OE1       -7.4390  -11.1530   25.5650 O.co2 356  GLU356     -0.2457
     34  OE2       -6.6950  -10.5800   27.5620 O.co2 356  GLU356     -0.2457
     35  N         -2.4220   -6.1450   23.7540 N.3   358  ARG358     -0.1245
     36  CA        -1.2720   -5.4050   24.2750 C.3   358  ARG358      0.1563
     37  C         -0.5700   -4.6580   23.1510 C.2   358  ARG358      0.2260
     38  O          0.6490   -4.7240   23.0170 O.2   358  ARG358     -0.2867
     39  CB        -0.2730   -6.3380   24.9570 C.3   358  ARG358      0.0307
     40  CG        -0.8300   -7.1650   26.0610 C.3   358  ARG358      0.0489
     41  CD        -1.1760   -6.3540   27.2830 C.3   358  ARG358      0.2205
     42  NE        -1.6100   -7.2530   28.3570 N.pl3 358  ARG358     -0.0865
     43  CZ        -2.4650   -6.9420   29.3320 C.cat 358  ARG358      0.5346
     44  NH1       -3.0380   -5.7410   29.3980 N.pl3 358  ARG358      0.1354
     45  NH2       -2.7580   -7.8590   30.2470 N.pl3 358  ARG358      0.1354
     46  N         10.1210    1.3080   38.3660 N.3   388  ARG388     -0.1231
     47  CA         9.6670   -0.0460   38.6390 C.3   388  ARG388      0.1694
     48  C         10.2860   -0.5640   39.9300 C.2   388  ARG388      0.2592
     49  O         11.4680   -0.3400   40.1950 O.2   388  ARG388     -0.2718
     50  CB         9.9620   -0.9490   37.4340 C.3   388  ARG388      0.0321
     51  CG         8.7230   -1.1780   36.5600 C.3   388  ARG388      0.0489
     52  CD         8.9450   -1.1000   35.0560 C.3   388  ARG388      0.2205
     53  NE         8.6660    0.2400   34.5430 N.pl3 388  ARG388     -0.0865
     54  CZ         8.0340    0.5290   33.3990 C.cat 388  ARG388      0.5346
     55  NH1        7.5650   -0.4090   32.5860 N.pl3 388  ARG388      0.1354
     56  NH2        7.8500    1.7940   33.0730 N.pl3 388  ARG388      0.1354
     57  N          9.4720   -1.2480   40.7330 N.am  389  TYR389     -0.1962
     58  CA         9.8430   -1.6410   42.0950 C.3   389  TYR389      0.1771
     59  C         10.1430   -3.1280   42.2180 C.2   389  TYR389      0.2620
     60  O          9.5530   -3.9550   41.5300 O.2   389  TYR389     -0.2715
     61  CB         8.7290   -1.2690   43.0750 C.3   389  TYR389      0.0574
     62  CG         8.5760    0.2180   43.2710 C.ar  389  TYR389     -0.0198
     63  CD1        7.7990    0.9710   42.4060 C.ar  389  TYR389     -0.0009
     64  CD2        9.2140    0.8740   44.3290 C.ar  389  TYR389     -0.0009
     65  CE1        7.6590    2.3400   42.5770 C.ar  389  TYR389      0.0417
     66  CE2        9.0750    2.2370   44.5080 C.ar  389  TYR389      0.0417
     67  CZ         8.2930    2.9640   43.6270 C.ar  389  TYR389      0.1957
     68  OH         8.1530    4.3240   43.7920 O.3   389  TYR389     -0.2866
     69  N         11.0880   -3.4350   43.1030 N.am  390  TYR390     -0.1960
     70  CA        11.5530   -4.7920   43.3490 C.3   390  TYR390      0.1771
     71  C         11.8050   -4.9480   44.8370 C.2   390  TYR390      0.2620
     72  O         12.2870   -4.0240   45.4880 O.2   390  TYR390     -0.2715
     73  CB        12.8140   -5.0840   42.5230 C.3   390  TYR390      0.0574
     74  CG        12.5020   -5.0060   41.0540 C.ar  390  TYR390     -0.0198
     75  CD1       12.0120   -6.1160   40.3720 C.ar  390  TYR390     -0.0009
     76  CD2       12.6010   -3.8030   40.3690 C.ar  390  TYR390     -0.0009
     77  CE1       11.6760   -6.0370   39.0380 C.ar  390  TYR390      0.0417
     78  CE2       12.2630   -3.7150   39.0410 C.ar  390  TYR390      0.0417
     79  CZ        11.8050   -4.8320   38.3780 C.ar  390  TYR390      0.1957
     80  OH        11.4720   -4.7470   37.0500 O.3   390  TYR390     -0.2866
     81  N         11.4440   -6.1060   45.3780 N.am  391  SER391     -0.1950
     82  CA        11.6540   -6.3850   46.7850 C.3   391  SER391      0.1924
     83  C         13.1140   -6.7500   46.9980 C.2   391  SER391      0.2314
     84  O         13.5670   -7.7940   46.5510 O.2   391  SER391     -0.2863
     85  CB        10.7310   -7.5110   47.2450 C.3   391  SER391      0.2116
     86  OG         9.3750   -7.1180   47.1100 O.3   391  SER391     -0.2180
     87  N         15.6020   -9.8310   42.6250 N.3   406  CYS406     -0.1221
     88  CA        15.2020  -11.1250   42.0970 C.3   406  CYS406      0.1808
     89  C         13.9840  -10.8890   41.2260 C.2   406  CYS406      0.2601
     90  O         12.9560  -10.4160   41.7100 O.2   406  CYS406     -0.2717
     91  CB        14.8380  -12.0550   43.2490 C.3   406  CYS406      0.0970
     92  SG        14.2520  -13.6830   42.7380 S.3   406  CYS406     -0.0800
     93  N         14.0920  -11.1980   39.9400 N.am  407  ALA407     -0.1965
     94  CA        13.0130  -10.8790   39.0090 C.3   407  ALA407      0.1728
     95  C         12.9030  -11.8650   37.8580 C.2   407  ALA407      0.2616
     96  O         13.9050  -12.4110   37.3930 O.2   407  ALA407     -0.2715
     97  CB        13.1930   -9.4630   38.4600 C.3   407  ALA407      0.0334
     98  N         11.6660  -12.0690   37.4090 N.am  408  VAL408     -0.1977
     99  CA        11.3780  -12.8320   36.2080 C.3   408  VAL408      0.1596
    100  C         11.2950  -11.8540   35.0390 C.2   408  VAL408      0.2287
    101  O         10.6410  -10.8220   35.1540 O.2   408  VAL408     -0.2864
    102  CB        10.0540  -13.6360   36.3530 C.3   408  VAL408      0.0276
    103  CG1        8.8530  -12.7050   36.5700 C.3   408  VAL408      0.0022
    104  CG2        9.8380  -14.5490   35.1350 C.3   408  VAL408      0.0022
    105  N          9.8820  -10.3360   31.7400 N.3   410  VAL410     -0.1245
    106  CA         8.5910  -10.3440   31.0670 C.3   410  VAL410      0.1561
    107  C          8.8100  -10.3490   29.5580 C.2   410  VAL410      0.2260
    108  O          9.3250   -9.3930   28.9790 O.2   410  VAL410     -0.2867
    109  CB         7.7020   -9.1690   31.5170 C.3   410  VAL410      0.0252
    110  CG1        6.4440   -9.0680   30.6510 C.3   410  VAL410      0.0019
    111  CG2        7.3430   -9.3430   32.9890 C.3   410  VAL410      0.0019
    112  N          6.7010  -12.2570   26.1960 N.3   412  TYR412     -0.1227
    113  CA         5.5330  -13.0630   25.8350 C.3   412  TYR412      0.1736
    114  C          4.9820  -12.7180   24.4450 C.2   412  TYR412      0.2595
    115  O          5.1290  -11.5900   23.9670 O.2   412  TYR412     -0.2718
    116  CB         4.4310  -12.8780   26.8960 C.3   412  TYR412      0.0548
    117  CG         3.9110  -11.4570   26.9790 C.ar  412  TYR412     -0.0200
    118  CD1        4.5070  -10.5180   27.8200 C.ar  412  TYR412     -0.0009
    119  CD2        2.8290  -11.0460   26.2060 C.ar  412  TYR412     -0.0009
    120  CE1        4.0290   -9.1910   27.8820 C.ar  412  TYR412      0.0417
    121  CE2        2.3530   -9.7290   26.2610 C.ar  412  TYR412      0.0417
    122  CZ         2.9520   -8.8150   27.0990 C.ar  412  TYR412      0.1957
    123  OH         2.4650   -7.5290   27.1440 O.3   412  TYR412     -0.2866
    124  N          4.3380  -13.6940   23.8110 N.am  413  GLU413     -0.1979
    125  CA         3.6720  -13.4730   22.5350 C.3   413  GLU413      0.1602
    126  C          2.2520  -12.9610   22.7510 C.2   413  GLU413      0.2287
    127  O          1.5690  -13.3940   23.6720 O.2   413  GLU413     -0.2864
    128  CB         3.6330  -14.7540   21.7020 C.3   413  GLU413      0.0415
    129  CG         3.1870  -14.5140   20.2580 C.3   413  GLU413      0.1163
    130  CD         3.2280  -15.7660   19.3910 C.2   413  GLU413      0.3649
    131  OE1        2.9420  -16.8760   19.9000 O.co2 413  GLU413     -0.2457
    132  OE2        3.5380  -15.6320   18.1860 O.co2 413  GLU413     -0.2457
    133  N          8.0870   -7.1450   25.1260 N.3   421  LYS421     -0.1231
    134  CA         9.1750   -7.2110   26.1020 C.3   421  LYS421      0.1693
    135  C          8.9290   -6.2160   27.2220 C.2   421  LYS421      0.2593
    136  O          8.7530   -5.0330   26.9670 O.2   421  LYS421     -0.2718
    137  CB        10.5230   -6.9430   25.4160 C.3   421  LYS421      0.0285
    138  CG        11.1980   -8.2120   24.8950 C.3   421  LYS421      0.0035
    139  CD        12.4770   -7.9220   24.1030 C.3   421  LYS421      0.0206
    140  CE        13.3810   -9.1600   24.0270 C.3   421  LYS421      0.1093
    141  NZ        12.5810  -10.3920   23.7210 N.3   421  LYS421     -0.1314
    142  N          8.8850   -6.7020   28.4580 N.am  422  GLY422     -0.1942
    143  CA         8.7410   -5.8290   29.6220 C.3   422  GLY422      0.2014
    144  C          9.9720   -4.9510   29.7690 C.2   422  GLY422      0.2639
    145  O         11.1120   -5.4350   29.6820 O.2   422  GLY422     -0.2714
    146  N          9.7420   -3.6630   30.0040 N.am  423  VAL423     -0.1963
    147  CA        10.7820   -2.6570   29.8460 C.3   423  VAL423      0.1727
    148  C         11.9340   -2.8880   30.8140 C.2   423  VAL423      0.2616
    149  O         13.0550   -3.1810   30.3890 O.2   423  VAL423     -0.2715
    150  CB        10.2280   -1.2070   30.0220 C.3   423  VAL423      0.0290
    151  CG1       11.3370   -0.1920   29.8220 C.3   423  VAL423      0.0023
    152  CG2        9.0710   -0.9280   29.0520 C.3   423  VAL423      0.0023
    153  N         11.6500   -2.7690   32.1080 N.am  424  ALA424     -0.1963
    154  CA        12.7000   -2.7590   33.1300 C.3   424  ALA424      0.1728
    155  C         13.4850   -4.0680   33.1970 C.2   424  ALA424      0.2616
    156  O         14.6980   -4.0660   33.3970 O.2   424  ALA424     -0.2715
    157  CB        12.1090   -2.4370   34.4880 C.3   424  ALA424      0.0334
    158  N         12.7920   -5.1820   33.0170 N.am  425  THR425     -0.1951
    159  CA        13.3910   -6.4820   33.2280 C.3   425  THR425      0.1897
    160  C         14.2980   -6.9070   32.0690 C.2   425  THR425      0.2313
    161  O         15.3270   -7.5400   32.2950 O.2   425  THR425     -0.2863
    162  CB        12.3110   -7.5360   33.4590 C.3   425  THR425      0.1794
    163  OG1       11.3710   -7.4750   32.3850 O.3   425  THR425     -0.2208
    164  CG2       11.5910   -7.2870   34.7810 C.3   425  THR425      0.0378
    165  N         12.6740    2.8610   48.6860 N.3   443  ARG443     -0.1245
    166  CA        11.5720    3.3430   49.5150 C.3   443  ARG443      0.1563
    167  C         11.3240    2.4120   50.6800 C.2   443  ARG443      0.2260
    168  O         11.2030    1.2030   50.5110 O.2   443  ARG443     -0.2867
    169  CB        10.3040    3.6890   48.7100 C.3   443  ARG443      0.0307
    170  CG         9.3700    2.5810   48.3060 C.3   443  ARG443      0.0489
    171  CD         7.9200    2.9290   48.6890 C.3   443  ARG443      0.2205
    172  NE         7.0050    2.8670   47.5570 N.pl3 443  ARG443     -0.0865
    173  CZ         6.5470    1.7600   46.9750 C.cat 443  ARG443      0.5346
    174  NH1        6.9060    0.5520   47.3900 N.pl3 443  ARG443      0.1354
    175  NH2        5.7130    1.8690   45.9510 N.pl3 443  ARG443      0.1354
    176  N          8.6630  -15.8490   42.4920 N.3   464  THR464     -0.1218
    177  CA         9.5420  -14.7000   42.6910 C.3   464  THR464      0.1862
    178  C          9.3410  -14.0470   44.0610 C.2   464  THR464      0.2287
    179  O         10.1930  -13.2790   44.5170 O.2   464  THR464     -0.2866
    180  CB         9.2850  -13.6320   41.6050 C.3   464  THR464      0.1770
    181  OG1        7.8880  -13.3220   41.5720 O.3   464  THR464     -0.2211
    182  CG2        9.7040  -14.1360   40.2370 C.3   464  THR464      0.0375
    183  N         11.7500  -13.5590   47.0750 N.3   467  ALA467     -0.1245
    184  CA        12.6850  -12.4250   47.0450 C.3   467  ALA467      0.1562
    185  C         13.0360  -11.8260   48.4050 C.2   467  ALA467      0.2260
    186  O         14.1830  -11.9180   48.8400 O.2   467  ALA467     -0.2867
    187  CB        12.1530  -11.3430   46.1270 C.3   467  ALA467      0.0290
    188  N          3.5200   -8.2230   51.2140 N.3   600  ASP600     -0.1225
    189  CA         4.2930   -7.5420   50.1730 C.3   600  ASP600      0.1805
    190  C          3.8200   -8.1610   48.8570 C.2   600  ASP600      0.2598
    191  O          4.5330   -8.9590   48.2400 O.2   600  ASP600     -0.2718
    192  CB         5.7980   -7.7650   50.3980 C.3   600  ASP600      0.1424
    193  CG         6.6830   -7.0550   49.3630 C.2   600  ASP600      0.3668
    194  OD1        6.1630   -6.2830   48.5380 O.co2 600  ASP600     -0.2456
    195  OD2        7.9170   -7.2620   49.3800 O.co2 600  ASP600     -0.2456
    196  N          2.5990   -7.8160   48.4460 N.am  601  VAL601     -0.1966
    197  CA         1.9880   -8.4390   47.2680 C.3   601  VAL601      0.1727
    198  C          1.7850   -7.3910   46.1900 C.2   601  VAL601      0.2616
    199  O          1.3120   -6.3050   46.4730 O.2   601  VAL601     -0.2715
    200  CB         0.6580   -9.1660   47.6230 C.3   601  VAL601      0.0290
    201  CG1        0.7600   -9.7890   49.0250 C.3   601  VAL601      0.0023
    202  CG2       -0.5050   -8.2260   47.5530 C.3   601  VAL601      0.0023
    203  N          2.1310   -7.7220   44.9510 N.am  602  TRP602     -0.1974
    204  CA         2.3960   -6.6960   43.9310 C.3   602  TRP602      0.1640
    205  C          1.2480   -6.3670   42.9650 C.2   602  TRP602      0.2290
    206  O          1.4480   -5.6320   42.0030 O.2   602  TRP602     -0.2864
    207  CB         3.6420   -7.0810   43.1300 C.3   602  TRP602      0.0576
    208  CG         4.7650   -7.5610   43.9940 C.ar  602  TRP602      0.0006
    209  CD1        5.0810   -7.1320   45.2590 C.ar  602  TRP602      0.0946
    210  CD2        5.7240   -8.5540   43.6610 C.ar  602  TRP602      0.0152
    211  NE1        6.1670   -7.8090   45.7330 N.ar  602  TRP602     -0.2442
    212  CE2        6.5920   -8.6850   44.7700 C.ar  602  TRP602      0.0810
    213  CE3        5.9420   -9.3490   42.5300 C.ar  602  TRP602      0.0012
    214  CZ2        7.6610   -9.5790   44.7800 C.ar  602  TRP602      0.0191
    215  CZ3        7.0000  -10.2430   42.5420 C.ar  602  TRP602      0.0001
    216  CH2        7.8460  -10.3520   43.6640 C.ar  602  TRP602      0.0015
@<TRIPOS>BOND
     1   132   130   ar
     2   130   131   ar
     3   130   129    1
     4   129   128    1
     5   128   125    1
     6   125   126    1
     7   125   124    1
     8   126   127    2
     9    38    37    2
    10    37    36    1
    11   141   140    1
    12    35    36    1
    13   124   114   am
    14   115   114    2
    15   140   139    1
    16   139   138    1
    17    28    29    2
    18    28    27    1
    19    36    39    1
    20   114   113    1
    21   138   137    1
    22    39    40    1
    23    30    27    1
    24    30    31    1
    25   133   134    1
    26    26    27    1
    27   137   134    1
    28    12    11    1
    29    12    13    1
    30    12    15    1
    31    21    20    2
    32    14    13    2
    33    33    32   ar
    34    17    15    1
    35   113   112    1
    36   113   116    1
    37    13    18   am
    38    40    41    1
    39   134   135    1
    40   119   121   ar
    41   119   117   ar
    42   121   122   ar
    43    31    32    1
    44    20    19    1
    45    15    16    1
    46    32    34   ar
    47    18    19    1
    48   116   117    1
    49   136   135    2
    50   117   118   ar
    51   122   123    1
    52   122   120   ar
    53   135   142   am
    54    19    22    1
    55    41    42    1
    56   118   120   ar
    57    42    43    2
    58   142   143    1
    59    22    23    1
    60   108   107    2
    61   152   150    1
    62    43    44    1
    63    43    45    1
    64   107   106    1
    65   143   144    1
    66   145   144    2
    67    23    24    2
    68    23    25   am
    69   144   146   am
    70   151   150    1
    71   147   146    1
    72   147   150    1
    73   147   148    1
    74   149   148    2
    75   110   109    1
    76   148   153   am
    77   106   109    1
    78   106   105    1
    79   109   111    1
    80   160   161    2
    81   160   159    1
    82   153   154    1
    83   163   162    1
    84    55    54    1
    85   158   155   am
    86   158   159    1
    87    56    54    1
    88   154   155    1
    89   154   157    1
    90   155   156    2
    91   159   162    1
    92    54    53    2
    93   162   164    1
    94    53    52    1
    95   100   101    2
    96   100    99    1
    97    52    51    1
    98   104   102    1
    99    99   102    1
   100    99    98    1
   101   102   103    1
   102    51    50    1
   103    80    79    1
   104    96    95    2
   105    98    95   am
   106    50    47    1
   107    95    94    1
   108    46    47    1
   109    79    77   ar
   110    79    78   ar
   111    97    94    1
   112    47    48    1
   113    94    93    1
   114    77    75   ar
   115    78    76   ar
   116    48    49    2
   117    48    57   am
   118    93    89   am
   119   182   180    1
   120    76    74   ar
   121    75    74   ar
   122    57    58    1
   123    74    73    1
   124    89    90    2
   125    89    88    1
   126    60    59    2
   127   181   180    1
   128   180   177    1
   129   206   205    2
   130    58    59    1
   131    58    61    1
   132    88    87    1
   133    88    91    1
   134    59    69   am
   135    63    65   ar
   136    63    62   ar
   137   176   177    1
   138    73    70    1
   139   213   215   ar
   140   213   210   ar
   141   215   216   ar
   142    65    67   ar
   143   177   178    1
   144    92    91    1
   145   205   204    1
   146    61    62    1
   147    69    70    1
   148   207   204    1
   149   207   208    1
   150    62    64   ar
   151    70    71    1
   152    67    68    1
   153    67    66   ar
   154   210   208   ar
   155   210   212   ar
   156   216   214   ar
   157   204   203    1
   158   208   209   ar
   159   178   179    2
   160    64    66   ar
   161   212   214   ar
   162   212   211   ar
   163    71    81   am
   164    71    72    2
   165   203   198   am
   166   209   211   ar
   167    81    82    1
   168   175   173    1
   169   187   184    1
   170   198   199    2
   171   198   197    1
   172    84    83    2
   173    82    83    1
   174    82    85    1
   175   173   174    1
   176   173   172    2
   177   184   183    1
   178   184   185    1
   179    86    85    1
   180   197   200    1
   181   197   196    1
   182     3     4    2
   183     3     2    1
   184     5     6    1
   185     5     2    1
   186   202   200    1
   187   172   171    1
   188   200   201    1
   189     8     6   ar
   190     8    10   ar
   191     6     7   ar
   192     2     1    1
   193   191   190    2
   194   170   171    1
   195   170   169    1
   196   185   186    2
   197    10     9   ar
   198   196   190   am
   199   194   193   ar
   200   165   166    1
   201   169   166    1
   202     7     9   ar
   203   190   189    1
   204   193   195   ar
   205   193   192    1
   206   166   167    1
   207   189   192    1
   208   189   188    1
   209   168   167    2
