@<TRIPOS>MOLECULE
tmp/3fjwA03.pdb
 101 99 0 0 0
SMALL
GASTEIGER

@<TRIPOS>ATOM
      1  N          2.2620   71.8200   25.8360 N.3   188  SER188     -0.1202
      2  CA         1.2030   71.6380   24.8670 C.3   188  SER188      0.2020
      3  C          1.7230   71.0440   23.5850 C.2   188  SER188      0.2619
      4  O          0.9940   70.9720   22.5920 O.2   188  SER188     -0.2717
      5  CB         0.5130   72.9560   24.5810 C.3   188  SER188      0.2103
      6  OG         1.4370   73.9160   24.1430 O.3   188  SER188     -0.2182
      7  N          2.9900   70.6170   23.5980 N.am  189  THR189     -0.1939
      8  CA         3.6220   70.0420   22.4130 C.3   189  THR189      0.2013
      9  C          4.5080   68.8480   22.7770 C.2   189  THR189      0.2484
     10  O          5.7280   68.8930   22.6020 O.2   189  THR189     -0.2729
     11  CB         4.4720   71.0930   21.6540 C.3   189  THR189      0.1807
     12  OG1        5.3850   71.7340   22.5660 O.3   189  THR189     -0.2208
     13  CG2        3.5730   72.1430   20.9980 C.3   189  THR189      0.0379
     14  N          3.8950   67.7780   23.3010 N.am  190  PRO190     -0.2726
     15  CA         4.6530   66.5990   23.7290 C.3   190  PRO190      0.1402
     16  C          5.4390   65.9910   22.5860 C.2   190  PRO190      0.2269
     17  O          6.3860   65.2340   22.8170 O.2   190  PRO190     -0.2865
     18  CB         3.5620   65.6240   24.1910 C.3   190  PRO190      0.0296
     19  CG         2.2810   66.1630   23.6050 C.3   190  PRO190      0.0237
     20  CD         2.4480   67.6250   23.5280 C.3   190  PRO190      0.0939
     21  N          5.3100   77.4890   29.6060 N.3   200  GLU200     -0.1245
     22  CA         3.9980   77.2380   30.1500 C.3   200  GLU200      0.1567
     23  C          4.0390   76.9530   31.6400 C.2   200  GLU200      0.2260
     24  O          3.0660   77.2170   32.3570 O.2   200  GLU200     -0.2867
     25  CB         3.3100   76.1130   29.3800 C.3   200  GLU200      0.0388
     26  CG         3.0040   76.4960   27.9380 C.3   200  GLU200      0.1160
     27  CD         2.6280   75.3210   27.0850 C.2   200  GLU200      0.3649
     28  OE1        2.4530   74.2150   27.6330 O.co2 200  GLU200     -0.2457
     29  OE2        2.5080   75.4960   25.8620 O.co2 200  GLU200     -0.2457
     30  N         -3.4420   75.1070   31.8680 N.3   222  LEU222     -0.1245
     31  CA        -4.2180   74.6660   30.6810 C.3   222  LEU222      0.1561
     32  C         -4.9230   73.3190   30.8670 C.2   222  LEU222      0.2260
     33  O         -4.3620   72.3760   31.4290 O.2   222  LEU222     -0.2867
     34  CB        -3.3240   74.5970   29.4350 C.3   222  LEU222      0.0270
     35  CG        -2.8790   75.8930   28.7790 C.3   222  LEU222      0.0019
     36  CD1       -1.8370   75.5920   27.6720 C.3   222  LEU222      0.0001
     37  CD2       -4.0650   76.6520   28.2150 C.3   222  LEU222      0.0001
     38  N          5.4390   80.8700   21.9780 N.3   293  HIS293     -0.1241
     39  CA         4.2050   81.6220   22.1580 C.3   293  HIS293      0.1621
     40  C          3.5810   81.3410   23.5240 C.2   293  HIS293      0.2264
     41  O          3.7590   80.2590   24.0910 O.2   293  HIS293     -0.2867
     42  CB         3.2000   81.2600   21.0540 C.3   293  HIS293      0.0745
     43  CG         2.7340   79.8400   21.1070 C.ar  293  HIS293      0.0817
     44  ND1        3.4470   78.8000   20.5450 N.ar  293  HIS293     -0.2268
     45  CD2        1.6350   79.2820   21.6660 C.ar  293  HIS293      0.1154
     46  CE1        2.8000   77.6640   20.7470 C.ar  293  HIS293      0.1986
     47  NE2        1.6960   77.9290   21.4230 N.ar  293  HIS293     -0.2212
     48  N          0.0160   80.5180   25.3040 N.3   295  PRO295     -0.2102
     49  CA        -1.1760   79.8030   24.8540 C.3   295  PRO295      0.1504
     50  C         -2.3050   80.7680   24.4520 C.2   295  PRO295      0.2575
     51  O         -2.3520   81.9030   24.9300 O.2   295  PRO295     -0.2718
     52  CB        -1.5850   79.0030   26.0930 C.3   295  PRO295      0.0282
     53  CG        -0.3430   78.8970   26.9060 C.3   295  PRO295      0.0208
     54  CD         0.3830   80.1620   26.6830 C.3   295  PRO295      0.0893
     55  N         -3.1960   80.3220   23.5800 N.am  296  ALA296     -0.1980
     56  CA        -4.2760   81.1800   23.1150 C.3   296  ALA296      0.1597
     57  C         -5.0760   81.6760   24.2990 C.2   296  ALA296      0.2287
     58  O         -5.3450   80.9230   25.2360 O.2   296  ALA296     -0.2864
     59  CB        -5.1610   80.4460   22.1410 C.3   296  ALA296      0.0319
     60  N         -0.9740   83.0040   20.8250 N.3   318  ASP318     -0.1225
     61  CA        -1.7340   82.4180   19.7350 C.3   318  ASP318      0.1790
     62  C         -3.1020   83.0790   19.6310 C.2   318  ASP318      0.2439
     63  O         -3.7050   83.4320   20.6470 O.2   318  ASP318     -0.2733
     64  CB        -1.9100   80.9230   19.9570 C.3   318  ASP318      0.1423
     65  CG        -0.7630   80.1200   19.4220 C.2   318  ASP318      0.3668
     66  OD1        0.0030   80.6510   18.5890 O.co2 318  ASP318     -0.2456
     67  OD2       -0.6250   78.9480   19.8280 O.co2 318  ASP318     -0.2456
     68  N         -3.5980   83.2470   18.4020 N.am  319  PRO319     -0.2729
     69  CA        -4.9250   83.8130   18.1750 C.3   319  PRO319      0.1401
     70  C         -6.0200   82.9310   18.7440 C.2   319  PRO319      0.2269
     71  O         -5.8670   81.7070   18.7970 O.2   319  PRO319     -0.2865
     72  CB        -5.0340   83.8440   16.6480 C.3   319  PRO319      0.0296
     73  CG        -3.6200   83.7620   16.1560 C.3   319  PRO319      0.0237
     74  CD        -2.9100   82.9240   17.1450 C.3   319  PRO319      0.0939
     75  N         -7.7940   77.1960   24.1250 N.3   323  THR323     -0.1203
     76  CA        -7.9760   75.8120   23.7190 C.3   323  THR323      0.1994
     77  C         -7.3830   74.8820   24.7640 C.2   323  THR323      0.2619
     78  O         -6.6590   75.3180   25.6570 O.2   323  THR323     -0.2717
     79  CB        -7.3290   75.5210   22.3500 C.3   323  THR323      0.1784
     80  OG1       -6.1430   74.7100   22.5280 O.3   323  THR323     -0.2211
     81  CG2       -6.9990   76.8030   21.6290 C.3   323  THR323      0.0376
     82  N         -7.7020   73.6020   24.6580 N.am  324  SER324     -0.1937
     83  CA        -7.1800   72.6230   25.5820 C.3   324  SER324      0.2055
     84  C         -6.1090   71.7800   24.9180 C.2   324  SER324      0.2643
     85  O         -5.9130   71.8580   23.7080 O.2   324  SER324     -0.2714
     86  CB        -8.2960   71.7390   26.1030 C.3   324  SER324      0.2130
     87  OG        -8.4000   70.5540   25.3470 O.3   324  SER324     -0.2179
     88  N         -5.4180   70.9720   25.7120 N.am  325  VAL325     -0.1963
     89  CA        -4.2780   70.2040   25.2140 C.3   325  VAL325      0.1712
     90  C         -4.6380   68.7420   24.9680 C.2   325  VAL325      0.2458
     91  O         -5.0180   68.0200   25.8990 O.2   325  VAL325     -0.2730
     92  CB        -3.0510   70.2920   26.1820 C.3   325  VAL325      0.0289
     93  CG1       -1.9090   69.4160   25.6840 C.3   325  VAL325      0.0023
     94  CG2       -2.5940   71.7280   26.3370 C.3   325  VAL325      0.0023
     95  N         -4.5240   68.3000   23.7070 N.am  326  PRO326     -0.2727
     96  CA        -4.7440   66.9020   23.3460 C.3   326  PRO326      0.1402
     97  C         -3.7150   66.0060   24.0110 C.2   326  PRO326      0.2269
     98  O         -2.5640   66.3970   24.1440 O.2   326  PRO326     -0.2865
     99  CB        -4.5380   66.8980   21.8220 C.3   326  PRO326      0.0296
    100  CG        -4.6970   68.3280   21.4110 C.3   326  PRO326      0.0237
    101  CD        -4.1790   69.1240   22.5370 C.3   326  PRO326      0.0939
@<TRIPOS>BOND
     1    73    72    1
     2    73    74    1
     3    72    69    1
     4    74    68    1
     5    69    68    1
     6    69    70    1
     7    68    62   am
     8    66    65   ar
     9    70    71    2
    10    65    67   ar
    11    65    64    1
    12    62    61    1
    13    62    63    2
    14    61    64    1
    15    61    60    1
    16    44    46   ar
    17    44    43   ar
    18    46    47   ar
    19    13    11    1
    20    42    43    1
    21    42    39    1
    22    43    45   ar
    23   100    99    1
    24   100   101    1
    25    47    45   ar
    26    81    79    1
    27    11     8    1
    28    11    12    1
    29    99    96    1
    30    38    39    1
    31    59    56    1
    32    39    40    1
    33    79    80    1
    34    79    76    1
    35     8     9    1
    36     8     7    1
    37   101    95    1
    38    16    17    2
    39    16    15    1
    40     4     3    2
    41    10     9    2
    42     9    14   am
    43    56    55    1
    44    56    57    1
    45    14    20    1
    46    14    15    1
    47    96    95    1
    48    96    97    1
    49    40    41    2
    50    20    19    1
    51    55    50   am
    52     3     7   am
    53     3     2    1
    54    19    18    1
    55    95    90   am
    56    85    84    2
    57    76    75    1
    58    76    77    1
    59    15    18    1
    60    97    98    2
    61     6     5    1
    62    57    58    2
    63    50    49    1
    64    50    51    2
    65     5     2    1
    66    82    77   am
    67    82    83    1
    68    77    78    2
    69    49    48    1
    70    49    52    1
    71     2     1    1
    72    84    83    1
    73    84    88   am
    74    90    89    1
    75    90    91    2
    76    89    88    1
    77    89    92    1
    78    48    54    1
    79    87    86    1
    80    83    86    1
    81    93    92    1
    82    29    27   ar
    83    52    53    1
    84    92    94    1
    85    54    53    1
    86    27    28   ar
    87    27    26    1
    88    36    35    1
    89    26    25    1
    90    37    35    1
    91    35    34    1
    92    25    22    1
    93    34    31    1
    94    21    22    1
    95    22    23    1
    96    31    32    1
    97    31    30    1
    98    32    33    2
    99    23    24    2
