@<TRIPOS>MOLECULE
tmp/3fkbF00.pdb
 136 128 0 0 0
SMALL
GASTEIGER

@<TRIPOS>ATOM
      1  N         21.8610   -7.2840   32.3860 N.3    11  LYS11      -0.1245
      2  CA        22.8360   -7.2520   33.4640 C.3    11  LYS11       0.1561
      3  C         23.8310   -6.0990   33.4040 C.2    11  LYS11       0.2260
      4  O         23.8930   -5.3740   32.4090 O.2    11  LYS11      -0.2867
      5  CB        23.5150   -8.6210   33.5460 C.3    11  LYS11       0.0271
      6  CG        22.5170   -9.6880   34.0050 C.3    11  LYS11       0.0035
      7  CD        23.1190  -11.0710   34.1200 C.3    11  LYS11       0.0206
      8  CE        23.3740  -11.6780   32.7550 C.3    11  LYS11       0.1093
      9  NZ        23.8490  -13.0840   32.8850 N.3    11  LYS11      -0.1314
     10  N         17.1240  -14.7280   43.0140 N.3    50  HIS50      -0.1226
     11  CA        17.0200  -14.8450   41.5660 C.3    50  HIS50       0.1752
     12  C         17.7530  -16.0860   41.0470 C.2    50  HIS50       0.2596
     13  O         17.2350  -16.8150   40.1970 O.2    50  HIS50      -0.2718
     14  CB        17.6010  -13.5830   40.9140 C.3    50  HIS50       0.0759
     15  CG        17.5180  -13.5770   39.4200 C.ar   50  HIS50       0.0818
     16  ND1       16.3180  -13.5290   38.7410 N.ar   50  HIS50      -0.2268
     17  CD2       18.4850  -13.6150   38.4730 C.ar   50  HIS50       0.1154
     18  CE1       16.5510  -13.5370   37.4400 C.ar   50  HIS50       0.1986
     19  NE2       17.8580  -13.5890   37.2510 N.ar   50  HIS50      -0.2212
     20  N         18.9510  -16.3270   41.5740 N.am   51  TYR51      -0.1976
     21  CA        19.7750  -17.4590   41.1560 C.3    51  TYR51       0.1639
     22  C         19.7100  -18.6540   42.1150 C.2    51  TYR51       0.2290
     23  O         20.6330  -19.4750   42.1600 O.2    51  TYR51      -0.2864
     24  CB        21.2350  -17.0030   41.0130 C.3    51  TYR51       0.0560
     25  CG        21.5100  -16.0860   39.8350 C.ar   51  TYR51      -0.0198
     26  CD1       21.2360  -16.4980   38.5310 C.ar   51  TYR51      -0.0009
     27  CD2       22.0870  -14.8250   40.0180 C.ar   51  TYR51      -0.0009
     28  CE1       21.5310  -15.6840   37.4360 C.ar   51  TYR51       0.0417
     29  CE2       22.3870  -14.0020   38.9260 C.ar   51  TYR51       0.0417
     30  CZ        22.1070  -14.4420   37.6400 C.ar   51  TYR51       0.1957
     31  OH        22.4270  -13.6560   36.5500 O.3    51  TYR51      -0.2866
     32  N         18.4310  -21.5640   42.1050 N.3    53  GLU53      -0.1231
     33  CA        18.7020  -22.9060   41.5930 C.3    53  GLU53       0.1699
     34  C         20.1840  -23.2700   41.6130 C.2    53  GLU53       0.2592
     35  O         20.5350  -24.4500   41.6650 O.2    53  GLU53      -0.2718
     36  CB        18.1690  -23.0590   40.1680 C.3    53  GLU53       0.0402
     37  CG        18.7720  -22.0920   39.1690 C.3    53  GLU53       0.1161
     38  CD        18.4060  -22.4350   37.7400 C.2    53  GLU53       0.3649
     39  OE1       18.2520  -21.5010   36.9290 O.co2  53  GLU53      -0.2457
     40  OE2       18.2820  -23.6410   37.4280 O.co2  53  GLU53      -0.2457
     41  N         21.0470  -22.2580   41.5830 N.am   54  HIS54      -0.1976
     42  CA        22.4920  -22.4680   41.5720 C.3    54  HIS54       0.1656
     43  C         23.1630  -22.2580   42.9240 C.2    54  HIS54       0.2291
     44  O         24.3880  -22.1620   43.0030 O.2    54  HIS54      -0.2864
     45  CB        23.1470  -21.5330   40.5550 C.3    54  HIS54       0.0771
     46  CG        22.6900  -21.7540   39.1480 C.ar   54  HIS54       0.0820
     47  ND1       22.7450  -22.9870   38.5350 N.ar   54  HIS54      -0.2267
     48  CD2       22.1880  -20.8980   38.2280 C.ar   54  HIS54       0.1154
     49  CE1       22.2960  -22.8800   37.2960 C.ar   54  HIS54       0.1986
     50  NE2       21.9530  -21.6220   37.0850 N.ar   54  HIS54      -0.2212
     51  N         26.1420  -24.3870   43.3770 N.3    57  ARG57      -0.1245
     52  CA        27.0790  -24.4790   42.2610 C.3    57  ARG57       0.1563
     53  C         28.2870  -23.5950   42.5700 C.2    57  ARG57       0.2260
     54  O         28.1570  -22.5650   43.2300 O.2    57  ARG57      -0.2867
     55  CB        26.4100  -24.0190   40.9600 C.3    57  ARG57       0.0307
     56  CG        25.2420  -24.8930   40.5140 C.3    57  ARG57       0.0489
     57  CD        25.7050  -26.2950   40.1410 C.3    57  ARG57       0.2205
     58  NE        26.4580  -26.3200   38.8880 N.pl3  57  ARG57      -0.0865
     59  CZ        25.9180  -26.1560   37.6820 C.cat  57  ARG57       0.5346
     60  NH1       24.6130  -25.9540   37.5540 N.pl3  57  ARG57       0.1354
     61  NH2       26.6840  -26.1930   36.6000 N.pl3  57  ARG57       0.1354
     62  N         29.8800  -21.5250   40.8080 N.3    59  PHE59      -0.1241
     63  CA        29.7970  -20.1930   40.2160 C.3    59  PHE59       0.1605
     64  C         28.6960  -19.3050   40.7930 C.2    59  PHE59       0.2264
     65  O         28.5170  -18.1710   40.3500 O.2    59  PHE59      -0.2867
     66  CB        29.6150  -20.3230   38.7020 C.3    59  PHE59       0.0534
     67  CG        28.4710  -21.2130   38.3040 C.ar   59  PHE59      -0.0203
     68  CD1       27.1530  -20.7990   38.4760 C.ar   59  PHE59      -0.0042
     69  CD2       28.7110  -22.4720   37.7650 C.ar   59  PHE59      -0.0042
     70  CE1       26.0940  -21.6260   38.1170 C.ar   59  PHE59      -0.0003
     71  CE2       27.6560  -23.3080   37.4010 C.ar   59  PHE59      -0.0003
     72  CZ        26.3460  -22.8830   37.5770 C.ar   59  PHE59      -0.0000
     73  N         27.9790  -15.2350   40.0790 N.3    63  LEU63      -0.1245
     74  CA        26.7620  -14.7370   39.4460 C.3    63  LEU63       0.1561
     75  C         26.1660  -13.6310   40.3000 C.2    63  LEU63       0.2260
     76  O         25.7660  -12.5810   39.7920 O.2    63  LEU63      -0.2867
     77  CB        25.7340  -15.8590   39.2910 C.3    63  LEU63       0.0270
     78  CG        25.9940  -16.9180   38.2160 C.3    63  LEU63       0.0019
     79  CD1       24.8780  -17.9550   38.2430 C.3    63  LEU63       0.0001
     80  CD2       26.0600  -16.2520   36.8490 C.3    63  LEU63       0.0001
     81  N         13.9000  -16.3400   25.0570 N.3    87  ARG87      -0.1245
     82  CA        15.1250  -17.1200   25.2110 C.3    87  ARG87       0.1563
     83  C         15.7620  -17.3370   23.8420 C.2    87  ARG87       0.2260
     84  O         16.9780  -17.2530   23.6960 O.2    87  ARG87      -0.2867
     85  CB        14.8230  -18.4710   25.8590 C.3    87  ARG87       0.0307
     86  CG        14.3410  -18.3750   27.2970 C.3    87  ARG87       0.0489
     87  CD        15.4870  -18.2050   28.2880 C.3    87  ARG87       0.2205
     88  NE        16.2720  -19.4320   28.4360 N.pl3  87  ARG87      -0.0865
     89  CZ        17.0240  -19.7150   29.4970 C.cat  87  ARG87       0.5346
     90  NH1       17.0970  -18.8610   30.5080 N.pl3  87  ARG87       0.1354
     91  NH2       17.6910  -20.8620   29.5570 N.pl3  87  ARG87       0.1354
     92  N         23.4150  -20.0960   26.3290 N.3    93  THR93      -0.1218
     93  CA        24.2460  -19.6360   27.4390 C.3    93  THR93       0.1862
     94  C         25.6020  -19.0580   27.0310 C.2    93  THR93       0.2287
     95  O         26.0080  -18.0080   27.5360 O.2    93  THR93      -0.2866
     96  CB        24.4550  -20.7660   28.4590 C.3    93  THR93       0.1770
     97  OG1       23.1770  -21.2540   28.8830 O.3    93  THR93      -0.2211
     98  CG2       25.2130  -20.2530   29.6740 C.3    93  THR93       0.0375
     99  N         22.9650  -12.3720   22.2120 N.3   104  ARG104     -0.1245
    100  CA        24.2960  -12.8160   22.6060 C.3   104  ARG104      0.1563
    101  C         25.1410  -13.1300   21.3730 C.2   104  ARG104      0.2260
    102  O         26.3490  -12.8930   21.3580 O.2   104  ARG104     -0.2867
    103  CB        24.2020  -14.0490   23.5060 C.3   104  ARG104      0.0307
    104  CG        23.6740  -13.7530   24.9000 C.3   104  ARG104      0.0489
    105  CD        23.4400  -15.0490   25.6600 C.3   104  ARG104      0.2205
    106  NE        22.8420  -14.8120   26.9680 N.pl3 104  ARG104     -0.0865
    107  CZ        22.2860  -15.7630   27.7100 C.cat 104  ARG104      0.5346
    108  NH1       22.2580  -17.0120   27.2690 N.pl3 104  ARG104      0.1354
    109  NH2       21.7470  -15.4620   28.8820 N.pl3 104  ARG104      0.1354
    110  N         30.7000  -16.3010   28.6840 N.3   111  VAL111     -0.1231
    111  CA        29.5710  -16.8420   29.4310 C.3   111  VAL111      0.1692
    112  C         29.2020  -15.9870   30.6450 C.2   111  VAL111      0.2592
    113  O         28.0200  -15.7870   30.9300 O.2   111  VAL111     -0.2718
    114  CB        29.8690  -18.2800   29.9140 C.3   111  VAL111      0.0266
    115  CG1       28.7110  -18.8030   30.7240 C.3   111  VAL111      0.0020
    116  CG2       30.1230  -19.1850   28.7270 C.3   111  VAL111      0.0020
    117  N         30.2150  -15.4790   31.3460 N.am  112  GLY112     -0.1957
    118  CA        29.9820  -14.6620   32.5280 C.3   112  GLY112      0.1869
    119  C         29.6240  -13.2160   32.2300 C.2   112  GLY112      0.2309
    120  O         29.3050  -12.4380   33.1310 O.2   112  GLY112     -0.2863
    121  N         27.3150  -12.3670   29.5540 N.3   114  ASN114     -0.1240
    122  CA        26.3910  -12.6510   28.4720 C.3   114  ASN114      0.1653
    123  C         25.2350  -11.6750   28.2890 C.2   114  ASN114      0.2266
    124  O         24.1680  -12.0430   27.7920 O.2   114  ASN114     -0.2867
    125  CB        25.8800  -14.0930   28.5640 C.3   114  ASN114      0.1155
    126  CG        25.1430  -14.3770   29.8470 C.2   114  ASN114      0.2627
    127  OD1       24.8300  -13.4710   30.6160 O.2   114  ASN114     -0.2716
    128  ND2       24.8460  -15.6530   30.0780 N.am  114  ASN114     -0.0877
    129  N         19.6390  -11.9580   30.6050 N.3   117  GLY117     -0.1210
    130  CA        19.1580  -13.2680   30.9930 C.3   117  GLY117      0.1956
    131  C         17.6460  -13.2350   31.0800 C.2   117  GLY117      0.2612
    132  O         17.0780  -12.3120   31.6680 O.2   117  GLY117     -0.2717
    133  N         16.9930  -14.2280   30.4830 N.am  118  GLY118     -0.1956
    134  CA        15.5430  -14.2960   30.5280 C.3   118  GLY118      0.1869
    135  C         15.0730  -15.5300   31.2820 C.2   118  GLY118      0.2309
    136  O         15.8440  -16.4750   31.4620 O.2   118  GLY118     -0.2863
@<TRIPOS>BOND
     1   102   101    2
     2   101   100    1
     3    99   100    1
     4   100   103    1
     5   103   104    1
     6    84    83    2
     7    83    82    1
     8   104   105    1
     9    81    82    1
    10    82    85    1
    11   105   106    1
    12    85    86    1
    13    92    93    1
    14   106   107    2
    15    94    93    1
    16    94    95    2
    17   108   107    1
    18    86    87    1
    19    93    96    1
    20   107   109    1
    21   124   123    2
    22    87    88    1
    23   123   122    1
    24    88    89    2
    25    96    97    1
    26    96    98    1
    27   122   125    1
    28   122   121    1
    29   125   126    1
    30   110   111    1
    31   116   114    1
    32   111   114    1
    33   111   112    1
    34    89    91    1
    35    89    90    1
    36   126   128   am
    37   126   127    2
    38   114   115    1
    39   133   134    1
    40   133   131   am
    41   134   135    1
    42   129   130    1
    43   112   113    2
    44   112   117   am
    45   130   131    1
    46   131   132    2
    47   135   136    2
    48   117   118    1
    49   119   118    1
    50   119   120    2
    51     1     2    1
    52     4     3    2
    53     8     9    1
    54     8     7    1
    55     3     2    1
    56     2     5    1
    57     5     6    1
    58     6     7    1
    59    31    30    1
    60    61    59    1
    61    80    78    1
    62    39    38   ar
    63    50    49   ar
    64    50    48   ar
    65    19    18   ar
    66    19    17   ar
    67    49    47   ar
    68    71    72   ar
    69    71    69   ar
    70    40    38   ar
    71    28    30   ar
    72    28    26   ar
    73    18    16   ar
    74    60    59    1
    75    72    70   ar
    76    30    29   ar
    77    59    58    2
    78    38    37    1
    79    69    67   ar
    80    70    68   ar
    81    78    79    1
    82    78    77    1
    83    48    46   ar
    84    67    68   ar
    85    67    66    1
    86    17    15   ar
    87    26    25   ar
    88    47    46   ar
    89    66    63    1
    90    16    15   ar
    91    58    57    1
    92    29    27   ar
    93    46    45    1
    94    37    36    1
    95    77    74    1
    96    15    14    1
    97    74    73    1
    98    74    75    1
    99    76    75    2
   100    25    27   ar
   101    25    24    1
   102    57    56    1
   103    36    33    1
   104    13    12    2
   105    63    64    1
   106    63    62    1
   107    65    64    2
   108    56    55    1
   109    45    42    1
   110    14    11    1
   111    55    52    1
   112    24    21    1
   113    12    11    1
   114    12    20   am
   115    21    20    1
   116    21    22    1
   117    11    10    1
   118    42    41    1
   119    42    43    1
   120    41    34   am
   121    33    34    1
   122    33    32    1
   123    34    35    2
   124    22    23    2
   125    52    53    1
   126    52    51    1
   127    53    54    2
   128    43    44    2
