@<TRIPOS>MOLECULE
tmp/3fklA00.pdb
 192 180 0 0 0
SMALL
GASTEIGER

@<TRIPOS>ATOM
      1  N         24.4190    9.3000   38.8030 N.3    27  VAL27      -0.1231
      2  CA        25.3650    9.2750   37.6790 C.3    27  VAL27       0.1692
      3  C         25.6620   10.6720   37.1210 C.2    27  VAL27       0.2593
      4  O         26.3800   10.8140   36.1320 O.2    27  VAL27      -0.2718
      5  CB        24.9480    8.2980   36.5400 C.3    27  VAL27       0.0266
      6  CG1       24.9700    6.8590   37.0350 C.3    27  VAL27       0.0020
      7  CG2       23.5940    8.6630   35.9640 C.3    27  VAL27       0.0020
      8  N         25.1070   11.6950   37.7630 N.am   28  GLY28      -0.1942
      9  CA        25.4320   13.0710   37.4240 C.3    28  GLY28       0.2014
     10  C         24.2630   13.9190   36.9730 C.2    28  GLY28       0.2640
     11  O         23.0960   13.5770   37.1900 O.2    28  GLY28      -0.2714
     12  N         24.5870   15.0390   36.3370 N.am   29  SER29      -0.1935
     13  CA        23.5670   15.9730   35.8950 C.3    29  SER29       0.2055
     14  C         22.9870   15.5380   34.5590 C.2    29  SER29       0.2644
     15  O         23.6640   14.8930   33.7530 O.2    29  SER29      -0.2714
     16  CB        24.1490   17.3820   35.7710 C.3    29  SER29       0.2130
     17  OG        25.0020   17.4680   34.6410 O.3    29  SER29      -0.2179
     18  N         21.7230   15.8810   34.3500 N.am   30  GLY30      -0.1939
     19  CA        21.1060   15.8360   33.0330 C.3    30  GLY30       0.2014
     20  C         20.5430   17.2180   32.7810 C.2    30  GLY30       0.2638
     21  O         20.8030   18.1460   33.5500 O.2    30  GLY30      -0.2714
     22  N         19.7580   17.3630   31.7190 N.am   31  ALA31      -0.1977
     23  CA        19.1520   18.6500   31.4050 C.3    31  ALA31       0.1597
     24  C         17.9740   18.9300   32.3370 C.2    31  ALA31       0.2287
     25  O         16.9780   18.1940   32.3410 O.2    31  ALA31      -0.2864
     26  CB        18.7220   18.6980   29.9420 C.3    31  ALA31       0.0319
     27  N         20.4520   12.8270   37.4470 N.3    35  VAL35      -0.1245
     28  CA        20.1650   11.5210   36.8780 C.3    35  VAL35       0.1561
     29  C         20.7240   10.4280   37.7920 C.2    35  VAL35       0.2260
     30  O         21.8540   10.5420   38.2780 O.2    35  VAL35      -0.2867
     31  CB        20.7510   11.4040   35.4400 C.3    35  VAL35       0.0252
     32  CG1       20.4840   10.0320   34.8380 C.3    35  VAL35       0.0019
     33  CG2       20.1750   12.4990   34.5290 C.3    35  VAL35       0.0019
     34  N         18.1960    4.7950   33.2840 N.3    48  ALA48      -0.1245
     35  CA        18.5490    6.1150   33.8050 C.3    48  ALA48       0.1562
     36  C         17.2730    6.8130   34.2520 C.2    48  ALA48       0.2260
     37  O         16.3010    6.8770   33.5060 O.2    48  ALA48      -0.2867
     38  CB        19.2700    6.9430   32.7410 C.3    48  ALA48       0.0290
     39  N         15.8010   10.3860   35.5710 N.3    50  LYS50      -0.1245
     40  CA        16.0010   11.8140   35.8050 C.3    50  LYS50       0.1561
     41  C         14.8230   12.3980   36.5610 C.2    50  LYS50       0.2260
     42  O         13.6900   12.3010   36.1090 O.2    50  LYS50      -0.2867
     43  CB        16.2000   12.5880   34.4970 C.3    50  LYS50       0.0271
     44  CG        16.5330   14.0680   34.7280 C.3    50  LYS50       0.0035
     45  CD        17.0590   14.7630   33.4740 C.3    50  LYS50       0.0206
     46  CE        15.9590   15.0150   32.4760 C.3    50  LYS50       0.1093
     47  NZ        16.4660   15.7500   31.2800 N.3    50  LYS50      -0.1314
     48  N          9.9660   18.9060   27.1310 N.3    68  GLU68      -0.1245
     49  CA        10.7860   17.6980   27.2460 C.3    68  GLU68       0.1567
     50  C          9.9440   16.4240   27.1750 C.2    68  GLU68       0.2260
     51  O         10.2720   15.5010   26.4310 O.2    68  GLU68      -0.2867
     52  CB        11.6230   17.6950   28.5240 C.3    68  GLU68       0.0388
     53  CG        12.5310   16.4680   28.6140 C.3    68  GLU68       0.1160
     54  CD        13.6440   16.5970   29.6320 C.2    68  GLU68       0.3649
     55  OE1       13.6280   17.5570   30.4290 O.co2  68  GLU68      -0.2457
     56  OE2       14.5360   15.7240   29.6350 O.co2  68  GLU68      -0.2457
     57  N          8.6520   15.7570   23.6960 N.3    71  LEU71      -0.1231
     58  CA         9.7650   15.2840   22.8740 C.3    71  LEU71       0.1693
     59  C         10.0560   13.8160   23.1490 C.2    71  LEU71       0.2591
     60  O         10.1320   13.0090   22.2300 O.2    71  LEU71      -0.2718
     61  CB        11.0260   16.1250   23.1270 C.3    71  LEU71       0.0284
     62  CG        11.0240   17.5560   22.5670 C.3    71  LEU71       0.0019
     63  CD1       12.0900   18.4160   23.2420 C.3    71  LEU71       0.0001
     64  CD2       11.1920   17.5530   21.0550 C.3    71  LEU71       0.0001
     65  N         10.2010   13.4770   24.4250 N.am   72  LEU72      -0.1980
     66  CA        10.5440   12.1200   24.8290 C.3    72  LEU72       0.1596
     67  C          9.4720   11.1170   24.4280 C.2    72  LEU72       0.2287
     68  O          9.7940   10.0340   23.9430 O.2    72  LEU72      -0.2864
     69  CB        10.7930   12.0610   26.3340 C.3    72  LEU72       0.0297
     70  CG        12.0940   12.7060   26.8140 C.3    72  LEU72       0.0022
     71  CD1       12.0740   12.8100   28.3170 C.3    72  LEU72       0.0001
     72  CD2       13.2990   11.9080   26.3310 C.3    72  LEU72       0.0001
     73  N         17.4630    8.8850   22.2050 N.3    81  ILE81      -0.1245
     74  CA        17.0220    8.5140   23.5470 C.3    81  ILE81       0.1561
     75  C         15.5000    8.4130   23.5980 C.2    81  ILE81       0.2260
     76  O         14.7910    9.2860   23.0870 O.2    81  ILE81      -0.2867
     77  CB        17.5830    9.4610   24.6600 C.3    81  ILE81       0.0252
     78  CG1       17.5530    8.7720   26.0280 C.3    81  ILE81       0.0019
     79  CG2       16.8480   10.8020   24.7080 C.3    81  ILE81       0.0019
     80  CD1       18.3800    7.4970   26.0910 C.3    81  ILE81       0.0001
     81  N         11.6880   10.8940   34.7400 N.3   101  LEU101     -0.1245
     82  CA        11.7830   10.3720   33.3780 C.3   101  LEU101      0.1561
     83  C         12.7630    9.2170   33.3450 C.2   101  LEU101      0.2260
     84  O         13.8830    9.3350   33.8550 O.2   101  LEU101     -0.2867
     85  CB        12.2390   11.4720   32.4100 C.3   101  LEU101      0.0270
     86  CG        11.4440   12.7760   32.3770 C.3   101  LEU101      0.0019
     87  CD1       12.2470   13.8730   31.7080 C.3   101  LEU101      0.0001
     88  CD2       10.0920   12.5820   31.6850 C.3   101  LEU101      0.0001
     89  N         14.7990    6.2950   31.0620 N.3   103  THR103     -0.1203
     90  CA        15.3080    5.9100   29.7530 C.3   103  THR103      0.1994
     91  C         16.2550    4.7370   29.9260 C.2   103  THR103      0.2618
     92  O         16.5350    4.3310   31.0540 O.2   103  THR103     -0.2717
     93  CB        16.0970    7.0610   29.0760 C.3   103  THR103      0.1784
     94  OG1       17.3800    7.2000   29.7010 O.3   103  THR103     -0.2211
     95  CG2       15.3360    8.3840   29.1490 C.3   103  THR103      0.0376
     96  N         16.7640    4.2030   28.8180 N.am  104  HIS104     -0.1961
     97  CA        17.8580    3.2410   28.8890 C.3   104  HIS104      0.1787
     98  C         19.0760    3.8910   29.5310 C.2   104  HIS104      0.2620
     99  O         19.2970    5.0970   29.3770 O.2   104  HIS104     -0.2715
    100  CB        18.2340    2.7310   27.5000 C.3   104  HIS104      0.0785
    101  CG        17.3520    1.6320   27.0000 C.ar  104  HIS104      0.0821
    102  ND1       16.4510    1.8110   25.9730 N.ar  104  HIS104     -0.2267
    103  CD2       17.2340    0.3400   27.3820 C.ar  104  HIS104      0.1154
    104  CE1       15.8140    0.6760   25.7460 C.ar  104  HIS104      0.1986
    105  NE2       16.2680   -0.2310   26.5890 N.ar  104  HIS104     -0.2212
    106  N         19.8480    3.0890   30.2630 N.am  105  LEU105     -0.1963
    107  CA        21.1220    3.5340   30.8070 C.3   105  LEU105      0.1728
    108  C         22.2240    3.1770   29.8230 C.2   105  LEU105      0.2616
    109  O         22.3840    2.0160   29.4600 O.2   105  LEU105     -0.2715
    110  CB        21.4000    2.8770   32.1670 C.3   105  LEU105      0.0311
    111  CG        22.6930    3.2720   32.8960 C.3   105  LEU105      0.0022
    112  CD1       22.6980    4.7490   33.3090 C.3   105  LEU105      0.0001
    113  CD2       22.9210    2.3730   34.1110 C.3   105  LEU105      0.0001
    114  N         22.9780    4.1800   29.3900 N.am  106  MET106     -0.1963
    115  CA        24.0980    3.9460   28.4870 C.3   106  MET106      0.1736
    116  C         25.4010    3.9150   29.2770 C.2   106  MET106      0.2617
    117  O         25.5300    4.5880   30.3020 O.2   106  MET106     -0.2715
    118  CB        24.1430    5.0220   27.3980 C.3   106  MET106      0.0427
    119  CG        22.8010    5.2470   26.6820 C.3   106  MET106      0.0599
    120  SD        22.2430    3.8050   25.7680 S.3   106  MET106     -0.1393
    121  CE        23.5430    3.6380   24.5390 C.3   106  MET106      0.0692
    122  N         26.3620    3.1350   28.7910 N.am  107  GLY107     -0.1940
    123  CA        27.6300    2.9170   29.4900 C.3   107  GLY107      0.2014
    124  C         28.5510    4.1220   29.6080 C.2   107  GLY107      0.2639
    125  O         29.2730    4.2650   30.5960 O.2   107  GLY107     -0.2714
    126  N         28.5380    4.9890   28.5980 N.am  108  ALA108     -0.1963
    127  CA        29.4380    6.1360   28.5690 C.3   108  ALA108      0.1728
    128  C         28.9790    7.1640   27.5500 C.2   108  ALA108      0.2616
    129  O         27.9920    6.9520   26.8460 O.2   108  ALA108     -0.2715
    130  CB        30.8690    5.6810   28.2550 C.3   108  ALA108      0.0334
    131  N         29.6870    8.2860   27.4900 N.am  109  ASP109     -0.1971
    132  CA        29.4870    9.2440   26.4090 C.3   109  ASP109      0.1709
    133  C         30.7050    9.2660   25.4970 C.2   109  ASP109      0.2293
    134  O         31.7420    8.6770   25.8170 O.2   109  ASP109     -0.2864
    135  CB        29.1160   10.6420   26.9340 C.3   109  ASP109      0.1436
    136  CG        30.2250   11.2970   27.7510 C.2   109  ASP109      0.3671
    137  OD1       29.8880   12.0460   28.6880 O.co2 109  ASP109     -0.2456
    138  OD2       31.4190   11.0900   27.4550 O.co2 109  ASP109     -0.2456
    139  N         34.3010    9.9240   26.7220 N.3   112  ASN112     -0.1240
    140  CA        34.9440    8.7830   27.3660 C.3   112  ASN112      0.1653
    141  C         35.6420    7.8710   26.3630 C.2   112  ASN112      0.2266
    142  O         36.6620    7.2630   26.6750 O.2   112  ASN112     -0.2867
    143  CB        33.9270    7.9760   28.1870 C.3   112  ASN112      0.1155
    144  CG        33.2080    8.8170   29.2470 C.2   112  ASN112      0.2627
    145  OD1       32.0360    8.5700   29.5570 O.2   112  ASN112     -0.2716
    146  ND2       33.9070    9.8050   29.8120 N.am  112  ASN112     -0.0877
    147  N         29.4470   14.9910   24.8000 N.3   151  SER151     -0.1217
    148  CA        28.8320   14.7060   26.0940 C.3   151  SER151      0.1889
    149  C         27.3380   14.3630   26.0490 C.2   151  SER151      0.2288
    150  O         26.8150   13.8110   27.0130 O.2   151  SER151     -0.2866
    151  CB        29.1210   15.8170   27.1080 C.3   151  SER151      0.2089
    152  OG        28.4920   17.0230   26.7440 O.3   151  SER151     -0.2183
    153  N         25.5640    9.2530   23.7920 N.3   154  ALA154     -0.1245
    154  CA        25.7480    8.1550   24.7340 C.3   154  ALA154      0.1562
    155  C         25.9170    6.8510   23.9870 C.2   154  ALA154      0.2260
    156  O         25.2180    6.5900   23.0120 O.2   154  ALA154     -0.2867
    157  CB        24.5760    8.0750   25.6840 C.3   154  ALA154      0.0290
    158  N         21.1120   12.3310   23.0490 N.3   164  LEU164     -0.1231
    159  CA        20.4200   12.9080   24.2030 C.3   164  LEU164      0.1693
    160  C         20.3190   14.4320   24.0910 C.2   164  LEU164      0.2592
    161  O         21.1110   15.0670   23.3860 O.2   164  LEU164     -0.2718
    162  CB        21.2100   12.6060   25.4860 C.3   164  LEU164      0.0284
    163  CG        21.1550   11.2800   26.2550 C.3   164  LEU164      0.0019
    164  CD1       21.3990   10.0900   25.3660 C.3   164  LEU164      0.0001
    165  CD2       22.2080   11.3410   27.3360 C.3   164  LEU164      0.0001
    166  N         19.3550   14.9980   24.8160 N.am  165  ASP165     -0.1960
    167  CA        19.2850   16.4460   25.1010 C.3   165  ASP165      0.1840
    168  C         18.9360   17.3540   23.9030 C.2   165  ASP165      0.2622
    169  O         19.2190   18.5540   23.9110 O.2   165  ASP165     -0.2715
    170  CB        20.5490   16.9180   25.8530 C.3   165  ASP165      0.1450
    171  CG        20.6230   16.3690   27.2850 C.2   165  ASP165      0.3671
    172  OD1       21.6660   16.5800   27.9550 O.co2 165  ASP165     -0.2456
    173  OD2       19.6450   15.7230   27.7420 O.co2 165  ASP165     -0.2456
    174  N         18.3000   16.7740   22.8890 N.am  166  PHE166     -0.1974
    175  CA        17.8500   17.5250   21.7140 C.3   166  PHE166      0.1639
    176  C         16.5790   18.3270   22.0050 C.2   166  PHE166      0.2290
    177  O         15.8180   17.9830   22.9070 O.2   166  PHE166     -0.2864
    178  CB        17.5850   16.5640   20.5590 C.3   166  PHE166      0.0560
    179  CG        16.7230   15.3970   20.9370 C.ar  166  PHE166     -0.0200
    180  CD1       15.3330   15.4950   20.8920 C.ar  166  PHE166     -0.0042
    181  CD2       17.2990   14.1960   21.3480 C.ar  166  PHE166     -0.0042
    182  CE1       14.5270   14.4180   21.2570 C.ar  166  PHE166     -0.0003
    183  CE2       16.5050   13.1140   21.7100 C.ar  166  PHE166     -0.0003
    184  CZ        15.1120   13.2270   21.6630 C.ar  166  PHE166     -0.0000
    185  N         15.8940   21.2350   23.2740 N.3   168  LEU168     -0.1245
    186  CA        15.7690   22.0090   24.5060 C.3   168  LEU168      0.1561
    187  C         16.4640   23.3680   24.4500 C.2   168  LEU168      0.2260
    188  O         15.9350   24.3580   24.9600 O.2   168  LEU168     -0.2867
    189  CB        16.2860   21.2000   25.7020 C.3   168  LEU168      0.0270
    190  CG        15.5340   19.9150   26.0650 C.3   168  LEU168      0.0019
    191  CD1       16.2190   19.2070   27.2270 C.3   168  LEU168      0.0001
    192  CD2       14.0650   20.2050   26.3830 C.3   168  LEU168      0.0001
@<TRIPOS>BOND
     1   178   179    1
     2   178   175    1
     3   180   179   ar
     4   180   182   ar
     5   179   181   ar
     6    64    62    1
     7   182   184   ar
     8   181   183   ar
     9   184   183   ar
    10   175   176    1
    11   175   174    1
    12   176   177    2
    13    73    74    1
    14    60    59    2
    15    62    61    1
    16    62    63    1
    17    58    61    1
    18    58    59    1
    19    58    57    1
    20   174   168   am
    21   156   155    2
    22   158   159    1
    23    76    75    2
    24    59    65   am
    25   185   186    1
    26   161   160    2
    27    74    75    1
    28    74    77    1
    29   153   154    1
    30   168   169    2
    31   168   167    1
    32    68    67    2
    33   155   154    1
    34   160   159    1
    35   160   166   am
    36   159   162    1
    37    65    66    1
    38    67    66    1
    39   187   186    1
    40   187   188    2
    41   186   189    1
    42   121   120    1
    43    77    79    1
    44    77    78    1
    45   154   157    1
    46   147   148    1
    47   166   167    1
    48    66    69    1
    49   167   170    1
    50   164   163    1
    51   162   163    1
    52   133   134    2
    53   133   132    1
    54   189   190    1
    55   104   102   ar
    56   104   105   ar
    57   120   119    1
    58   170   171    1
    59   102   101   ar
    60    78    80    1
    61   149   148    1
    62   149   150    2
    63   190   192    1
    64   190   191    1
    65   148   151    1
    66   163   165    1
    67    72    70    1
    68    69    70    1
    69   141   142    2
    70   141   140    1
    71   132   135    1
    72   132   131    1
    73    51    50    2
    74   105   103   ar
    75   119   118    1
    76   139   140    1
    77   152   151    1
    78    70    71    1
    79   129   128    2
    80   135   136    1
    81   101   103   ar
    82   101   100    1
    83    48    49    1
    84    50    49    1
    85    49    52    1
    86   171   173   ar
    87   171   172   ar
    88   140   143    1
    89   118   115    1
    90   138   136   ar
    91   131   128   am
    92   100    97    1
    93   128   127    1
    94   136   137   ar
    95   143   144    1
    96   130   127    1
    97   115   116    1
    98   115   114    1
    99    52    53    1
   100   127   126    1
   101   126   124   am
   102    53    54    1
   103   122   116   am
   104   122   123    1
   105    96    97    1
   106    96    91   am
   107    97    98    1
   108    93    95    1
   109    93    94    1
   110    93    90    1
   111   144   145    2
   112   144   146   am
   113   116   117    2
   114    99    98    2
   115   114   108   am
   116   109   108    2
   117   123   124    1
   118    98   106   am
   119   124   125    2
   120    54    56   ar
   121    54    55   ar
   122    90    91    1
   123    90    89    1
   124   108   107    1
   125    91    92    2
   126    26    23    1
   127   106   107    1
   128   107   110    1
   129    47    46    1
   130    23    22    1
   131    23    24    1
   132    88    86    1
   133    87    86    1
   134    22    20   am
   135   110   111    1
   136    24    25    2
   137    86    85    1
   138    85    82    1
   139    46    45    1
   140    38    35    1
   141    20    19    1
   142    20    21    2
   143   111   112    1
   144   111   113    1
   145    19    18    1
   146    34    35    1
   147    83    82    1
   148    83    84    2
   149    82    81    1
   150    45    44    1
   151    37    36    2
   152    15    14    2
   153    35    36    1
   154    18    14   am
   155    43    44    1
   156    43    40    1
   157    33    31    1
   158    14    13    1
   159    17    16    1
   160    32    31    1
   161    31    28    1
   162    39    40    1
   163    16    13    1
   164    40    41    1
   165    13    12    1
   166     7     5    1
   167    42    41    2
   168     4     3    2
   169    12    10   am
   170     5     6    1
   171     5     2    1
   172    28    27    1
   173    28    29    1
   174    10    11    2
   175    10     9    1
   176     3     2    1
   177     3     8   am
   178     9     8    1
   179     2     1    1
   180    29    30    2
