@<TRIPOS>MOLECULE
tmp/3fknA00.pdb
 180 169 0 0 0
SMALL
GASTEIGER

@<TRIPOS>ATOM
      1  N         24.1550    9.6970   39.6070 N.3    27  VAL27      -0.1231
      2  CA        25.2200    9.6030   38.6060 C.3    27  VAL27       0.1692
      3  C         25.5120   10.9570   37.9620 C.2    27  VAL27       0.2592
      4  O         24.6600   11.8540   37.9540 O.2    27  VAL27      -0.2718
      5  CB        24.9190    8.5440   37.4990 C.3    27  VAL27       0.0266
      6  CG1       24.8940    7.1310   38.0840 C.3    27  VAL27       0.0020
      7  CG2       23.6190    8.8620   36.7580 C.3    27  VAL27       0.0020
      8  N         26.7270   11.0940   37.4380 N.am   28  GLY28      -0.1957
      9  CA        27.1440   12.2930   36.7170 C.3    28  GLY28       0.1869
     10  C         27.6440   13.4340   37.5830 C.2    28  GLY28       0.2309
     11  O         28.1490   14.4350   37.0610 O.2    28  GLY28      -0.2863
     12  N         24.4430   15.8030   34.6490 N.3    32  TYR32      -0.1241
     13  CA        23.2690   15.4040   33.8700 C.3    32  TYR32       0.1605
     14  C         21.9690   15.9660   34.4490 C.2    32  TYR32       0.2264
     15  O         20.8910   15.7590   33.8920 O.2    32  TYR32      -0.2867
     16  CB        23.1950   13.8780   33.7550 C.3    32  TYR32       0.0534
     17  CG        24.4450   13.2390   33.1960 C.ar   32  TYR32      -0.0201
     18  CD1       24.9940   13.6700   31.9860 C.ar   32  TYR32      -0.0009
     19  CD2       25.0740   12.1910   33.8680 C.ar   32  TYR32      -0.0009
     20  CE1       26.1440   13.0810   31.4650 C.ar   32  TYR32       0.0417
     21  CE2       26.2290   11.5910   33.3540 C.ar   32  TYR32       0.0417
     22  CZ        26.7560   12.0440   32.1520 C.ar   32  TYR32       0.1957
     23  OH        27.8950   11.4630   31.6340 O.3    32  TYR32      -0.2866
     24  N         19.8770   13.1510   38.3650 N.3    35  VAL35      -0.1245
     25  CA        19.7420   11.8660   37.6680 C.3    35  VAL35       0.1561
     26  C         20.2960   10.7090   38.5000 C.2    35  VAL35       0.2260
     27  O         21.3980   10.7960   39.0480 O.2    35  VAL35      -0.2867
     28  CB        20.4230   11.9000   36.2640 C.3    35  VAL35       0.0252
     29  CG1       20.4280   10.5170   35.6050 C.3    35  VAL35       0.0019
     30  CG2       19.7220   12.9000   35.3520 C.3    35  VAL35       0.0019
     31  N         20.9300    6.3440   38.4980 N.3    37  ALA37      -0.1245
     32  CA        20.9040    5.0120   37.9190 C.3    37  ALA37       0.1562
     33  C         19.9750    4.1640   38.7800 C.2    37  ALA37       0.2260
     34  O         19.8210    4.4160   39.9770 O.2    37  ALA37      -0.2867
     35  CB        22.2930    4.4100   37.8920 C.3    37  ALA37       0.0290
     36  N         18.1430    5.2140   33.6620 N.3    48  ALA48      -0.1245
     37  CA        18.4430    6.5030   34.2560 C.3    48  ALA48       0.1562
     38  C         17.1330    7.2160   34.5870 C.2    48  ALA48       0.2260
     39  O         16.2570    7.3560   33.7310 O.2    48  ALA48      -0.2867
     40  CB        19.2940    7.3370   33.3170 C.3    48  ALA48       0.0290
     41  N         15.5260   10.7050   35.9160 N.3    50  LYS50      -0.1245
     42  CA        15.7460   12.1300   36.0830 C.3    50  LYS50       0.1561
     43  C         14.5560   12.7670   36.7890 C.2    50  LYS50       0.2260
     44  O         13.4220   12.6860   36.3120 O.2    50  LYS50      -0.2867
     45  CB        15.9640   12.7790   34.7160 C.3    50  LYS50       0.0271
     46  CG        16.3260   14.2500   34.7470 C.3    50  LYS50       0.0035
     47  CD        16.2840   14.8100   33.3460 C.3    50  LYS50       0.0206
     48  CE        17.0330   16.1150   33.2580 C.3    50  LYS50       0.1093
     49  NZ        17.0130   16.6270   31.8580 N.3    50  LYS50      -0.1314
     50  N         10.2500   19.6900   27.4760 N.3    68  GLU68      -0.1245
     51  CA        11.0680   18.4970   27.6360 C.3    68  GLU68       0.1567
     52  C         10.2240   17.2200   27.6190 C.2    68  GLU68       0.2260
     53  O         10.5940   16.2390   26.9740 O.2    68  GLU68      -0.2867
     54  CB        11.9040   18.5700   28.9190 C.3    68  GLU68       0.0388
     55  CG        12.7830   17.3280   29.1050 C.3    68  GLU68       0.1160
     56  CD        13.8610   17.4780   30.1510 C.2    68  GLU68       0.3649
     57  OE1       13.7460   18.3630   31.0190 O.co2  68  GLU68      -0.2457
     58  OE2       14.8240   16.6840   30.1070 O.co2  68  GLU68      -0.2457
     59  N         10.6400   14.4060   24.7110 N.3    72  LEU72      -0.1245
     60  CA        10.9920   13.0320   25.0890 C.3    72  LEU72       0.1561
     61  C          9.8860   12.0390   24.7580 C.2    72  LEU72       0.2260
     62  O         10.1740   10.9260   24.3310 O.2    72  LEU72      -0.2867
     63  CB        11.3940   12.9330   26.5740 C.3    72  LEU72       0.0270
     64  CG        12.7670   13.4970   26.9730 C.3    72  LEU72       0.0019
     65  CD1       12.8900   13.5820   28.4840 C.3    72  LEU72       0.0001
     66  CD2       13.9360   12.6790   26.3870 C.3    72  LEU72       0.0001
     67  N         17.6370    9.4400   22.5840 N.3    81  ILE81      -0.1231
     68  CA        17.0870    9.1730   23.9060 C.3    81  ILE81       0.1692
     69  C         15.5580    9.3250   23.9100 C.2    81  ILE81       0.2593
     70  O         15.0160   10.3810   23.5590 O.2    81  ILE81      -0.2718
     71  CB        17.7620   10.0560   25.0080 C.3    81  ILE81       0.0266
     72  CG1       19.1530    9.5090   25.3630 C.3    81  ILE81       0.0019
     73  CG2       16.8990   10.1580   26.2720 C.3    81  ILE81       0.0020
     74  CD1       19.1670    8.1420   26.0390 C.3    81  ILE81       0.0001
     75  N         14.8740    8.2480   24.2820 N.am   82  GLY82      -0.1942
     76  CA        13.4220    8.2610   24.3940 C.3    82  GLY82       0.2014
     77  C         12.9510    8.0090   25.8140 C.2    82  GLY82       0.2638
     78  O         13.7590    7.9190   26.7420 O.2    82  GLY82      -0.2714
     79  N         11.6380    7.8810   25.9780 N.am   83  LEU83      -0.1977
     80  CA        11.0490    7.7200   27.2960 C.3    83  LEU83       0.1596
     81  C         10.6220    6.2730   27.5240 C.2    83  LEU83       0.2287
     82  O          9.7750    5.7390   26.8040 O.2    83  LEU83      -0.2864
     83  CB         9.8600    8.6660   27.4460 C.3    83  LEU83       0.0297
     84  CG         9.5450    9.3030   28.7930 C.3    83  LEU83       0.0022
     85  CD1       10.7770    9.9550   29.4200 C.3    83  LEU83       0.0001
     86  CD2        8.4410   10.3290   28.5830 C.3    83  LEU83       0.0001
     87  N         11.4480   11.3140   34.9400 N.3   101  LEU101     -0.1231
     88  CA        11.6130   10.8050   33.5830 C.3   101  LEU101      0.1693
     89  C         12.5940    9.6360   33.5660 C.2   101  LEU101      0.2592
     90  O         13.6760    9.7110   34.1680 O.2   101  LEU101     -0.2718
     91  CB        12.1180   11.9180   32.6600 C.3   101  LEU101      0.0284
     92  CG        11.3310   13.2330   32.6360 C.3   101  LEU101      0.0019
     93  CD1       12.2410   14.3710   32.2200 C.3   101  LEU101      0.0001
     94  CD2       10.1140   13.1400   31.7250 C.3   101  LEU101      0.0001
     95  N         12.2180    8.5660   32.8660 N.am  102  VAL102     -0.1966
     96  CA        13.0280    7.3540   32.8360 C.3   102  VAL102      0.1727
     97  C         13.4790    7.0140   31.4180 C.2   102  VAL102      0.2617
     98  O         12.6550    6.9080   30.5110 O.2   102  VAL102     -0.2715
     99  CB        12.2670    6.1290   33.4410 C.3   102  VAL102      0.0290
    100  CG1       13.1640    4.8960   33.4770 C.3   102  VAL102      0.0023
    101  CG2       11.7170    6.4370   34.8460 C.3   102  VAL102      0.0023
    102  N         14.7870    6.8240   31.2430 N.am  103  THR103     -0.1937
    103  CA        15.3450    6.3570   29.9680 C.3   103  THR103      0.2028
    104  C         16.4020    5.2700   30.1930 C.2   103  THR103      0.2642
    105  O         16.6730    4.8890   31.3360 O.2   103  THR103     -0.2714
    106  CB        15.9300    7.5320   29.1180 C.3   103  THR103      0.1808
    107  OG1       16.1340    7.0870   27.7740 O.3   103  THR103     -0.2208
    108  CG2       17.2590    8.0340   29.6870 C.3   103  THR103      0.0379
    109  N         16.9790    4.7570   29.1070 N.am  104  HIS104     -0.1959
    110  CA        18.0750    3.7950   29.1990 C.3   104  HIS104      0.1787
    111  C         19.2730    4.3950   29.9170 C.2   104  HIS104      0.2620
    112  O         19.6140    5.5630   29.6990 O.2   104  HIS104     -0.2715
    113  CB        18.5370    3.3580   27.8110 C.3   104  HIS104      0.0785
    114  CG        17.4770    2.6800   27.0020 C.ar  104  HIS104      0.0821
    115  ND1       16.5780    3.3780   26.2240 N.ar  104  HIS104     -0.2267
    116  CD2       17.1780    1.3700   26.8430 C.ar  104  HIS104      0.1154
    117  CE1       15.7630    2.5250   25.6280 C.ar  104  HIS104      0.1986
    118  NE2       16.1090    1.3010   25.9850 N.ar  104  HIS104     -0.2212
    119  N         19.9140    3.5850   30.7570 N.am  105  LEU105     -0.1963
    120  CA        21.2030    3.9470   31.3340 C.3   105  LEU105      0.1728
    121  C         22.3060    3.6290   30.3260 C.2   105  LEU105      0.2616
    122  O         22.4600    2.4930   29.8830 O.2   105  LEU105     -0.2715
    123  CB        21.4450    3.2090   32.6540 C.3   105  LEU105      0.0311
    124  CG        22.6170    3.6500   33.5360 C.3   105  LEU105      0.0022
    125  CD1       22.3780    5.0110   34.1880 C.3   105  LEU105      0.0001
    126  CD2       22.8790    2.5910   34.5990 C.3   105  LEU105      0.0001
    127  N         23.0570    4.6550   29.9610 N.am  106  MET106     -0.1963
    128  CA        24.1260    4.5190   28.9870 C.3   106  MET106      0.1736
    129  C         25.4610    4.3690   29.7060 C.2   106  MET106      0.2617
    130  O         25.5810    4.7310   30.8780 O.2   106  MET106     -0.2715
    131  CB        24.1270    5.7210   28.0460 C.3   106  MET106      0.0427
    132  CG        22.8290    5.8780   27.2400 C.3   106  MET106      0.0599
    133  SD        22.4180    4.4740   26.1810 S.3   106  MET106     -0.1393
    134  CE        23.6710    4.5900   24.9050 C.3   106  MET106      0.0692
    135  N         26.4520    3.8240   29.0050 N.am  107  GLY107     -0.1940
    136  CA        27.7620    3.5410   29.5910 C.3   107  GLY107      0.2014
    137  C         28.6350    4.7580   29.8510 C.2   107  GLY107      0.2639
    138  O         29.2640    4.8680   30.9020 O.2   107  GLY107     -0.2714
    139  N         28.6880    5.6630   28.8790 N.am  108  ALA108     -0.1963
    140  CA        29.4820    6.8810   28.9950 C.3   108  ALA108      0.1728
    141  C         28.9700    7.9340   28.0230 C.2   108  ALA108      0.2616
    142  O         28.1000    7.6500   27.1970 O.2   108  ALA108     -0.2715
    143  CB        30.9590    6.5790   28.7210 C.3   108  ALA108      0.0334
    144  N         29.4950    9.1520   28.1290 N.am  109  ASP109     -0.1971
    145  CA        29.3220   10.1250   27.0550 C.3   109  ASP109      0.1709
    146  C         30.5820   10.1530   26.1920 C.2   109  ASP109      0.2293
    147  O         31.6520    9.7340   26.6350 O.2   109  ASP109     -0.2864
    148  CB        28.9010   11.5110   27.5740 C.3   109  ASP109      0.1436
    149  CG        29.9920   12.2160   28.3580 C.2   109  ASP109      0.3671
    150  OD1       29.7240   12.6200   29.5080 O.co2 109  ASP109     -0.2456
    151  OD2       31.1020   12.3890   27.8240 O.co2 109  ASP109     -0.2456
    152  N         34.2330   11.3480   27.3680 N.3   112  ASN112     -0.1240
    153  CA        35.0160   10.3930   28.1470 C.3   112  ASN112      0.1653
    154  C         35.5730    9.2350   27.3120 C.2   112  ASN112      0.2266
    155  O         36.4270    8.4810   27.7770 O.2   112  ASN112     -0.2867
    156  CB        34.1920    9.8990   29.3390 C.3   112  ASN112      0.1155
    157  CG        33.7510   11.0390   30.2480 C.2   112  ASN112      0.2627
    158  OD1       34.5280   11.9520   30.5430 O.2   112  ASN112     -0.2716
    159  ND2       32.5000   11.0010   30.6850 N.am  112  ASN112     -0.0877
    160  N         25.6520    9.8940   24.1250 N.3   154  ALA154     -0.1245
    161  CA        25.8440    8.7840   25.0460 C.3   154  ALA154      0.1562
    162  C         26.0710    7.4880   24.2840 C.2   154  ALA154      0.2260
    163  O         25.4290    7.2310   23.2600 O.2   154  ALA154     -0.2867
    164  CB        24.6550    8.6680   25.9700 C.3   154  ALA154      0.0290
    165  N         21.3510   12.8630   23.4660 N.3   164  LEU164     -0.1231
    166  CA        20.6890   13.4810   24.6270 C.3   164  LEU164      0.1693
    167  C         20.4360   14.9810   24.4240 C.2   164  LEU164      0.2592
    168  O         21.0720   15.6120   23.5770 O.2   164  LEU164     -0.2718
    169  CB        21.5760   13.3260   25.8660 C.3   164  LEU164      0.0284
    170  CG        21.7020   11.9850   26.5770 C.3   164  LEU164      0.0019
    171  CD1       23.1090   11.8380   27.1170 C.3   164  LEU164      0.0001
    172  CD2       20.6830   11.8900   27.7080 C.3   164  LEU164      0.0001
    173  N         19.5180   15.5410   25.2200 N.am  165  ASP165     -0.1974
    174  CA        19.3440   17.0070   25.3690 C.3   165  ASP165      0.1709
    175  C         18.7910   17.8110   24.1710 C.2   165  ASP165      0.2293
    176  O         18.8800   19.0410   24.1580 O.2   165  ASP165     -0.2864
    177  CB        20.6530   17.6560   25.8590 C.3   165  ASP165      0.1436
    178  CG        21.0660   17.1800   27.2410 C.2   165  ASP165      0.3671
    179  OD1       22.2390   17.3880   27.6080 O.co2 165  ASP165     -0.2456
    180  OD2       20.2220   16.6100   27.9660 O.co2 165  ASP165     -0.2456
@<TRIPOS>BOND
     1    67    68    1
     2   163   162    2
     3   165   166    1
     4    70    69    2
     5   168   167    2
     6    68    69    1
     7    68    71    1
     8    69    75   am
     9   160   161    1
    10   176   175    2
    11   175   174    1
    12    75    76    1
    13   162   161    1
    14    62    61    2
    15    76    77    1
    16   167   166    1
    17   167   173   am
    18   166   169    1
    19    59    60    1
    20    61    60    1
    21   134   133    1
    22    71    72    1
    23    71    73    1
    24   161   164    1
    25    60    63    1
    26   173   174    1
    27    72    74    1
    28   174   177    1
    29   117   118   ar
    30   117   115   ar
    31    77    79   am
    32    77    78    2
    33   177   178    1
    34   169   170    1
    35    79    80    1
    36   118   116   ar
    37   133   132    1
    38   146   147    2
    39   146   145    1
    40   115   114   ar
    41    66    64    1
    42    63    64    1
    43   170   171    1
    44   170   172    1
    45    82    81    2
    46   116   114   ar
    47    64    65    1
    48    53    52    2
    49   114   113    1
    50   145   148    1
    51   145   144    1
    52   142   141    2
    53   132   131    1
    54   178   179   ar
    55   178   180   ar
    56    80    83    1
    57    80    81    1
    58   154   155    2
    59   154   153    1
    60   152   153    1
    61    83    84    1
    62    50    51    1
    63   148   149    1
    64    52    51    1
    65    51    54    1
    66   107   106    1
    67   113   110    1
    68   151   149   ar
    69   141   144   am
    70   141   140    1
    71   131   128    1
    72   153   156    1
    73   149   150   ar
    74    86    84    1
    75   143   140    1
    76    84    85    1
    77   139   140    1
    78   139   137   am
    79    54    55    1
    80   128   129    1
    81   128   127    1
    82   135   136    1
    83   135   129   am
    84    55    56    1
    85   109   110    1
    86   109   104   am
    87   106   108    1
    88   106   103    1
    89   110   111    1
    90   156   157    1
    91   136   137    1
    92   112   111    2
    93   129   130    2
    94   137   138    2
    95   122   121    2
    96   111   119   am
    97   127   121   am
    98   103   104    1
    99   103   102    1
   100    58    56   ar
   101    56    57   ar
   102   104   105    2
   103   157   158    2
   104   157   159   am
   105   121   120    1
   106    98    97    2
   107   119   120    1
   108   102    97   am
   109   120   123    1
   110    97    96    1
   111    20    18   ar
   112    20    22   ar
   113    23    22    1
   114    94    92    1
   115    49    48    1
   116    18    17   ar
   117    22    21   ar
   118    93    92    1
   119    92    91    1
   120   123   124    1
   121    91    88    1
   122    96    95    1
   123    96    99    1
   124    95    89   am
   125    17    16    1
   126    17    19   ar
   127    48    47    1
   128    40    37    1
   129    47    46    1
   130    21    19   ar
   131    99   100    1
   132    99   101    1
   133   124   125    1
   134   124   126    1
   135    89    88    1
   136    89    90    2
   137    88    87    1
   138    36    37    1
   139    39    38    2
   140    16    13    1
   141    13    14    1
   142    13    12    1
   143    15    14    2
   144    37    38    1
   145    45    46    1
   146    45    42    1
   147    30    28    1
   148    29    28    1
   149    41    42    1
   150    42    43    1
   151    28    25    1
   152    44    43    2
   153     9     8    1
   154     9    10    1
   155     7     5    1
   156    11    10    2
   157     8     3   am
   158     5     6    1
   159     5     2    1
   160    25    24    1
   161    25    26    1
   162    35    32    1
   163    32    31    1
   164    32    33    1
   165     4     3    2
   166     3     2    1
   167    26    27    2
   168     2     1    1
   169    33    34    2
