@<TRIPOS>MOLECULE
tmp/3fkoA00.pdb
 181 169 0 0 0
SMALL
GASTEIGER

@<TRIPOS>ATOM
      1  N         46.7920   53.4910  101.2990 N.3    26  VAL26      -0.1245
      2  CA        47.8180   53.4280  100.2500 C.3    26  VAL26       0.1561
      3  C         48.2100   54.8170   99.7450 C.2    26  VAL26       0.2260
      4  O         47.3580   55.7010   99.6080 O.2    26  VAL26      -0.2867
      5  CB        47.4070   52.5250   99.0510 C.3    26  VAL26       0.0252
      6  CG1       47.5100   51.0590   99.4300 C.3    26  VAL26       0.0019
      7  CG2       46.0090   52.8660   98.5400 C.3    26  VAL26       0.0019
      8  N         46.9230   59.9400   96.4700 N.3    31  TYR31      -0.1241
      9  CA        45.6980   59.6800   95.7130 C.3    31  TYR31       0.1605
     10  C         44.4540   60.1700   96.4530 C.2    31  TYR31       0.2264
     11  O         43.3340   60.0630   95.9490 O.2    31  TYR31      -0.2867
     12  CB        45.5820   58.1850   95.3870 C.3    31  TYR31       0.0534
     13  CG        46.8400   57.5830   94.7950 C.ar   31  TYR31      -0.0201
     14  CD1       47.2660   57.9320   93.5120 C.ar   31  TYR31      -0.0009
     15  CD2       47.6010   56.6610   95.5170 C.ar   31  TYR31      -0.0009
     16  CE1       48.4220   57.3840   92.9610 C.ar   31  TYR31       0.0417
     17  CE2       48.7610   56.1030   94.9760 C.ar   31  TYR31       0.0417
     18  CZ        49.1640   56.4710   93.6960 C.ar   31  TYR31       0.1957
     19  OH        50.3080   55.9310   93.1460 O.3    31  TYR31      -0.2866
     20  N         42.4750   57.0680  100.1930 N.3    34  VAL34      -0.1245
     21  CA        42.3380   55.7720   99.5290 C.3    34  VAL34       0.1561
     22  C         42.8720   54.6280  100.3950 C.2    34  VAL34       0.2260
     23  O         43.9750   54.7110  100.9470 O.2    34  VAL34      -0.2867
     24  CB        43.0270   55.7590   98.1290 C.3    34  VAL34       0.0252
     25  CG1       42.8820   54.3960   97.4500 C.3    34  VAL34       0.0019
     26  CG2       42.4460   56.8480   97.2290 C.3    34  VAL34       0.0019
     27  N         40.7330   49.1820   95.4170 N.3    47  ALA47      -0.1245
     28  CA        41.0280   50.4770   96.0140 C.3    47  ALA47       0.1562
     29  C         39.7180   51.1770   96.3530 C.2    47  ALA47       0.2260
     30  O         38.8430   51.3200   95.5000 O.2    47  ALA47      -0.2867
     31  CB        41.8680   51.3310   95.0630 C.3    47  ALA47       0.0290
     32  N         38.0840   54.6800   97.7180 N.3    49  LYS49      -0.1245
     33  CA        38.2940   56.0980   97.9690 C.3    49  LYS49       0.1561
     34  C         37.1020   56.6970   98.7030 C.2    49  LYS49       0.2260
     35  O         35.9630   56.5920   98.2450 O.2    49  LYS49      -0.2867
     36  CB        38.5760   56.8490   96.6640 C.3    49  LYS49       0.0271
     37  CG        38.7690   58.3550   96.8560 C.3    49  LYS49       0.0035
     38  CD        39.6200   58.9780   95.7590 C.3    49  LYS49       0.0206
     39  CE        38.8570   59.1210   94.4650 C.3    49  LYS49       0.1093
     40  NZ        39.5350   60.0940   93.5620 N.3    49  LYS49      -0.1314
     41  N         32.8730   63.5830   89.2320 N.3    67  GLU67      -0.1245
     42  CA        33.7020   62.3840   89.3880 C.3    67  GLU67       0.1567
     43  C         32.8810   61.0910   89.3230 C.2    67  GLU67       0.2260
     44  O         33.2920   60.1310   88.6840 O.2    67  GLU67      -0.2867
     45  CB        34.5340   62.4190   90.6730 C.3    67  GLU67       0.0388
     46  CG        35.5310   61.2500   90.7280 C.3    67  GLU67       0.1160
     47  CD        36.4990   61.2960   91.8900 C.2    67  GLU67       0.3649
     48  OE1       36.3850   62.1970   92.7500 O.co2  67  GLU67      -0.2457
     49  OE2       37.3820   60.4100   91.9370 O.co2  67  GLU67      -0.2457
     50  N         33.3280   58.2510   86.4330 N.3    71  LEU71      -0.1245
     51  CA        33.6560   56.8970   86.8610 C.3    71  LEU71       0.1561
     52  C         32.5660   55.8750   86.5230 C.2    71  LEU71       0.2260
     53  O         32.8780   54.7330   86.1860 O.2    71  LEU71      -0.2867
     54  CB        33.9880   56.8640   88.3580 C.3    71  LEU71       0.0270
     55  CG        35.3540   57.4250   88.7820 C.3    71  LEU71       0.0019
     56  CD1       35.4800   57.4260   90.2980 C.3    71  LEU71       0.0001
     57  CD2       36.5020   56.6300   88.1640 C.3    71  LEU71       0.0001
     58  N         40.2750   53.2390   84.4140 N.3    80  ILE80      -0.1245
     59  CA        39.7080   53.0230   85.7410 C.3    80  ILE80       0.1561
     60  C         38.1990   53.2680   85.7330 C.2    80  ILE80       0.2260
     61  O         37.7250   54.3480   85.3790 O.2    80  ILE80      -0.2867
     62  CB        40.4230   53.8730   86.8280 C.3    80  ILE80       0.0252
     63  CG1       41.8070   53.2820   87.1280 C.3    80  ILE80       0.0019
     64  CG2       39.5590   54.0130   88.1070 C.3    80  ILE80       0.0019
     65  CD1       41.8080   51.9950   87.9460 C.3    80  ILE80       0.0001
     66  N         34.2620   51.8230   87.7710 N.3    82  LEU82      -0.1245
     67  CA        33.6720   51.6750   89.0870 C.3    82  LEU82       0.1561
     68  C         33.1830   50.2430   89.2790 C.2    82  LEU82       0.2260
     69  O         32.2810   49.7840   88.5800 O.2    82  LEU82      -0.2867
     70  CB        32.5290   52.6790   89.2460 C.3    82  LEU82       0.0270
     71  CG        32.3140   53.4110   90.5700 C.3    82  LEU82       0.0019
     72  CD1       33.5940   54.0390   91.1270 C.3    82  LEU82       0.0001
     73  CD2       31.2410   54.4660   90.3680 C.3    82  LEU82       0.0001
     74  N         34.0740   55.2260   96.6860 N.3   100  LEU100     -0.1231
     75  CA        34.2400   54.7150   95.3300 C.3   100  LEU100      0.1693
     76  C         35.1640   53.5070   95.3440 C.2   100  LEU100      0.2592
     77  O         36.1850   53.5150   96.0300 O.2   100  LEU100     -0.2718
     78  CB        34.8120   55.8080   94.4150 C.3   100  LEU100      0.0284
     79  CG        34.0620   57.1450   94.4030 C.3   100  LEU100      0.0019
     80  CD1       34.9510   58.2570   93.8790 C.3   100  LEU100      0.0001
     81  CD2       32.7520   57.0530   93.6120 C.3   100  LEU100      0.0001
     82  N         34.8050   52.4740   94.5850 N.am  101  VAL101     -0.1966
     83  CA        35.5820   51.2390   94.5610 C.3   101  VAL101      0.1727
     84  C         36.0210   50.8830   93.1420 C.2   101  VAL101      0.2617
     85  O         35.2060   50.8490   92.2220 O.2   101  VAL101     -0.2715
     86  CB        34.8030   50.0490   95.2010 C.3   101  VAL101      0.0290
     87  CG1       35.7040   48.8290   95.3500 C.3   101  VAL101      0.0023
     88  CG2       34.2250   50.4450   96.5600 C.3   101  VAL101      0.0023
     89  N         37.3180   50.6280   92.9800 N.am  102  THR102     -0.1937
     90  CA        37.8780   50.2040   91.6990 C.3   102  THR102      0.2028
     91  C         38.9780   49.1640   91.9230 C.2   102  THR102      0.2642
     92  O         39.2520   48.7920   93.0590 O.2   102  THR102     -0.2714
     93  CB        38.3940   51.4130   90.8630 C.3   102  THR102      0.1808
     94  OG1       38.6550   50.9850   89.5240 O.3   102  THR102     -0.2208
     95  CG2       39.6630   52.0320   91.4650 C.3   102  THR102      0.0379
     96  N         39.5890   48.6870   90.8410 N.am  103  HIS103     -0.1959
     97  CA        40.6680   47.7100   90.9340 C.3   103  HIS103      0.1787
     98  C         41.8730   48.3040   91.6440 C.2   103  HIS103      0.2620
     99  O         42.1790   49.4920   91.4840 O.2   103  HIS103     -0.2715
    100  CB        41.0910   47.2370   89.5420 C.3   103  HIS103      0.0785
    101  CG        39.9720   46.6750   88.7230 C.ar  103  HIS103      0.0821
    102  ND1       39.7050   45.3240   88.6520 N.ar  103  HIS103     -0.2267
    103  CD2       39.0580   47.2810   87.9300 C.ar  103  HIS103      0.1154
    104  CE1       38.6750   45.1220   87.8490 C.ar  103  HIS103      0.1986
    105  NE2       38.2620   46.2930   87.4000 N.ar  103  HIS103     -0.2212
    106  N         42.5440   47.4750   92.4390 N.am  104  LEU104     -0.1963
    107  CA        43.8390   47.8370   93.0020 C.3   104  LEU104      0.1728
    108  C         44.9230   47.4750   91.9960 C.2   104  LEU104      0.2616
    109  O         44.9910   46.3390   91.5200 O.2   104  LEU104     -0.2715
    110  CB        44.0840   47.1250   94.3400 C.3   104  LEU104      0.0311
    111  CG        45.2090   47.6490   95.2460 C.3   104  LEU104      0.0022
    112  CD1       44.9160   49.0590   95.7720 C.3   104  LEU104      0.0001
    113  CD2       45.4440   46.6850   96.4090 C.3   104  LEU104      0.0001
    114  N         45.7570   48.4500   91.6580 N.am  105  MET105     -0.1963
    115  CA        46.8730   48.2160   90.7420 C.3   105  MET105      0.1736
    116  C         48.1610   48.0860   91.5410 C.2   105  MET105      0.2617
    117  O         48.1810   48.3950   92.7350 O.2   105  MET105     -0.2715
    118  CB        46.9740   49.3490   89.7180 C.3   105  MET105      0.0427
    119  CG        45.6750   49.6410   88.9650 C.3   105  MET105      0.0599
    120  SD        45.0080   48.2350   88.0660 S.3   105  MET105     -0.1393
    121  CE        46.1270   48.1060   86.6700 C.3   105  MET105      0.0692
    122  N         49.2240   47.6180   90.8890 N.am  106  GLY106     -0.1940
    123  CA        50.5130   47.4010   91.5470 C.3   106  GLY106      0.2014
    124  C         51.2540   48.6840   91.8760 C.2   106  GLY106      0.2639
    125  O         51.6320   48.9200   93.0260 O.2   106  GLY106     -0.2714
    126  N         51.4590   49.5120   90.8540 N.am  107  ALA107     -0.1963
    127  CA        52.1620   50.7860   90.9920 C.3   107  ALA107      0.1728
    128  C         51.7110   51.7570   89.8950 C.2   107  ALA107      0.2616
    129  O         50.9020   51.3960   89.0360 O.2   107  ALA107     -0.2715
    130  CB        53.6620   50.5600   90.9130 C.3   107  ALA107      0.0334
    131  N         52.2230   52.9860   89.9320 N.am  108  ASP108     -0.1971
    132  CA        52.0550   53.8960   88.8020 C.3   108  ASP108      0.1709
    133  C         53.2580   53.8040   87.8560 C.2   108  ASP108      0.2293
    134  O         54.2610   53.1570   88.1740 O.2   108  ASP108     -0.2864
    135  CB        51.7530   55.3340   89.2560 C.3   108  ASP108      0.1436
    136  CG        52.9110   55.9920   89.9970 C.2   108  ASP108      0.3671
    137  OD1       54.0840   55.6910   89.7080 O.co2 108  ASP108     -0.2456
    138  OD2       52.6390   56.8400   90.8660 O.co2 108  ASP108     -0.2456
    139  N         56.9720   55.2720   89.3780 N.3   111  ASN111     -0.1240
    140  CA        57.7890   54.3250   90.1380 C.3   111  ASN111      0.1653
    141  C         57.7110   52.9150   89.5570 C.2   111  ASN111      0.2266
    142  O         57.1670   51.9850   90.1670 O.2   111  ASN111     -0.2867
    143  CB        57.4590   54.3620   91.6370 C.3   111  ASN111      0.1155
    144  CG        55.9750   54.4670   91.9090 C.2   111  ASN111      0.2627
    145  OD1       55.2040   53.5640   91.5750 O.2   111  ASN111     -0.2716
    146  ND2       55.5650   55.5690   92.5300 N.am  111  ASN111     -0.0877
    147  N         52.2420   59.4290   86.6450 N.3   148  SER148     -0.1217
    148  CA        51.6400   59.2370   87.9690 C.3   148  SER148      0.1889
    149  C         50.1410   58.8890   87.9740 C.2   148  SER148      0.2288
    150  O         49.6420   58.3630   88.9690 O.2   148  SER148     -0.2866
    151  CB        51.9050   60.4490   88.8710 C.3   148  SER148      0.2089
    152  OG        51.1180   61.5550   88.4760 O.3   148  SER148     -0.2183
    153  N         48.8680   56.8540   85.4430 N.3   150  LEU150     -0.1231
    154  CA        48.7930   55.6290   84.6730 C.3   150  LEU150      0.1693
    155  C         49.2040   54.5130   85.6270 C.2   150  LEU150      0.2591
    156  O         50.3310   54.5040   86.1200 O.2   150  LEU150     -0.2718
    157  CB        49.7270   55.6960   83.4630 C.3   150  LEU150      0.0284
    158  CG        49.3710   56.7550   82.4110 C.3   150  LEU150      0.0019
    159  CD1       50.5150   56.9440   81.4270 C.3   150  LEU150      0.0001
    160  CD2       48.0880   56.3900   81.6860 C.3   150  LEU150      0.0001
    161  N         48.2800   53.5990   85.9120 N.am  151  ALA151     -0.1980
    162  CA        48.5400   52.5340   86.8800 C.3   151  ALA151      0.1597
    163  C         48.6990   51.1810   86.2090 C.2   151  ALA151      0.2287
    164  O         47.9800   50.8400   85.2700 O.2   151  ALA151     -0.2864
    165  CB        47.4600   52.4850   87.9280 C.3   151  ALA151      0.0319
    166  N         43.9310   56.7060   85.0930 N.3   161  LEU161     -0.1231
    167  CA        43.2350   57.3330   86.2260 C.3   161  LEU161      0.1693
    168  C         43.0570   58.8370   86.0420 C.2   161  LEU161      0.2592
    169  O         43.8130   59.4690   85.3060 O.2   161  LEU161     -0.2718
    170  CB        44.0270   57.1290   87.5170 C.3   161  LEU161      0.0284
    171  CG        44.0560   55.7910   88.2420 C.3   161  LEU161      0.0019
    172  CD1       45.1550   54.9220   87.6860 C.3   161  LEU161      0.0001
    173  CD2       44.2860   56.0460   89.7170 C.3   161  LEU161      0.0001
    174  N         42.0670   59.3960   86.7420 N.am  162  ASP162     -0.1974
    175  CA        41.8990   60.8550   86.9080 C.3   162  ASP162      0.1709
    176  C         41.4860   61.6570   85.6630 C.2   162  ASP162      0.2293
    177  O         41.7900   62.8470   85.5580 O.2   162  ASP162     -0.2864
    178  CB        43.1520   61.4710   87.5560 C.3   162  ASP162      0.1436
    179  CG        43.3500   61.0210   88.9940 C.2   162  ASP162      0.3671
    180  OD1       44.5220   60.8650   89.4110 O.co2 162  ASP162     -0.2456
    181  OD2       42.3370   60.8160   89.7100 O.co2 162  ASP162     -0.2456
@<TRIPOS>BOND
     1   159   158    1
     2   160   158    1
     3   158   157    1
     4   157   154    1
     5    58    59    1
     6   154   153    1
     7   154   155    1
     8   166   167    1
     9   164   163    2
    10   169   168    2
    11    61    60    2
    12   177   176    2
    13   155   161   am
    14   155   156    2
    15   176   175    1
    16    60    59    1
    17    59    62    1
    18   161   162    1
    19   168   167    1
    20   168   174   am
    21    53    52    2
    22   163   162    1
    23   167   170    1
    24    50    51    1
    25    52    51    1
    26   147   148    1
    27   121   120    1
    28   174   175    1
    29    62    63    1
    30    62    64    1
    31    51    54    1
    32   162   165    1
    33   175   178    1
    34    63    65    1
    35   105   104   ar
    36   105   103   ar
    37   170   171    1
    38   178   179    1
    39   172   171    1
    40    66    67    1
    41   104   102   ar
    42   133   134    2
    43   133   132    1
    44   103   101   ar
    45   148   149    1
    46   148   151    1
    47   149   150    2
    48   120   119    1
    49    57    55    1
    50   171   173    1
    51    54    55    1
    52   152   151    1
    53    69    68    2
    54   102   101   ar
    55    44    43    2
    56   101   100    1
    57    55    56    1
    58   132   135    1
    59   132   131    1
    60   119   118    1
    61   179   180   ar
    62   179   181   ar
    63   129   128    2
    64    67    70    1
    65    67    68    1
    66    41    42    1
    67    70    71    1
    68   135   136    1
    69    43    42    1
    70   139   140    1
    71    42    45    1
    72    94    93    1
    73   100    97    1
    74   141   140    1
    75   141   142    2
    76   137   136   ar
    77   118   115    1
    78   128   131   am
    79   128   127    1
    80   136   138   ar
    81   140   143    1
    82    73    71    1
    83    71    72    1
    84    45    46    1
    85    46    47    1
    86   115   116    1
    87   115   114    1
    88    96    97    1
    89    96    91   am
    90   126   127    1
    91   126   124   am
    92    93    95    1
    93    93    90    1
    94   122   116   am
    95   122   123    1
    96   130   127    1
    97    97    98    1
    98    99    98    2
    99   109   108    2
   100   116   117    2
   101   123   124    1
   102   145   144    2
   103   143   144    1
   104    98   106   am
   105   114   108   am
   106    90    91    1
   107    90    89    1
   108   124   125    2
   109    47    49   ar
   110    47    48   ar
   111   144   146   am
   112    91    92    2
   113   108   107    1
   114    85    84    2
   115   106   107    1
   116    16    14   ar
   117    16    18   ar
   118    89    84   am
   119   107   110    1
   120    84    83    1
   121    19    18    1
   122    14    13   ar
   123    40    39    1
   124    81    79    1
   125    18    17   ar
   126    80    79    1
   127   110   111    1
   128    79    78    1
   129    78    75    1
   130    39    38    1
   131    83    82    1
   132    83    86    1
   133    82    76   am
   134    13    12    1
   135    13    15   ar
   136    17    15   ar
   137    31    28    1
   138    86    87    1
   139    86    88    1
   140   111   112    1
   141   111   113    1
   142    75    76    1
   143    75    74    1
   144    76    77    2
   145    12     9    1
   146    27    28    1
   147    30    29    2
   148     9    10    1
   149     9     8    1
   150    38    37    1
   151    11    10    2
   152    28    29    1
   153    36    37    1
   154    36    33    1
   155    26    24    1
   156    25    24    1
   157    32    33    1
   158    33    34    1
   159    24    21    1
   160    35    34    2
   161     7     5    1
   162     5     6    1
   163     5     2    1
   164    21    20    1
   165    21    22    1
   166     4     3    2
   167     3     2    1
   168     2     1    1
   169    22    23    2
