@<TRIPOS>MOLECULE
tmp/3fkqA00.pdb
 142 136 0 0 0
SMALL
GASTEIGER

@<TRIPOS>ATOM
      1  N         -6.0190   56.7960   21.5070 N.3   131  CYS131     -0.1221
      2  CA        -6.2300   55.5480   22.2510 C.3   131  CYS131      0.1808
      3  C         -5.0670   55.2980   23.2000 C.2   131  CYS131      0.2602
      4  O         -3.9640   54.9140   22.7660 O.2   131  CYS131     -0.2717
      5  CB        -6.3010   54.3680   21.2600 C.3   131  CYS131      0.0970
      6  SG        -7.2780   54.7270   19.7590 S.3   131  CYS131     -0.0800
      7  N         -5.2930   55.4490   24.4980 N.am  132  GLY132     -0.1942
      8  CA        -4.2050   55.3060   25.4550 C.3   132  GLY132      0.2014
      9  C         -3.6730   53.8790   25.5140 C.2   132  GLY132      0.2639
     10  O         -4.4510   52.9000   25.3410 O.2   132  GLY132     -0.2714
     11  N         -2.3510   53.7660   25.7030 N.am  133  GLY133     -0.1939
     12  CA        -1.6710   52.4650   25.9580 C.3   133  GLY133      0.2014
     13  C         -1.7170   51.4050   24.8770 C.2   133  GLY133      0.2639
     14  O         -1.4450   50.1720   25.1420 O.2   133  GLY133     -0.2714
     15  N         -2.0500   51.8390   23.6530 N.am  134  VAL134     -0.1963
     16  CA        -2.1520   50.8970   22.5340 C.3   134  VAL134      0.1727
     17  C         -0.8050   50.5700   21.9350 C.2   134  VAL134      0.2617
     18  O         -0.7230   49.6980   21.0880 O.2   134  VAL134     -0.2715
     19  CB        -3.1450   51.3550   21.4140 C.3   134  VAL134      0.0290
     20  CG1       -4.4990   51.4800   21.9810 C.3   134  VAL134      0.0023
     21  CG2       -2.6900   52.6370   20.7520 C.3   134  VAL134      0.0023
     22  N          0.2450   51.2520   22.3950 N.am  135  GLY135     -0.1940
     23  CA         1.5970   50.9850   21.9930 C.3   135  GLY135      0.2014
     24  C          2.1800   51.9880   21.0310 C.2   135  GLY135      0.2640
     25  O          3.2070   51.6990   20.3910 O.2   135  GLY135     -0.2714
     26  N          1.5410   53.1630   20.9100 N.am  136  THR136     -0.1936
     27  CA         2.0030   54.1700   19.9910 C.3   136  THR136      0.2028
     28  C          3.4960   54.4920   20.1030 C.2   136  THR136      0.2643
     29  O          4.2170   54.4530   19.0900 O.2   136  THR136     -0.2714
     30  CB         1.1640   55.4710   20.1300 C.3   136  THR136      0.1808
     31  OG1       -0.2200   55.1260   19.9860 O.3   136  THR136     -0.2208
     32  CG2        1.5440   56.4520   19.0580 C.3   136  THR136      0.0379
     33  N          3.9710   54.7660   21.3170 N.am  137  SER137     -0.1935
     34  CA         5.3930   55.0900   21.5090 C.3   137  SER137      0.2055
     35  C          6.3330   53.9110   21.1480 C.2   137  SER137      0.2643
     36  O          7.3820   54.0830   20.5000 O.2   137  SER137     -0.2714
     37  CB         5.6100   55.5700   22.9510 C.3   137  SER137      0.2130
     38  OG         4.8150   56.7590   23.1840 O.3   137  SER137     -0.2179
     39  N          5.9290   52.7040   21.5170 N.am  138  THR138     -0.1950
     40  CA         6.7250   51.5030   21.1980 C.3   138  THR138      0.1897
     41  C          6.8400   51.3280   19.6900 C.2   138  THR138      0.2313
     42  O          7.9350   51.0980   19.1710 O.2   138  THR138     -0.2863
     43  CB         6.0970   50.2900   21.8480 C.3   138  THR138      0.1794
     44  OG1        6.1310   50.4870   23.2570 O.3   138  THR138     -0.2208
     45  CG2        6.8390   48.9550   21.5000 C.3   138  THR138      0.0378
     46  N          6.3290   63.7610   24.5190 N.3   159  GLU159     -0.1245
     47  CA         5.4730   63.4420   25.6760 C.3   159  GLU159      0.1567
     48  C          6.0800   63.8900   26.9920 C.2   159  GLU159      0.2260
     49  O          7.3050   63.7610   27.2060 O.2   159  GLU159     -0.2867
     50  CB         5.2690   61.9450   25.8190 C.3   159  GLU159      0.0388
     51  CG         4.5470   61.2960   24.6890 C.3   159  GLU159      0.1160
     52  CD         4.4350   59.7810   24.9320 C.2   159  GLU159      0.3649
     53  OE1        5.3120   59.2140   25.6040 O.co2 159  GLU159     -0.2457
     54  OE2        3.4850   59.1470   24.4490 O.co2 159  GLU159     -0.2457
     55  N          9.1830   58.0010   27.1370 N.3   163  THR163     -0.1218
     56  CA        10.0390   56.8860   27.5310 C.3   163  THR163      0.1862
     57  C         11.2620   56.6870   26.6150 C.2   163  THR163      0.2287
     58  O         11.7880   55.5430   26.4800 O.2   163  THR163     -0.2866
     59  CB         9.1620   55.6010   27.6350 C.3   163  THR163      0.1770
     60  OG1        8.5950   55.2710   26.3650 O.3   163  THR163     -0.2211
     61  CG2        8.0270   55.8340   28.6200 C.3   163  THR163      0.0375
     62  N         13.9500   53.2240   25.5700 N.3   167  PHE167     -0.1241
     63  CA        14.1120   52.6600   24.2290 C.3   167  PHE167      0.1605
     64  C         15.5270   52.8360   23.7000 C.2   167  PHE167      0.2264
     65  O         16.0090   51.9430   23.0370 O.2   167  PHE167     -0.2867
     66  CB        13.1860   53.3520   23.2050 C.3   167  PHE167      0.0534
     67  CG        11.7360   53.2580   23.5040 C.ar  167  PHE167     -0.0203
     68  CD1       11.1490   52.0310   23.8160 C.ar  167  PHE167     -0.0042
     69  CD2       10.9240   54.3690   23.3670 C.ar  167  PHE167     -0.0042
     70  CE1        9.8010   51.9340   24.0480 C.ar  167  PHE167     -0.0003
     71  CE2        9.5670   54.2900   23.5970 C.ar  167  PHE167     -0.0003
     72  CZ         8.9990   53.0810   23.9440 C.ar  167  PHE167     -0.0000
     73  N         -1.9030   47.6190   16.5770 N.3   299  ASN299     -0.1225
     74  CA        -0.9140   46.9950   17.4380 C.3   299  ASN299      0.1785
     75  C         -1.6560   46.3450   18.6110 C.2   299  ASN299      0.2597
     76  O         -2.7360   46.8000   18.9820 O.2   299  ASN299     -0.2718
     77  CB         0.0600   48.0640   17.9060 C.3   299  ASN299      0.1169
     78  CG         1.1350   47.5140   18.7660 C.2   299  ASN299      0.2627
     79  OD1        1.7870   46.5100   18.4080 O.2   299  ASN299     -0.2716
     80  ND2        1.3440   48.1560   19.9240 N.am  299  ASN299     -0.0877
     81  N         -1.1000   45.2630   19.1640 N.am  300  LYS300     -0.1980
     82  CA        -1.7490   44.5120   20.2270 C.3   300  LYS300      0.1596
     83  C         -3.1300   43.9870   19.8230 C.2   300  LYS300      0.2287
     84  O         -4.0430   43.9110   20.6310 O.2   300  LYS300     -0.2864
     85  CB        -1.8620   45.3430   21.5000 C.3   300  LYS300      0.0298
     86  CG        -0.5290   45.6970   22.1120 C.3   300  LYS300      0.0038
     87  CD        -0.6380   45.8870   23.6310 C.3   300  LYS300      0.0206
     88  CE        -0.6250   47.3060   24.0290 C.3   300  LYS300      0.1093
     89  NZ        -1.0910   47.4410   25.4290 N.3   300  LYS300     -0.1314
     90  N          0.3470   41.6730   16.6570 N.3   320  PRO320     -0.2102
     91  CA        -0.4140   41.0840   17.7440 C.3   320  PRO320      0.1504
     92  C          0.0340   41.6020   19.1040 C.2   320  PRO320      0.2576
     93  O          0.9620   42.4150   19.1980 O.2   320  PRO320     -0.2718
     94  CB        -0.1100   39.5840   17.6090 C.3   320  PRO320      0.0282
     95  CG         1.2110   39.5350   17.0570 C.3   320  PRO320      0.0208
     96  CD         1.3710   40.7520   16.1570 C.3   320  PRO320      0.0893
     97  N         -0.6730   41.1480   20.1350 N.am  321  ARG321     -0.1966
     98  CA        -0.2720   41.3290   21.5070 C.3   321  ARG321      0.1729
     99  C          0.6580   40.1840   21.9190 C.2   321  ARG321      0.2616
    100  O          0.2150   39.0510   22.1370 O.2   321  ARG321     -0.2715
    101  CB        -1.4990   41.3720   22.4160 C.3   321  ARG321      0.0348
    102  CG        -1.1490   41.7510   23.8340 C.3   321  ARG321      0.0492
    103  CD        -2.3530   41.7230   24.7740 C.3   321  ARG321      0.2205
    104  NE        -1.8870   42.0920   26.1020 N.pl3 321  ARG321     -0.0865
    105  CZ        -1.2440   41.2740   26.9430 C.cat 321  ARG321      0.5346
    106  NH1       -1.0120   40.0000   26.6360 N.pl3 321  ARG321      0.1354
    107  NH2       -0.8490   41.7420   28.1160 N.pl3 321  ARG321      0.1354
    108  N          1.9440   40.5020   22.0470 N.am  322  TYR322     -0.1974
    109  CA         2.9550   39.5610   22.5300 C.3   322  TYR322      0.1639
    110  C          2.7620   39.2580   24.0230 C.2   322  TYR322      0.2290
    111  O          2.6320   40.1690   24.8490 O.2   322  TYR322     -0.2864
    112  CB         4.3670   40.1020   22.2640 C.3   322  TYR322      0.0560
    113  CG         4.5560   40.4140   20.8020 C.ar  322  TYR322     -0.0198
    114  CD1        4.6780   39.3880   19.8670 C.ar  322  TYR322     -0.0009
    115  CD2        4.5440   41.7290   20.3450 C.ar  322  TYR322     -0.0009
    116  CE1        4.8060   39.6640   18.5160 C.ar  322  TYR322      0.0417
    117  CE2        4.6620   42.0190   18.9970 C.ar  322  TYR322      0.0417
    118  CZ         4.7910   40.9840   18.0920 C.ar  322  TYR322      0.1957
    119  OH         4.9190   41.2690   16.7650 O.3   322  TYR322     -0.2866
    120  N          9.8950   44.9990   26.9110 N.3   327  VAL327     -0.1245
    121  CA         9.9090   46.1030   25.9530 C.3   327  VAL327      0.1561
    122  C         10.8870   45.7870   24.8290 C.2   327  VAL327      0.2260
    123  O         10.5700   45.9710   23.6660 O.2   327  VAL327     -0.2867
    124  CB        10.3650   47.4420   26.5910 C.3   327  VAL327      0.0252
    125  CG1       10.4930   48.5160   25.5180 C.3   327  VAL327      0.0019
    126  CG2        9.3940   47.9030   27.6500 C.3   327  VAL327      0.0019
    127  N          9.4820   43.0660   22.5240 N.3   330  ILE330     -0.1245
    128  CA         8.3890   43.5820   21.7010 C.3   330  ILE330      0.1561
    129  C          8.9280   44.4170   20.5200 C.2   330  ILE330      0.2260
    130  O          8.4570   44.2750   19.3940 O.2   330  ILE330     -0.2867
    131  CB         7.4070   44.4170   22.5430 C.3   330  ILE330      0.0252
    132  CG1        6.6380   43.5110   23.5280 C.3   330  ILE330      0.0019
    133  CG2        6.4550   45.2150   21.6380 C.3   330  ILE330      0.0019
    134  CD1        6.1750   44.2510   24.8120 C.3   330  ILE330      0.0001
    135  N          8.7830   43.8010   16.5270 N.3   334  LEU334     -0.1245
    136  CA         8.1380   44.8210   15.7020 C.3   334  LEU334      0.1561
    137  C          9.0180   45.2740   14.5320 C.2   334  LEU334      0.2260
    138  O          8.5060   45.4680   13.4330 O.2   334  LEU334     -0.2867
    139  CB         7.6560   46.0230   16.5410 C.3   334  LEU334      0.0270
    140  CG         6.3790   45.8630   17.4000 C.3   334  LEU334      0.0019
    141  CD1        6.1840   47.1130   18.2930 C.3   334  LEU334      0.0001
    142  CD2        5.1560   45.6540   16.5320 C.3   334  LEU334      0.0001
@<TRIPOS>BOND
     1   138   137    2
     2   137   136    1
     3   136   135    1
     4   136   139    1
     5    96    90    1
     6    96    95    1
     7   142   140    1
     8   139   140    1
     9    73    74    1
    10    90    91    1
    11   119   118    1
    12    95    94    1
    13   140   141    1
    14    74    77    1
    15    74    75    1
    16    94    91    1
    17    91    92    1
    18    77    78    1
    19   118   116   ar
    20   118   117   ar
    21    79    78    2
    22   116   114   ar
    23    75    76    2
    24    75    81   am
    25    78    80   am
    26   117   115   ar
    27    32    30    1
    28    29    28    2
    29    92    93    2
    30    92    97   am
    31    81    82    1
    32    42    41    2
    33   130   129    2
    34    41    40    1
    35     6     5    1
    36    83    82    1
    37    83    84    2
    38   114   113   ar
    39    31    30    1
    40    27    28    1
    41    27    30    1
    42    27    26    1
    43    28    33   am
    44    97    98    1
    45    82    85    1
    46   115   113   ar
    47    25    24    2
    48    36    35    2
    49   129   128    1
    50    21    19    1
    51   113   112    1
    52    26    24   am
    53    24    23    1
    54    18    17    2
    55    35    34    1
    56    35    39   am
    57    40    39    1
    58    40    43    1
    59     5     2    1
    60    33    34    1
    61    19    20    1
    62    19    16    1
    63    85    86    1
    64    45    43    1
    65    98    99    1
    66    98   101    1
    67     1     2    1
    68    34    37    1
    69   133   131    1
    70   128   127    1
    71   128   131    1
    72    43    44    1
    73    99   108   am
    74    99   100    2
    75    17    22   am
    76    17    16    1
    77    23    22    1
    78   108   109    1
    79    86    87    1
    80     2     3    1
    81   112   109    1
    82   101   102    1
    83   109   110    1
    84    16    15    1
    85   131   132    1
    86     4     3    2
    87    37    38    1
    88    65    64    2
    89     3     7   am
    90    66    67    1
    91    66    63    1
    92    69    67   ar
    93    69    71   ar
    94    67    68   ar
    95   132   134    1
    96    71    72   ar
    97    87    88    1
    98    15    13   am
    99   123   122    2
   100    64    63    1
   101    68    70   ar
   102   102   103    1
   103    72    70   ar
   104   110   111    2
   105    88    89    1
   106    63    62    1
   107    54    52   ar
   108     7     8    1
   109    46    47    1
   110    51    52    1
   111    51    50    1
   112   103   104    1
   113   122   121    1
   114    13    14    2
   115    13    12    1
   116    52    53   ar
   117    10     9    2
   118     8     9    1
   119     9    11   am
   120   125   124    1
   121    47    50    1
   122    47    48    1
   123    11    12    1
   124   121   124    1
   125   121   120    1
   126   104   105    2
   127    60    59    1
   128    58    57    2
   129   124   126    1
   130    57    56    1
   131   106   105    1
   132   105   107    1
   133    48    49    2
   134    55    56    1
   135    56    59    1
   136    59    61    1
