@<TRIPOS>MOLECULE
tmp/3fktA00.pdb
 195 185 0 0 0
SMALL
GASTEIGER

@<TRIPOS>ATOM
      1  N         33.6240   49.6290    5.5210 N.3    16  GLN16      -0.1245
      2  CA        34.6020   48.8480    4.7410 C.3    16  GLN16       0.1566
      3  C         35.1290   47.6010    5.4600 C.2    16  GLN16       0.2260
      4  O         35.9870   46.8980    4.9350 O.2    16  GLN16      -0.2867
      5  CB        35.7640   49.7190    4.2880 C.3    16  GLN16       0.0367
      6  CG        35.3190   50.9060    3.4230 C.3    16  GLN16       0.0905
      7  CD        36.4720   51.5720    2.7360 C.2    16  GLN16       0.2608
      8  OE1       37.5780   51.6380    3.2740 O.2    16  GLN16      -0.2717
      9  NE2       36.2300   52.0700    1.5320 N.am   16  GLN16      -0.0878
     10  N         40.2410   40.8110    7.3980 N.3    34  LEU34      -0.1245
     11  CA        38.7970   40.9910    7.5530 C.3    34  LEU34       0.1561
     12  C         38.1370   39.8770    8.3900 C.2    34  LEU34       0.2260
     13  O         38.2290   38.7030    8.0670 O.2    34  LEU34      -0.2867
     14  CB        38.1200   41.0790    6.1780 C.3    34  LEU34       0.0270
     15  CG        36.5930   41.3180    6.2160 C.3    34  LEU34       0.0019
     16  CD1       36.2900   42.7370    6.7120 C.3    34  LEU34       0.0001
     17  CD2       35.9470   41.0800    4.8100 C.3    34  LEU34       0.0001
     18  N         35.1470   37.8450    9.1420 N.3    36  ASP36      -0.1239
     19  CA        33.9890   37.5360    8.3030 C.3    36  ASP36       0.1674
     20  C         33.2260   36.2830    8.7410 C.2    36  ASP36       0.2266
     21  O         33.5850   35.1520    8.3520 O.2    36  ASP36      -0.2867
     22  CB        34.4270   37.3930    6.8330 C.3    36  ASP36       0.1410
     23  CG        33.2590   37.1670    5.8920 C.2    36  ASP36       0.3668
     24  OD1       33.4820   36.6750    4.7710 O.co2  36  ASP36      -0.2456
     25  OD2       32.1060   37.4440    6.2720 O.co2  36  ASP36      -0.2456
     26  N         30.4690   35.4180    7.6450 N.3    38  GLY38      -0.1225
     27  CA        29.6270   34.9640    6.5280 C.3    38  GLY38       0.1811
     28  C         30.3290   34.0940    5.4750 C.2    38  GLY38       0.2280
     29  O         29.7630   33.8390    4.4010 O.2    38  GLY38      -0.2866
     30  N         31.4110   35.3280   -5.4790 N.3    75  TYR75      -0.1227
     31  CA        30.1660   35.9170   -4.9690 C.3    75  TYR75       0.1736
     32  C         29.4830   36.7410   -6.0590 C.2    75  TYR75       0.2596
     33  O         30.0420   36.9430   -7.1560 O.2    75  TYR75      -0.2718
     34  CB        30.4270   36.7930   -3.7540 C.3    75  TYR75       0.0548
     35  CG        31.2400   36.1370   -2.6540 C.ar   75  TYR75      -0.0200
     36  CD1       30.6730   35.1730   -1.8130 C.ar   75  TYR75      -0.0009
     37  CD2       32.5750   36.5110   -2.4270 C.ar   75  TYR75      -0.0009
     38  CE1       31.4220   34.5820   -0.7690 C.ar   75  TYR75       0.0417
     39  CE2       33.3330   35.9270   -1.3990 C.ar   75  TYR75       0.0417
     40  CZ        32.7500   34.9660   -0.5710 C.ar   75  TYR75       0.1957
     41  OH        33.5040   34.3750    0.4430 O.3    75  TYR75      -0.2866
     42  N         28.2650   37.1940   -5.7520 N.am   76  THR76      -0.1939
     43  CA        27.5220   38.1090   -6.6120 C.3    76  THR76       0.2028
     44  C         28.3670   39.3400   -6.9410 C.2    76  THR76       0.2642
     45  O         28.4680   39.7470   -8.0980 O.2    76  THR76      -0.2714
     46  CB        26.2050   38.5570   -5.9390 C.3    76  THR76       0.1808
     47  OG1       25.4090   37.4000   -5.6580 O.3    76  THR76      -0.2208
     48  CG2       25.4080   39.5020   -6.8550 C.3    76  THR76       0.0379
     49  N         29.0040   39.9060   -5.9230 N.am   77  GLN77      -0.1963
     50  CA        29.6620   41.1920   -6.0770 C.3    77  GLN77       0.1733
     51  C         31.1570   41.1310   -6.4250 C.2    77  GLN77       0.2616
     52  O         31.7450   42.1500   -6.8000 O.2    77  GLN77      -0.2715
     53  CB        29.4870   41.9640   -4.7760 C.3    77  GLN77       0.0408
     54  CG        28.1580   42.6700   -4.5900 C.3    77  GLN77       0.0908
     55  CD        28.3830   44.1530   -4.4530 C.2    77  GLN77       0.2608
     56  OE1       29.0070   44.6090   -3.4800 O.2    77  GLN77      -0.2717
     57  NE2       27.9270   44.9230   -5.4490 N.am   77  GLN77      -0.0878
     58  N         31.7830   39.9630   -6.2580 N.am   78  GLY78      -0.1955
     59  CA        33.2420   39.8640   -6.3710 C.3    78  GLY78       0.1869
     60  C         33.7510   38.4530   -6.1250 C.2    78  GLY78       0.2309
     61  O         32.9860   37.5950   -5.6950 O.2    78  GLY78      -0.2863
     62  N         37.0950   42.6690   -7.9550 N.3   111  LYS111     -0.1231
     63  CA        36.1980   43.4660   -7.1180 C.3   111  LYS111      0.1693
     64  C         36.0950   42.9340   -5.6700 C.2   111  LYS111      0.2592
     65  O         35.0540   43.0500   -5.0070 O.2   111  LYS111     -0.2718
     66  CB        34.8060   43.5810   -7.7780 C.3   111  LYS111      0.0285
     67  CG        34.8250   44.2950   -9.1510 C.3   111  LYS111      0.0035
     68  CD        33.4080   44.3880   -9.7330 C.3   111  LYS111      0.0206
     69  CE        33.3890   45.3070  -10.9630 C.3   111  LYS111      0.1093
     70  NZ        32.1520   45.0790  -11.7960 N.3   111  LYS111     -0.1314
     71  N         37.1940   42.3350   -5.2170 N.am  112  PHE112     -0.1962
     72  CA        37.2580   41.7570   -3.8900 C.3   112  PHE112      0.1771
     73  C         37.8740   42.6980   -2.8810 C.2   112  PHE112      0.2620
     74  O         37.2170   43.0690   -1.8820 O.2   112  PHE112     -0.2715
     75  CB        37.9830   40.3960   -3.8830 C.3   112  PHE112      0.0574
     76  CG        37.9260   39.7130   -2.5500 C.ar  112  PHE112     -0.0200
     77  CD1       36.7110   39.1990   -2.0690 C.ar  112  PHE112     -0.0042
     78  CD2       39.0680   39.6120   -1.7540 C.ar  112  PHE112     -0.0042
     79  CE1       36.6400   38.5630   -0.8260 C.ar  112  PHE112     -0.0003
     80  CE2       39.0020   38.9870   -0.4990 C.ar  112  PHE112     -0.0003
     81  CZ        37.7750   38.4730   -0.0440 C.ar  112  PHE112     -0.0000
     82  N         39.1220   43.1050   -3.1260 N.am  113  PHE113     -0.1960
     83  CA        39.7810   44.0600   -2.2290 C.3   113  PHE113      0.1771
     84  C         39.1490   45.4420   -2.3570 C.2   113  PHE113      0.2619
     85  O         38.6450   45.7900   -3.4230 O.2   113  PHE113     -0.2715
     86  CB        41.2950   44.0990   -2.4560 C.3   113  PHE113      0.0574
     87  CG        41.9810   42.7820   -2.1590 C.ar  113  PHE113     -0.0200
     88  CD1       42.5810   42.0500   -3.1840 C.ar  113  PHE113     -0.0042
     89  CD2       41.9710   42.2470   -0.8540 C.ar  113  PHE113     -0.0042
     90  CE1       43.2180   40.8200   -2.9100 C.ar  113  PHE113     -0.0003
     91  CE2       42.5820   41.0170   -0.5770 C.ar  113  PHE113     -0.0003
     92  CZ        43.2140   40.3130   -1.6050 C.ar  113  PHE113     -0.0000
     93  N         39.1610   46.2010   -1.2640 N.am  114  ILE114     -0.1977
     94  CA        38.5840   47.5510   -1.2430 C.3   114  ILE114      0.1596
     95  C         39.7150   48.5730   -1.1530 C.2   114  ILE114      0.2287
     96  O         40.5030   48.5540   -0.1960 O.2   114  ILE114     -0.2864
     97  CB        37.6530   47.7750   -0.0220 C.3   114  ILE114      0.0276
     98  CG1       36.4830   46.8080   -0.0170 C.3   114  ILE114      0.0022
     99  CG2       37.1250   49.2030    0.0000 C.3   114  ILE114      0.0022
    100  CD1       35.7200   46.7580    1.3210 C.3   114  ILE114      0.0001
    101  N         42.7860   46.3060    4.8840 N.3   119  TRP119     -0.1241
    102  CA        42.8710   44.8520    5.0510 C.3   119  TRP119      0.1605
    103  C         43.3510   44.1240    3.7880 C.2   119  TRP119      0.2264
    104  O         43.1070   44.5780    2.6540 O.2   119  TRP119     -0.2867
    105  CB        41.5930   44.2680    5.6630 C.3   119  TRP119      0.0550
    106  CG        40.2820   44.5200    4.9330 C.ar  119  TRP119      0.0003
    107  CD1       39.3280   45.4470    5.2660 C.ar  119  TRP119      0.0946
    108  CD2       39.7550   43.7890    3.8130 C.ar  119  TRP119      0.0152
    109  NE1       38.2500   45.3470    4.4090 N.ar  119  TRP119     -0.2442
    110  CE2       38.4830   44.3400    3.5120 C.ar  119  TRP119      0.0810
    111  CE3       40.2300   42.7190    3.0330 C.ar  119  TRP119      0.0012
    112  CZ2       37.6900   43.8730    2.4550 C.ar  119  TRP119      0.0191
    113  CZ3       39.4370   42.2600    1.9730 C.ar  119  TRP119      0.0001
    114  CH2       38.1770   42.8350    1.7050 C.ar  119  TRP119      0.0015
    115  N         41.0150   37.7520    4.3920 N.3   122  ILE122     -0.1245
    116  CA        39.7190   37.5000    5.0140 C.3   122  ILE122      0.1561
    117  C         39.8510   36.2800    5.9210 C.2   122  ILE122      0.2260
    118  O         40.5580   35.3170    5.5760 O.2   122  ILE122     -0.2867
    119  CB        38.6330   37.2640    3.9290 C.3   122  ILE122      0.0252
    120  CG1       37.2490   37.0310    4.5340 C.3   122  ILE122      0.0019
    121  CG2       39.0440   36.1460    2.9080 C.3   122  ILE122      0.0019
    122  CD1       36.1160   37.2150    3.4790 C.3   122  ILE122      0.0001
    123  N         26.3780   28.6240    7.3210 N.3   190  TYR190     -0.1241
    124  CA        26.3970   30.0170    7.8350 C.3   190  TYR190      0.1605
    125  C         26.0120   29.9840    9.3150 C.2   190  TYR190      0.2264
    126  O         25.6500   28.9140    9.8360 O.2   190  TYR190     -0.2867
    127  CB        25.4150   30.8960    7.0680 C.3   190  TYR190      0.0534
    128  CG        25.7190   30.9930    5.5880 C.ar  190  TYR190     -0.0201
    129  CD1       26.6040   31.9730    5.0890 C.ar  190  TYR190     -0.0009
    130  CD2       25.1200   30.1300    4.6880 C.ar  190  TYR190     -0.0009
    131  CE1       26.8870   32.0480    3.7210 C.ar  190  TYR190      0.0417
    132  CE2       25.3970   30.2050    3.3200 C.ar  190  TYR190      0.0417
    133  CZ        26.2730   31.1660    2.8560 C.ar  190  TYR190      0.1957
    134  OH        26.5090   31.2260    1.5070 O.3   190  TYR190     -0.2866
    135  N         16.9380   31.7270    4.0820 N.3   216  LYS216     -0.1245
    136  CA        17.6880   31.6580    5.3710 C.3   216  LYS216      0.1561
    137  C         17.8320   33.0460    5.9920 C.2   216  LYS216      0.2260
    138  O         17.6830   34.0530    5.2880 O.2   216  LYS216     -0.2867
    139  CB        19.0980   31.0600    5.1730 C.3   216  LYS216      0.0271
    140  CG        19.9960   31.8870    4.2280 C.3   216  LYS216      0.0035
    141  CD        21.2630   31.1570    3.8670 C.3   216  LYS216      0.0206
    142  CE        21.9880   31.9040    2.7670 C.3   216  LYS216      0.1093
    143  NZ        21.2460   31.8970    1.4820 N.3   216  LYS216     -0.1314
    144  N         20.9360   34.8630    8.3010 N.3   218  ILE218     -0.1245
    145  CA        22.3000   34.6360    8.7950 C.3   218  ILE218      0.1561
    146  C         22.8430   35.8580    9.5360 C.2   218  ILE218      0.2260
    147  O         22.4020   36.9990    9.2840 O.2   218  ILE218     -0.2867
    148  CB        23.2860   34.1990    7.6340 C.3   218  ILE218      0.0252
    149  CG1       23.5080   35.3470    6.6190 C.3   218  ILE218      0.0019
    150  CG2       22.7660   32.9440    6.9240 C.3   218  ILE218      0.0019
    151  CD1       24.7380   35.1500    5.6610 C.3   218  ILE218      0.0001
    152  N         26.1710   37.9930    9.8110 N.3   220  ASP220     -0.1239
    153  CA        27.3360   38.1300    8.9250 C.3   220  ASP220      0.1674
    154  C         28.0870   39.4370    9.1620 C.2   220  ASP220      0.2266
    155  O         27.6920   40.4870    8.6730 O.2   220  ASP220     -0.2867
    156  CB        26.9120   37.9550    7.4500 C.3   220  ASP220      0.1410
    157  CG        28.0840   38.1070    6.4500 C.2   220  ASP220      0.3668
    158  OD1       29.2480   38.1480    6.8680 O.co2 220  ASP220     -0.2456
    159  OD2       27.8140   38.1530    5.2340 O.co2 220  ASP220     -0.2456
    160  N         30.7540   40.2720    7.8470 N.3   222  GLY222     -0.1210
    161  CA        31.3900   40.7450    6.5970 C.3   222  GLY222      0.1956
    162  C         30.4760   41.5000    5.6370 C.2   222  GLY222      0.2612
    163  O         30.9350   41.9840    4.5860 O.2   222  GLY222     -0.2717
    164  N         29.1850   41.5800    5.9820 N.am  223  THR223     -0.1952
    165  CA        28.1890   42.3310    5.1820 C.3   223  THR223      0.1897
    166  C         27.8260   43.6260    5.9190 C.2   223  THR223      0.2313
    167  O         27.5380   43.6190    7.1150 O.2   223  THR223     -0.2863
    168  CB        26.9030   41.5000    4.9310 C.3   223  THR223      0.1794
    169  OG1       27.1880   40.4310    4.0190 O.3   223  THR223     -0.2208
    170  CG2       25.7630   42.3860    4.3270 C.3   223  THR223      0.0378
    171  N         20.2450   43.1200    5.1910 N.3   227  ARG227     -0.1245
    172  CA        19.6410   42.7360    3.9190 C.3   227  ARG227      0.1563
    173  C         18.3810   41.9280    4.1770 C.2   227  ARG227      0.2260
    174  O         18.3730   41.0070    5.0160 O.2   227  ARG227     -0.2867
    175  CB        20.6320   41.9930    3.0040 C.3   227  ARG227      0.0307
    176  CG        21.9650   42.7430    2.8620 C.3   227  ARG227      0.0489
    177  CD        22.9280   42.0680    1.9100 C.3   227  ARG227      0.2205
    178  NE        22.3840   41.9870    0.5570 N.pl3 227  ARG227     -0.0865
    179  CZ        22.5650   40.9490   -0.2600 C.cat 227  ARG227      0.5346
    180  NH1       23.3080   39.9050    0.1220 N.pl3 227  ARG227      0.1354
    181  NH2       22.0140   40.9610   -1.4650 N.pl3 227  ARG227      0.1354
    182  N         18.7560   36.0960   -1.4270 N.3   316  THR316     -0.1218
    183  CA        19.3770   34.9290   -0.8080 C.3   316  THR316      0.1862
    184  C         19.1820   34.9210    0.7180 C.2   316  THR316      0.2287
    185  O         20.0370   34.4290    1.4680 O.2   316  THR316     -0.2866
    186  CB        20.8840   34.8590   -1.1350 C.3   316  THR316      0.1770
    187  OG1       21.5380   36.0480   -0.6580 O.3   316  THR316     -0.2211
    188  CG2       21.1040   34.7380   -2.6440 C.3   316  THR316      0.0375
    189  N         20.2050   38.9370    5.7800 N.3   319  VAL319     -0.1245
    190  CA        21.5860   39.0210    6.2710 C.3   319  VAL319      0.1561
    191  C         21.6330   40.1020    7.3400 C.2   319  VAL319      0.2260
    192  O         21.4390   41.2960    7.0220 O.2   319  VAL319     -0.2867
    193  CB        22.6140   39.3130    5.1540 C.3   319  VAL319      0.0252
    194  CG1       24.0420   39.3400    5.7550 C.3   319  VAL319      0.0019
    195  CG2       22.5210   38.2660    4.0270 C.3   319  VAL319      0.0019
@<TRIPOS>BOND
     1    70    69    1
     2    69    68    1
     3    68    67    1
     4    67    66    1
     5    45    44    2
     6    62    63    1
     7    66    63    1
     8    33    32    2
     9    63    64    1
    10    44    43    1
    11    44    49   am
    12    48    46    1
    13    52    51    2
    14    43    46    1
    15    43    42    1
    16    51    58   am
    17    51    50    1
    18    59    58    1
    19    59    60    1
    20    60    61    2
    21    50    49    1
    22    50    53    1
    23    32    42   am
    24    32    31    1
    25    46    47    1
    26    64    71   am
    27    64    65    2
    28    30    31    1
    29    57    55   am
    30    71    72    1
    31    31    34    1
    32    53    54    1
    33    54    55    1
    34    55    56    2
    35    72    75    1
    36    72    73    1
    37    75    76    1
    38    34    35    1
    39    85    84    2
    40    88    90   ar
    41    88    87   ar
    42    82    73   am
    43    82    83    1
    44    90    92   ar
    45    73    74    2
    46    35    37   ar
    47    35    36   ar
    48   188   186    1
    49    76    77   ar
    50    76    78   ar
    51    86    83    1
    52    86    87    1
    53    37    39   ar
    54    84    83    1
    55    84    93   am
    56    87    89   ar
    57    77    79   ar
    58    36    38   ar
    59    78    80   ar
    60    92    91   ar
    61   181   179    1
    62   182   183    1
    63    39    40   ar
    64    93    94    1
    65    94    95    1
    66    94    97    1
    67    95    96    2
    68   186   183    1
    69   186   187    1
    70    89    91   ar
    71    79    81   ar
    72   183   184    1
    73    38    40   ar
    74    40    41    1
    75    80    81   ar
    76   179   180    1
    77   179   178    2
    78    97    98    1
    79    97    99    1
    80    98   100    1
    81   178   177    1
    82   184   185    2
    83   143   142    1
    84   134   133    1
    85     9     7   am
    86   114   113   ar
    87   114   112   ar
    88   177   176    1
    89   113   111   ar
    90   112   110   ar
    91   104   103    2
    92     7     8    2
    93     7     6    1
    94   142   141    1
    95   133   132   ar
    96   133   131   ar
    97   176   175    1
    98   121   119    1
    99   175   172    1
   100   111   108   ar
   101   132   130   ar
   102     6     5    1
   103   122   120    1
   104   110   108   ar
   105   110   109   ar
   106   131   129   ar
   107   103   102    1
   108   108   106   ar
   109   141   140    1
   110   172   173    1
   111   172   171    1
   112   119   120    1
   113   119   116    1
   114   169   168    1
   115   195   193    1
   116   135   136    1
   117   173   174    2
   118   140   139    1
   119     5     2    1
   120   170   168    1
   121   115   116    1
   122    29    28    2
   123   109   107   ar
   124   163   162    2
   125   130   128   ar
   126     2     3    1
   127     2     1    1
   128    24    23   ar
   129    17    15    1
   130   101   102    1
   131   168   165    1
   132   106   107   ar
   133   106   105    1
   134     4     3    2
   135   116   117    1
   136   102   105    1
   137   129   128   ar
   138   193   194    1
   139   193   190    1
   140   139   136    1
   141   165   166    1
   142   165   164    1
   143   159   157   ar
   144   138   137    2
   145   136   137    1
   146    28    27    1
   147   118   117    2
   148   128   127    1
   149   162   164   am
   150   162   161    1
   151   151   149    1
   152   189   190    1
   153    23    25   ar
   154    23    22    1
   155   166   167    2
   156    14    15    1
   157    14    11    1
   158    15    16    1
   159   190   191    1
   160   157   158   ar
   161   157   156    1
   162    27    26    1
   163   161   160    1
   164   149   148    1
   165    22    19    1
   166   150   148    1
   167   192   191    2
   168   127   124    1
   169   123   124    1
   170    10    11    1
   171   156   153    1
   172    11    12    1
   173   148   145    1
   174   124   125    1
   175    13    12    2
   176   144   145    1
   177    19    20    1
   178    19    18    1
   179    21    20    2
   180   155   154    2
   181   145   146    1
   182   153   154    1
   183   153   152    1
   184   147   146    2
   185   125   126    2
