@<TRIPOS>MOLECULE
tmp/3fkyC00.pdb
 92 84 0 0 0
SMALL
GASTEIGER

@<TRIPOS>ATOM
      1  N         58.4920   21.2590   37.5930 N.3   113  GLU113     -0.1245
      2  CA        57.5420   21.4580   36.5220 C.3   113  GLU113      0.1567
      3  C         56.3140   20.6190   36.8580 C.2   113  GLU113      0.2260
      4  O         56.4390   19.5500   37.4550 O.2   113  GLU113     -0.2867
      5  CB        58.1660   21.0510   35.1850 C.3   113  GLU113      0.0388
      6  CG        59.2920   21.9600   34.7400 C.3   113  GLU113      0.1160
      7  CD        59.9010   21.5350   33.4300 C.2   113  GLU113      0.3649
      8  OE1       59.6500   20.3980   33.0160 O.co2 113  GLU113     -0.2457
      9  OE2       60.6320   22.3310   32.8100 O.co2 113  GLU113     -0.2457
     10  N         55.6470   27.1420   31.2840 N.3   173  GLU173     -0.1245
     11  CA        56.4220   26.2110   30.4800 C.3   173  GLU173      0.1567
     12  C         55.9540   26.0720   29.0410 C.2   173  GLU173      0.2260
     13  O         55.0420   26.7570   28.6010 O.2   173  GLU173     -0.2867
     14  CB        56.5180   24.8420   31.1560 C.3   173  GLU173      0.0388
     15  CG        57.7740   24.6730   32.0080 C.3   173  GLU173      0.1160
     16  CD        59.0580   24.8240   31.2080 C.2   173  GLU173      0.3649
     17  OE1       59.9160   25.6220   31.6420 O.co2 173  GLU173     -0.2457
     18  OE2       59.2020   24.1600   30.1480 O.co2 173  GLU173     -0.2457
     19  N         51.1310   24.0780   31.4260 N.3   178  GLN178     -0.1245
     20  CA        52.2370   23.4680   32.1440 C.3   178  GLN178      0.1566
     21  C         53.1380   24.5700   32.7370 C.2   178  GLN178      0.2260
     22  O         53.5220   25.5140   32.0460 O.2   178  GLN178     -0.2867
     23  CB        53.0290   22.5680   31.1960 C.3   178  GLN178      0.0367
     24  CG        54.2060   21.8700   31.8430 C.3   178  GLN178      0.0905
     25  CD        54.9970   21.0630   30.8350 C.2   178  GLN178      0.2608
     26  OE1       55.8650   21.5920   30.1380 O.2   178  GLN178     -0.2717
     27  NE2       54.6890   19.7730   30.7380 N.am  178  GLN178     -0.0878
     28  N         55.5990   18.7420   25.5910 N.3   225  ASN225     -0.1225
     29  CA        56.6980   18.6090   26.5200 C.3   225  ASN225      0.1785
     30  C         56.4050   17.7260   27.7230 C.2   225  ASN225      0.2598
     31  O         55.2630   17.6060   28.1830 O.2   225  ASN225     -0.2718
     32  CB        57.1950   19.9780   26.9700 C.3   225  ASN225      0.1169
     33  CG        58.2750   20.5370   26.0490 C.2   225  ASN225      0.2627
     34  OD1       58.3580   20.1790   24.8710 O.2   225  ASN225     -0.2716
     35  ND2       59.1070   21.4220   26.5890 N.am  225  ASN225     -0.0877
     36  N         57.4660   17.0900   28.2090 N.am  226  GLY226     -0.1942
     37  CA        57.3950   16.2760   29.4030 C.3   226  GLY226      0.2014
     38  C         57.5150   17.1910   30.5930 C.2   226  GLY226      0.2638
     39  O         57.5120   18.3980   30.4270 O.2   226  GLY226     -0.2714
     40  N         57.6110   16.6290   31.7890 N.am  227  ALA227     -0.1977
     41  CA        57.7200   17.4370   32.9910 C.3   227  ALA227      0.1597
     42  C         58.8540   16.9230   33.8530 C.2   227  ALA227      0.2287
     43  O         58.8450   15.7790   34.3060 O.2   227  ALA227     -0.2864
     44  CB        56.4230   17.4270   33.7600 C.3   227  ALA227      0.0319
     45  N         64.4810   19.3660   37.2270 N.3   230  HIS230     -0.1241
     46  CA        65.9130   19.6100   37.1530 C.3   230  HIS230      0.1621
     47  C         66.5010   19.8960   38.5380 C.2   230  HIS230      0.2264
     48  O         66.1160   20.8800   39.1790 O.2   230  HIS230     -0.2867
     49  CB        66.1470   20.7810   36.2150 C.3   230  HIS230      0.0745
     50  CG        65.7720   20.4890   34.8040 C.ar  230  HIS230      0.0817
     51  ND1       66.1630   21.2860   33.7490 N.ar  230  HIS230     -0.2268
     52  CD2       65.0750   19.4620   34.2650 C.ar  230  HIS230      0.1154
     53  CE1       65.7020   20.7720   32.6210 C.ar  230  HIS230      0.1986
     54  NE2       65.0380   19.6660   32.9100 N.ar  230  HIS230     -0.2212
     55  N         59.9030   10.3080   28.8870 N.3   272  ARG272     -0.1245
     56  CA        60.5110   11.6330   28.8160 C.3   272  ARG272      0.1563
     57  C         62.0020   11.3630   28.5740 C.2   272  ARG272      0.2260
     58  O         62.3180   10.6950   27.7040 O.2   272  ARG272     -0.2867
     59  CB        60.2960   12.3210   30.1420 C.3   272  ARG272      0.0307
     60  CG        60.7290   13.7650   30.1490 C.3   272  ARG272      0.0489
     61  CD        60.6160   14.3720   31.5280 C.3   272  ARG272      0.2205
     62  NE        61.7810   14.1080   32.3630 N.pl3 272  ARG272     -0.0865
     63  CZ        62.7050   15.0160   32.6670 C.cat 272  ARG272      0.5346
     64  NH1       62.6180   16.2570   32.1960 N.pl3 272  ARG272      0.1354
     65  NH2       63.7120   14.6860   33.4530 N.pl3 272  ARG272      0.1354
     66  N         66.5970   13.9740   25.2480 N.3   276  ALA276     -0.1245
     67  CA        67.5650   13.4440   26.2280 C.3   276  ALA276      0.1562
     68  C         67.3070   11.9510   26.3700 C.2   276  ALA276      0.2260
     69  O         66.2790   11.4950   25.8890 O.2   276  ALA276     -0.2867
     70  CB        67.4490   14.1710   27.6000 C.3   276  ALA276      0.0290
     71  N         71.1800   21.7890   26.7320 N.3   288  ARG288     -0.1245
     72  CA        69.8750   21.3310   27.2040 C.3   288  ARG288      0.1563
     73  C         69.5500   19.9420   26.6480 C.2   288  ARG288      0.2260
     74  O         68.4430   19.4240   26.8390 O.2   288  ARG288     -0.2867
     75  CB        68.7730   22.3430   26.8670 C.3   288  ARG288      0.0307
     76  CG        68.9130   23.6660   27.6110 C.3   288  ARG288      0.0489
     77  CD        67.6930   24.5810   27.4610 C.3   288  ARG288      0.2205
     78  NE        67.9890   25.9340   27.9300 N.pl3 288  ARG288     -0.0865
     79  CZ        67.7320   26.3750   29.1570 C.cat 288  ARG288      0.5346
     80  NH1       67.1510   25.5700   30.0450 N.pl3 288  ARG288      0.1354
     81  NH2       68.0530   27.6220   29.4930 N.pl3 288  ARG288      0.1354
     82  N         69.6580   17.3290   34.5660 N.3   309  ARG309     -0.1245
     83  CA        68.3710   17.4910   33.8940 C.3   309  ARG309      0.1563
     84  C         67.5970   16.1860   33.8290 C.2   309  ARG309      0.2260
     85  O         66.5460   16.1320   33.2000 O.2   309  ARG309     -0.2867
     86  CB        68.5470   18.0410   32.4740 C.3   309  ARG309      0.0307
     87  CG        69.8010   18.8800   32.2590 C.3   309  ARG309      0.0489
     88  CD        69.5720   20.0410   31.2990 C.3   309  ARG309      0.2205
     89  NE        68.6260   19.7020   30.2490 N.pl3 309  ARG309     -0.0865
     90  CZ        67.7410   20.5620   29.7520 C.cat 309  ARG309      0.5346
     91  NH1       67.6870   21.8120   30.2210 N.pl3 309  ARG309      0.1354
     92  NH2       66.9040   20.1680   28.7960 N.pl3 309  ARG309      0.1354
@<TRIPOS>BOND
     1    34    33    2
     2    66    67    1
     3    28    29    1
     4    69    68    2
     5    33    35   am
     6    33    32    1
     7    67    68    1
     8    67    70    1
     9    29    32    1
    10    29    30    1
    11    73    74    2
    12    73    72    1
    13    71    72    1
    14    75    72    1
    15    75    76    1
    16    77    76    1
    17    77    78    1
    18    58    57    2
    19    30    31    2
    20    30    36   am
    21    78    79    2
    22    36    37    1
    23    57    56    1
    24    13    12    2
    25    92    90    1
    26    56    55    1
    27    56    59    1
    28    12    11    1
    29    79    81    1
    30    79    80    1
    31    37    38    1
    32    90    91    1
    33    90    89    2
    34    26    25    2
    35    59    60    1
    36    18    16   ar
    37    60    61    1
    38    89    88    1
    39    39    38    2
    40    11    14    1
    41    11    10    1
    42    38    40   am
    43    27    25   am
    44    25    24    1
    45    14    15    1
    46    23    24    1
    47    23    20    1
    48    16    17   ar
    49    16    15    1
    50    88    87    1
    51    19    20    1
    52    61    62    1
    53    40    41    1
    54    22    21    2
    55    20    21    1
    56    64    63    1
    57    87    86    1
    58    62    63    2
    59    86    83    1
    60    53    54   ar
    61    53    51   ar
    62    63    65    1
    63     9     7   ar
    64    54    52   ar
    65    41    44    1
    66    41    42    1
    67     8     7   ar
    68    85    84    2
    69     7     6    1
    70    51    50   ar
    71    84    83    1
    72    42    43    2
    73    83    82    1
    74    52    50   ar
    75     6     5    1
    76    50    49    1
    77     5     2    1
    78    49    46    1
    79     2     3    1
    80     2     1    1
    81     3     4    2
    82    46    45    1
    83    46    47    1
    84    47    48    2
