@<TRIPOS>MOLECULE
tmp/3fl0A00.pdb
 106 102 0 0 0
SMALL
GASTEIGER

@<TRIPOS>ATOM
      1  N          6.8280   37.7910   28.4250 N.3    39  LYS39      -0.1245
      2  CA         8.2190   37.6390   27.9690 C.3    39  LYS39       0.1561
      3  C          8.4020   38.7510   26.9410 C.2    39  LYS39       0.2260
      4  O          7.5960   38.8660   26.0430 O.2    39  LYS39      -0.2867
      5  CB         8.4330   36.2830   27.3030 C.3    39  LYS39       0.0271
      6  CG         9.8910   36.0490   26.8420 C.3    39  LYS39       0.0035
      7  CD        10.1410   34.5760   26.5620 C.3    39  LYS39       0.0206
      8  CE        11.6000   34.2940   26.0640 C.3    39  LYS39       0.1093
      9  NZ        11.8100   32.8670   25.7550 N.3    39  LYS39      -0.1314
     10  N         10.6070   39.3480   24.3600 N.3    41  VAL41      -0.1231
     11  CA        10.9500   38.9550   23.0150 C.3    41  VAL41       0.1692
     12  C         11.0790   37.4640   22.9510 C.2    41  VAL41       0.2592
     13  O         11.7190   36.8340   23.8150 O.2    41  VAL41      -0.2718
     14  CB        12.3640   39.5310   22.5930 C.3    41  VAL41       0.0266
     15  CG1       12.7450   39.0470   21.1790 C.3    41  VAL41       0.0020
     16  CG2       12.3900   41.0460   22.6820 C.3    41  VAL41       0.0020
     17  N         10.4740   36.8710   21.9300 N.am   42  ASN42      -0.1960
     18  CA        10.6080   35.4300   21.7820 C.3    42  ASN42       0.1819
     19  C         10.4890   35.0440   20.2880 C.2    42  ASN42       0.2621
     20  O          9.6080   35.5610   19.5980 O.2    42  ASN42      -0.2715
     21  CB         9.5060   34.7330   22.6110 C.3    42  ASN42       0.1195
     22  CG         9.6540   33.2190   22.6030 C.2    42  ASN42       0.2630
     23  OD1       10.4190   32.6810   23.4070 O.2    42  ASN42      -0.2716
     24  ND2        8.9290   32.5190   21.6990 N.am   42  ASN42      -0.0877
     25  N         11.3710   34.1730   19.7830 N.am   43  THR43      -0.1951
     26  CA        11.3060   33.7340   18.3690 C.3    43  THR43       0.1897
     27  C         10.8280   32.2820   18.2490 C.2    43  THR43       0.2313
     28  O         11.2580   31.4160   19.0580 O.2    43  THR43      -0.2863
     29  CB        12.7460   33.7950   17.6990 C.3    43  THR43       0.1794
     30  OG1       13.2690   35.1110   17.8280 O.3    43  THR43      -0.2208
     31  CG2       12.6890   33.3400   16.2160 C.3    43  THR43       0.0378
     32  N         25.5850   35.6320   23.1870 N.3    64  LYS64      -0.1245
     33  CA        25.4450   37.0060   23.6890 C.3    64  LYS64       0.1561
     34  C         25.9580   37.1910   25.1200 C.2    64  LYS64       0.2260
     35  O         26.5910   38.2140   25.4260 O.2    64  LYS64      -0.2867
     36  CB        23.9700   37.4280   23.6090 C.3    64  LYS64       0.0271
     37  CG        23.5860   37.7960   22.2220 C.3    64  LYS64       0.0035
     38  CD        22.1270   38.2770   22.1450 C.3    64  LYS64       0.0206
     39  CE        21.9400   39.3040   21.0000 C.3    64  LYS64       0.1093
     40  NZ        23.0450   39.2020   19.9700 N.3    64  LYS64      -0.1314
     41  N          9.3970   36.5240   14.8810 N.3    81  ASP81      -0.1239
     42  CA         9.8580   37.2590   16.0440 C.3    81  ASP81       0.1674
     43  C          8.5590   37.7580   16.7080 C.2    81  ASP81       0.2266
     44  O          7.6600   38.2550   16.0090 O.2    81  ASP81      -0.2867
     45  CB        10.7260   38.4690   15.5750 C.3    81  ASP81       0.1410
     46  CG        11.2690   39.2850   16.7290 C.2    81  ASP81       0.3668
     47  OD1       10.5380   40.1740   17.2150 O.co2  81  ASP81      -0.2456
     48  OD2       12.4210   39.0160   17.1620 O.co2  81  ASP81      -0.2456
     49  N          7.4350   40.3980   19.7140 N.3    83  ARG83      -0.1245
     50  CA         7.9720   41.4620   20.5560 C.3    83  ARG83       0.1563
     51  C          6.7850   42.2020   21.1100 C.2    83  ARG83       0.2260
     52  O          5.8220   42.4400   20.3850 O.2    83  ARG83      -0.2867
     53  CB         8.7360   42.4510   19.6800 C.3    83  ARG83       0.0307
     54  CG        10.1160   42.7160   20.0700 C.3    83  ARG83       0.0489
     55  CD        10.8110   43.2920   18.8630 C.3    83  ARG83       0.2205
     56  NE        11.6790   42.2770   18.3190 N.pl3  83  ARG83      -0.0865
     57  CZ        12.9730   42.3010   18.5190 C.cat  83  ARG83       0.5346
     58  NH1       13.4720   43.3000   19.2330 N.pl3  83  ARG83       0.1354
     59  NH2       13.7380   41.3140   18.0900 N.pl3  83  ARG83       0.1354
     60  N         19.1750   24.3150   23.6290 N.3   116  VAL116     -0.1231
     61  CA        18.5520   24.5370   24.9210 C.3   116  VAL116      0.1692
     62  C         18.1950   25.9950   25.1000 C.2   116  VAL116      0.2592
     63  O         17.4840   26.3540   26.0430 O.2   116  VAL116     -0.2718
     64  CB        19.4750   24.0850   26.1010 C.3   116  VAL116      0.0266
     65  CG1       19.5720   22.5510   26.1430 C.3   116  VAL116      0.0020
     66  CG2       20.8740   24.6640   25.9110 C.3   116  VAL116      0.0020
     67  N         18.6700   26.8650   24.2100 N.am  117  HIS117     -0.1962
     68  CA        18.3170   28.2800   24.3350 C.3   117  HIS117      0.1787
     69  C         18.3910   28.9390   22.9730 C.2   117  HIS117      0.2620
     70  O         19.2700   28.5740   22.1570 O.2   117  HIS117     -0.2715
     71  CB        19.3070   28.9680   25.3290 C.3   117  HIS117      0.0785
     72  CG        19.5390   30.4520   25.1100 C.ar  117  HIS117      0.0821
     73  ND1       18.6850   31.4330   25.5930 N.ar  117  HIS117     -0.2267
     74  CD2       20.6080   31.1250   24.5910 C.ar  117  HIS117      0.1154
     75  CE1       19.2090   32.6310   25.3940 C.ar  117  HIS117      0.1986
     76  NE2       20.3790   32.4720   24.7840 N.ar  117  HIS117     -0.2212
     77  N         17.4610   29.8520   22.7070 N.am  118  PHE118     -0.1960
     78  CA        17.4950   30.6120   21.4540 C.3   118  PHE118      0.1771
     79  C         18.2620   31.9280   21.7820 C.2   118  PHE118      0.2620
     80  O         17.8000   32.7580   22.6170 O.2   118  PHE118     -0.2715
     81  CB        16.0660   30.9570   20.9490 C.3   118  PHE118      0.0574
     82  CG        16.0500   31.5570   19.5550 C.ar  118  PHE118     -0.0200
     83  CD1       16.2380   32.9410   19.3640 C.ar  118  PHE118     -0.0042
     84  CD2       15.9170   30.7320   18.4260 C.ar  118  PHE118     -0.0042
     85  CE1       16.3030   33.4740   18.0390 C.ar  118  PHE118     -0.0003
     86  CE2       15.9780   31.2580   17.1450 C.ar  118  PHE118     -0.0003
     87  CZ        16.1730   32.6280   16.9550 C.ar  118  PHE118     -0.0000
     88  N         19.3890   32.1380   21.1280 N.am  119  ASP119     -0.1957
     89  CA        20.1760   33.2880   21.4270 C.3   119  ASP119      0.1840
     90  C         19.8950   34.5400   20.6340 C.2   119  ASP119      0.2622
     91  O         19.9210   35.6360   21.2120 O.2   119  ASP119     -0.2715
     92  CB        21.6670   32.9320   21.3220 C.3   119  ASP119      0.1450
     93  CG        22.5300   33.7930   22.2260 C.2   119  ASP119      0.3671
     94  OD1       22.1420   33.9800   23.4040 O.co2 119  ASP119     -0.2456
     95  OD2       23.5680   34.2950   21.7430 O.co2 119  ASP119     -0.2456
     96  N         19.6430   34.4140   19.3280 N.am  120  ALA120     -0.1963
     97  CA        19.3930   35.5790   18.4820 C.3   120  ALA120      0.1728
     98  C         19.1240   35.1300   17.0670 C.2   120  ALA120      0.2616
     99  O         19.3950   33.9920   16.7150 O.2   120  ALA120     -0.2715
    100  CB        20.6620   36.4780   18.4740 C.3   120  ALA120      0.0334
    101  N         18.5480   36.0170   16.2570 N.am  121  SER121     -0.1950
    102  CA        18.3880   35.7420   14.8210 C.3   121  SER121      0.1924
    103  C         19.2900   36.8470   14.2100 C.2   121  SER121      0.2314
    104  O         19.4520   37.9120   14.7820 O.2   121  SER121     -0.2863
    105  CB        16.9260   35.8690   14.3440 C.3   121  SER121      0.2116
    106  OG        16.4710   37.2180   14.3510 O.3   121  SER121     -0.2180
@<TRIPOS>BOND
     1   103   104    2
     2   103   102    1
     3   105   106    1
     4   105   102    1
     5   102   101    1
     6    41    42    1
     7    45    42    1
     8    45    46    1
     9    44    43    2
    10    42    43    1
    11    31    29    1
    12   101    98   am
    13    99    98    2
    14    46    48   ar
    15    46    47   ar
    16    87    86   ar
    17    87    85   ar
    18    98    97    1
    19    86    84   ar
    20    29    30    1
    21    29    26    1
    22    85    83   ar
    23    59    57    1
    24    27    26    1
    25    27    28    2
    26    56    57    2
    27    56    55    1
    28    26    25    1
    29    84    82   ar
    30   100    97    1
    31    97    96    1
    32    57    58    1
    33    55    54    1
    34    96    90   am
    35    83    82   ar
    36    82    81    1
    37    20    19    2
    38    53    54    1
    39    53    50    1
    40    49    50    1
    41    25    19   am
    42    40    39    1
    43    19    18    1
    44    52    51    2
    45    50    51    1
    46    90    91    2
    47    90    89    1
    48    81    78    1
    49    39    38    1
    50    88    89    1
    51    88    79   am
    52    15    14    1
    53    92    89    1
    54    92    93    1
    55    78    79    1
    56    78    77    1
    57    24    22   am
    58    95    93   ar
    59    18    17    1
    60    18    21    1
    61    79    80    2
    62    17    12   am
    63    38    37    1
    64    70    69    2
    65    37    36    1
    66    93    94   ar
    67    14    16    1
    68    14    11    1
    69    22    21    1
    70    22    23    2
    71    77    69   am
    72    12    11    1
    73    12    13    2
    74    69    68    1
    75    11    10    1
    76    32    33    1
    77    36    33    1
    78    60    61    1
    79    33    34    1
    80    67    68    1
    81    67    62   am
    82    68    71    1
    83    74    76   ar
    84    74    72   ar
    85    76    75   ar
    86    61    62    1
    87    61    64    1
    88    62    63    2
    89    72    71    1
    90    72    73   ar
    91    34    35    2
    92    75    73   ar
    93     9     8    1
    94    66    64    1
    95     4     3    2
    96     8     7    1
    97    64    65    1
    98     7     6    1
    99     6     5    1
   100     3     2    1
   101     5     2    1
   102     2     1    1
