@<TRIPOS>MOLECULE
tmp/3fl1A00.pdb
 107 103 0 0 0
SMALL
GASTEIGER

@<TRIPOS>ATOM
      1  N        -15.8100   20.5670   -8.4820 N.3    33  LYS33      -0.1245
      2  CA       -14.9040   21.4720   -9.2620 C.3    33  LYS33       0.1561
      3  C        -13.4930   21.2170   -8.6770 C.2    33  LYS33       0.2260
      4  O        -13.3130   21.3550   -7.4770 O.2    33  LYS33      -0.2867
      5  CB       -15.2640   22.9200   -9.0360 C.3    33  LYS33       0.0271
      6  CG       -14.6200   23.8770  -10.0900 C.3    33  LYS33       0.0035
      7  CD       -15.0850   25.3700   -9.8390 C.3    33  LYS33       0.0206
      8  CE       -14.4890   26.3360  -10.9880 C.3    33  LYS33       0.1093
      9  NZ       -13.5400   27.3240  -10.3620 N.3    33  LYS33      -0.1314
     10  N        -10.4310   22.8940   -8.6750 N.3    35  VAL35      -0.1231
     11  CA        -9.6730   23.9520   -7.9740 C.3    35  VAL35       0.1692
     12  C        -10.5150   25.2170   -8.0640 C.2    35  VAL35       0.2592
     13  O        -11.2510   25.4170   -9.0450 O.2    35  VAL35      -0.2718
     14  CB        -8.2770   24.3370   -8.6980 C.3    35  VAL35       0.0266
     15  CG1       -7.5350   23.0740   -9.1650 C.3    35  VAL35       0.0020
     16  CG2       -8.5960   25.1520   -9.9940 C.3    35  VAL35       0.0020
     17  N        -10.4100   26.1050   -7.0630 N.am   36  ASN36      -0.1960
     18  CA       -11.1660   27.3830   -7.1220 C.3    36  ASN36       0.1819
     19  C        -10.4280   28.3760   -6.1450 C.2    36  ASN36       0.2621
     20  O         -9.6920   27.9130   -5.2060 O.2    36  ASN36      -0.2715
     21  CB       -12.6450   27.2080   -6.6410 C.3    36  ASN36       0.1195
     22  CG       -13.4650   28.4960   -6.8270 C.2    36  ASN36       0.2630
     23  OD1      -13.5030   29.0100   -7.9280 O.2    36  ASN36      -0.2716
     24  ND2      -14.0780   29.0310   -5.7510 N.am   36  ASN36      -0.0877
     25  N        -10.6080   29.6740   -6.3590 N.am   37  THR37      -0.1951
     26  CA        -9.9930   30.6830   -5.5480 C.3    37  THR37       0.1897
     27  C        -11.0240   31.6850   -5.0900 C.2    37  THR37       0.2313
     28  O        -11.8750   32.0990   -5.9000 O.2    37  THR37      -0.2863
     29  CB        -8.8920   31.4670   -6.3740 C.3    37  THR37       0.1794
     30  OG1       -7.8870   30.5230   -6.7410 O.3    37  THR37      -0.2208
     31  CG2       -8.2330   32.6510   -5.4740 C.3    37  THR37       0.0378
     32  N         -4.1540   33.8020  -19.8670 N.3    58  LYS58      -0.1231
     33  CA        -3.4920   32.5380  -20.2090 C.3    58  LYS58       0.1693
     34  C         -3.9490   32.0840  -21.6600 C.2    58  LYS58       0.2592
     35  O         -3.1530   31.6220  -22.5250 O.2    58  LYS58      -0.2718
     36  CB        -3.8960   31.5140  -19.1580 C.3    58  LYS58       0.0285
     37  CG        -2.8570   31.4270  -18.1030 C.3    58  LYS58       0.0035
     38  CD        -3.5250   31.3190  -16.7800 C.3    58  LYS58       0.0206
     39  CE        -2.4570   31.2180  -15.7170 C.3    58  LYS58       0.1093
     40  NZ        -2.8980   30.2840  -14.5810 N.3    58  LYS58      -0.1314
     41  N         -5.2060   32.3000  -21.9730 N.am   59  ASN59      -0.1974
     42  CA        -5.6640   31.8470  -23.2910 C.3    59  ASN59       0.1688
     43  C         -5.3220   32.8020  -24.4420 C.2    59  ASN59       0.2292
     44  O         -5.8740   32.6310  -25.5770 O.2    59  ASN59      -0.2864
     45  CB        -7.1760   31.6220  -23.2350 C.3    59  ASN59       0.1181
     46  CG        -7.9290   32.9150  -22.9430 C.2    59  ASN59       0.2629
     47  OD1       -7.3350   34.0180  -22.9050 O.2    59  ASN59      -0.2716
     48  ND2       -9.2660   32.7950  -22.7410 N.am   59  ASN59      -0.0877
     49  N         -6.8910   29.4990   -1.7800 N.3    75  ASP75      -0.1239
     50  CA        -6.9600   28.5830   -2.8820 C.3    75  ASP75       0.1674
     51  C         -7.5970   27.3030   -2.3480 C.2    75  ASP75       0.2266
     52  O         -7.2700   26.8650   -1.2110 O.2    75  ASP75      -0.2867
     53  CB        -5.5690   28.1830   -3.4350 C.3    75  ASP75       0.1410
     54  CG        -4.8930   29.3390   -4.2290 C.2    75  ASP75       0.3668
     55  OD1       -5.5700   30.0570   -5.0140 O.co2  75  ASP75      -0.2456
     56  OD2       -3.6730   29.5400   -4.0360 O.co2  75  ASP75      -0.2456
     57  N         -8.1940   23.3290   -3.3330 N.3    77  ARG77      -0.1245
     58  CA        -7.6890   22.2770   -4.2160 C.3    77  ARG77       0.1563
     59  C         -8.3120   20.9600   -3.7820 C.2    77  ARG77       0.2260
     60  O         -8.3350   20.6700   -2.5860 O.2    77  ARG77      -0.2867
     61  CB        -6.1580   22.1250   -3.9900 C.3    77  ARG77       0.0307
     62  CG        -5.2730   22.4810   -5.1890 C.3    77  ARG77       0.0489
     63  CD        -4.9880   24.0150   -5.2050 C.3    77  ARG77       0.2205
     64  NE        -4.9160   24.6460   -6.5490 N.pl3  77  ARG77      -0.0865
     65  CZ        -4.1010   24.2440   -7.5460 C.cat  77  ARG77       0.5346
     66  NH1       -3.2870   23.1980   -7.3490 N.pl3  77  ARG77       0.1354
     67  NH2       -4.0750   24.9030   -8.7380 N.pl3  77  ARG77       0.1354
     68  N        -13.9450   36.3880  -15.0860 N.3   111  HIS111     -0.1226
     69  CA       -13.1810   35.1020  -15.0110 C.3   111  HIS111      0.1752
     70  C        -11.9490   35.3010  -14.1180 C.2   111  HIS111      0.2596
     71  O        -11.4070   36.3970  -14.1180 O.2   111  HIS111     -0.2718
     72  CB       -12.7940   34.7010  -16.4640 C.3   111  HIS111      0.0759
     73  CG       -11.6340   33.7580  -16.5620 C.ar  111  HIS111      0.0818
     74  ND1      -11.7590   32.3910  -16.4070 N.ar  111  HIS111     -0.2268
     75  CD2      -10.3370   33.9850  -16.8870 C.ar  111  HIS111      0.1154
     76  CE1      -10.5860   31.8150  -16.6300 C.ar  111  HIS111      0.1986
     77  NE2       -9.7050   32.7710  -16.9320 N.ar  111  HIS111     -0.2212
     78  N        -11.5710   34.2940  -13.2990 N.am  112  PHE112     -0.1962
     79  CA       -10.3580   34.3730  -12.4470 C.3   112  PHE112      0.1771
     80  C         -9.2900   33.6290  -13.2810 C.2   112  PHE112      0.2620
     81  O         -9.4470   32.3970  -13.5770 O.2   112  PHE112     -0.2715
     82  CB       -10.5120   33.6430  -11.1110 C.3   112  PHE112      0.0574
     83  CG        -9.3830   33.9540  -10.1470 C.ar  112  PHE112     -0.0200
     84  CD1       -8.2340   33.2140  -10.1390 C.ar  112  PHE112     -0.0042
     85  CD2       -9.5310   35.0020   -9.2140 C.ar  112  PHE112     -0.0042
     86  CE1       -7.1980   33.4830   -9.1890 C.ar  112  PHE112     -0.0003
     87  CE2       -8.5430   35.2770   -8.2930 C.ar  112  PHE112     -0.0003
     88  CZ        -7.3720   34.5100   -8.2720 C.ar  112  PHE112     -0.0000
     89  N         -8.2760   34.3580  -13.7310 N.am  113  ASP113     -0.1957
     90  CA        -7.2710   33.7130  -14.5780 C.3   113  ASP113      0.1840
     91  C         -6.0570   33.1050  -13.7820 C.2   113  ASP113      0.2622
     92  O         -5.5810   31.9940  -14.1210 O.2   113  ASP113     -0.2715
     93  CB        -6.7860   34.7160  -15.6430 C.3   113  ASP113      0.1450
     94  CG        -6.2920   34.0270  -16.9060 C.2   113  ASP113      0.3671
     95  OD1       -7.0340   33.1820  -17.4660 O.co2 113  ASP113     -0.2456
     96  OD2       -5.1710   34.3480  -17.3290 O.co2 113  ASP113     -0.2456
     97  N         -5.6230   33.7750  -12.7060 N.am  114  ALA114     -0.1963
     98  CA        -4.4090   33.3180  -11.9860 C.3   114  ALA114      0.1728
     99  C         -4.0720   34.2130  -10.8000 C.2   114  ALA114      0.2616
    100  O         -4.6760   35.2670  -10.6780 O.2   114  ALA114     -0.2715
    101  CB        -3.2370   33.4260  -12.9660 C.3   114  ALA114      0.0334
    102  N         -3.1590   33.7750   -9.9250 N.am  115  SER115     -0.1950
    103  CA        -2.6320   34.6410   -8.8380 C.3   115  SER115      0.1924
    104  C         -1.0860   34.5410   -9.0700 C.2   115  SER115      0.2314
    105  O         -0.5730   33.4900   -9.4880 O.2   115  SER115     -0.2863
    106  CB        -3.0050   34.1700   -7.4120 C.3   115  SER115      0.2116
    107  OG        -2.5490   32.8530   -7.1960 O.3   115  SER115     -0.2180
@<TRIPOS>BOND
     1    44    43    2
     2    43    42    1
     3    42    45    1
     4    42    41    1
     5    45    46    1
     6    46    47    2
     7    46    48   am
     8    35    34    2
     9    41    34   am
    10    34    33    1
    11    33    32    1
    12    33    36    1
    13    36    37    1
    14    37    38    1
    15    95    94   ar
    16    96    94   ar
    17    77    75   ar
    18    77    76   ar
    19    94    93    1
    20    75    73   ar
    21    38    39    1
    22    76    74   ar
    23    73    72    1
    24    73    74   ar
    25    72    69    1
    26    39    40    1
    27    93    90    1
    28    68    69    1
    29    69    70    1
    30    90    91    1
    31    90    89    1
    32    92    91    2
    33    71    70    2
    34    70    78   am
    35    91    97   am
    36    89    80   am
    37    81    80    2
    38    78    79    1
    39    80    79    1
    40   101    98    1
    41    97    98    1
    42    79    82    1
    43    98    99    1
    44    82    83    1
    45     8     9    1
    46     8     7    1
    47    99   100    2
    48    99   102   am
    49    83    84   ar
    50    83    85   ar
    51    84    86   ar
    52     6     7    1
    53     6     5    1
    54    16    14    1
    55   102   103    1
    56   105   104    2
    57     2     5    1
    58     2     3    1
    59     2     1    1
    60    85    87   ar
    61    86    88   ar
    62    15    14    1
    63   104   103    1
    64    13    12    2
    65   103   106    1
    66    67    65    1
    67    14    11    1
    68     3     4    2
    69    10    11    1
    70    87    88   ar
    71    12    11    1
    72    12    17   am
    73    23    22    2
    74    65    66    1
    75    65    64    2
    76   106   107    1
    77    18    17    1
    78    18    21    1
    79    18    19    1
    80    22    21    1
    81    22    24   am
    82    30    29    1
    83    64    63    1
    84    29    26    1
    85    29    31    1
    86    25    19   am
    87    25    26    1
    88    19    20    2
    89    28    27    2
    90    26    27    1
    91    63    62    1
    92    62    61    1
    93    55    54   ar
    94    54    56   ar
    95    54    53    1
    96    58    61    1
    97    58    59    1
    98    58    57    1
    99    59    60    2
   100    53    50    1
   101    50    51    1
   102    50    49    1
   103    51    52    2
