@<TRIPOS>MOLECULE
tmp/3fl1B00.pdb
 89 84 0 0 0
SMALL
GASTEIGER

@<TRIPOS>ATOM
      1  N          1.6210   40.9010   26.9450 N.3    39  LYS39      -0.1245
      2  CA         3.0180   40.7190   26.5120 C.3    39  LYS39       0.1561
      3  C          3.2020   41.7950   25.4670 C.2    39  LYS39       0.2260
      4  O          2.3900   41.8930   24.5620 O.2    39  LYS39      -0.2867
      5  CB         3.2310   39.3890   25.8490 C.3    39  LYS39       0.0271
      6  CG         4.6820   38.9840   25.8180 C.3    39  LYS39       0.0035
      7  CD         4.8820   37.5530   25.2530 C.3    39  LYS39       0.0206
      8  CE         6.3340   37.3420   24.7630 C.3    39  LYS39       0.1093
      9  NZ         6.6130   35.8400   24.7200 N.3    39  LYS39      -0.1314
     10  N          5.4520   42.3730   22.9180 N.3    41  VAL41      -0.1231
     11  CA         5.7460   41.9490   21.5240 C.3    41  VAL41       0.1692
     12  C          5.8600   40.3920   21.5070 C.2    41  VAL41       0.2592
     13  O          6.3810   39.7930   22.4240 O.2    41  VAL41      -0.2718
     14  CB         7.1430   42.5070   21.1080 C.3    41  VAL41       0.0266
     15  CG1        7.4730   42.1610   19.6290 C.3    41  VAL41       0.0020
     16  CG2        7.1770   43.9710   21.3600 C.3    41  VAL41       0.0020
     17  N          5.4390   39.7430   20.4360 N.am   42  ASN42      -0.1960
     18  CA         5.5460   38.2800   20.3910 C.3    42  ASN42       0.1819
     19  C          5.4220   37.9170   18.8920 C.2    42  ASN42       0.2621
     20  O          4.5400   38.4130   18.2240 O.2    42  ASN42      -0.2715
     21  CB         4.3260   37.6610   21.0660 C.3    42  ASN42       0.1195
     22  CG         4.4320   36.1930   21.1180 C.2    42  ASN42       0.2630
     23  OD1        5.2150   35.6570   21.9050 O.2    42  ASN42      -0.2716
     24  ND2        3.6820   35.4990   20.2310 N.am   42  ASN42      -0.0877
     25  N          6.1730   36.9590   18.4210 N.am   43  THR43      -0.1951
     26  CA         6.1470   36.6170   17.0060 C.3    43  THR43       0.1897
     27  C          5.6480   35.1800   16.9180 C.2    43  THR43       0.2313
     28  O          6.0490   34.3120   17.7190 O.2    43  THR43      -0.2863
     29  CB         7.5960   36.6880   16.4230 C.3    43  THR43       0.1794
     30  OG1        8.0450   38.0500   16.5550 O.3    43  THR43      -0.2208
     31  CG2        7.6650   36.3790   14.9080 C.3    43  THR43       0.0378
     32  N         20.3820   38.8440   22.2730 N.3    64  LYS64      -0.1245
     33  CA        20.3190   40.2260   22.8240 C.3    64  LYS64       0.1561
     34  C         20.7650   40.3140   24.3190 C.2    64  LYS64       0.2260
     35  O         21.2630   41.3580   24.7800 O.2    64  LYS64      -0.2867
     36  CB        18.8840   40.7550   22.7050 C.3    64  LYS64       0.0271
     37  CG        18.5570   40.9500   21.2440 C.3    64  LYS64       0.0035
     38  CD        17.1790   41.4510   20.9820 C.3    64  LYS64       0.0206
     39  CE        16.9930   41.3700   19.4460 C.3    64  LYS64       0.1093
     40  NZ        17.2410   42.6700   18.8120 N.3    64  LYS64      -0.1314
     41  N          4.0520   39.2420   13.2290 N.3    81  ASP81      -0.1239
     42  CA         4.5430   40.0290   14.3650 C.3    81  ASP81       0.1674
     43  C          3.3380   40.7040   15.0890 C.2    81  ASP81       0.2266
     44  O          2.4710   41.3720   14.4580 O.2    81  ASP81      -0.2867
     45  CB         5.5620   41.0550   13.8200 C.3    81  ASP81       0.1410
     46  CG         5.9870   42.0220   14.8030 C.2    81  ASP81       0.3668
     47  OD1        5.1760   42.9240   15.0540 O.co2  81  ASP81      -0.2456
     48  OD2        7.1370   41.9140   15.3360 O.co2  81  ASP81      -0.2456
     49  N          2.3470   43.3000   18.2140 N.3    83  ARG83      -0.1245
     50  CA         2.8350   44.2590   19.1830 C.3    83  ARG83       0.1563
     51  C          1.6850   45.1760   19.6220 C.2    83  ARG83       0.2260
     52  O          0.7220   45.5260   18.8600 O.2    83  ARG83      -0.2867
     53  CB         4.1010   45.0050   18.6930 C.3    83  ARG83       0.0307
     54  CG         3.8940   45.9390   17.5740 C.3    83  ARG83       0.0489
     55  CD         5.1930   46.2760   16.7470 C.3    83  ARG83       0.2205
     56  NE         6.0770   45.1550   16.3660 N.pl3  83  ARG83      -0.0865
     57  CZ         7.3330   45.0630   16.7640 C.cat  83  ARG83       0.5346
     58  NH1        7.8440   46.0190   17.5550 N.pl3  83  ARG83       0.1354
     59  NH2        8.1020   44.0780   16.3400 N.pl3  83  ARG83       0.1354
     60  N         12.3650   33.1220   21.7150 N.3   118  PHE118     -0.1227
     61  CA        12.3530   33.7820   20.3610 C.3   118  PHE118      0.1736
     62  C         13.0250   35.1370   20.5940 C.2   118  PHE118      0.2595
     63  O         12.5750   35.9660   21.4160 O.2   118  PHE118     -0.2718
     64  CB        10.9250   33.9490   19.8290 C.3   118  PHE118      0.0547
     65  CG        10.8740   34.4430   18.3810 C.ar  118  PHE118     -0.0202
     66  CD1       11.0490   35.7890   18.0930 C.ar  118  PHE118     -0.0042
     67  CD2       10.7430   33.5630   17.3490 C.ar  118  PHE118     -0.0042
     68  CE1       11.1200   36.2590   16.7210 C.ar  118  PHE118     -0.0003
     69  CE2       10.7950   34.0190   16.0090 C.ar  118  PHE118     -0.0003
     70  CZ        10.9840   35.3410   15.7270 C.ar  118  PHE118     -0.0000
     71  N         14.1760   35.3210   19.9810 N.am  119  ASP119     -0.1960
     72  CA        14.9090   36.5100   20.2350 C.3   119  ASP119      0.1840
     73  C         14.5770   37.6920   19.3110 C.2   119  ASP119      0.2622
     74  O         14.4440   38.7770   19.8130 O.2   119  ASP119     -0.2715
     75  CB        16.4410   36.2240   20.1930 C.3   119  ASP119      0.1450
     76  CG        17.2340   37.0930   21.1760 C.2   119  ASP119      0.3671
     77  OD1       16.8800   37.1600   22.3920 O.co2 119  ASP119     -0.2456
     78  OD2       18.2340   37.6840   20.7220 O.co2 119  ASP119     -0.2456
     79  N         14.4720   37.4910   18.0050 N.am  120  ALA120     -0.1963
     80  CA        14.1790   38.6070   17.1040 C.3   120  ALA120      0.1728
     81  C         13.8540   38.1110   15.7220 C.2   120  ALA120      0.2616
     82  O         14.0950   36.9590   15.3930 O.2   120  ALA120     -0.2715
     83  CB        15.4060   39.5340   17.0440 C.3   120  ALA120      0.0334
     84  N         13.2840   38.9690   14.8830 N.am  121  SER121     -0.1950
     85  CA        13.0760   38.5820   13.4830 C.3   121  SER121      0.1924
     86  C         13.8760   39.7260   12.7610 C.2   121  SER121      0.2314
     87  O         13.8600   40.8930   13.1910 O.2   121  SER121     -0.2863
     88  CB        11.6260   38.6390   13.1160 C.3   121  SER121      0.2116
     89  OG        11.1960   39.9620   13.2210 O.3   121  SER121     -0.2180
@<TRIPOS>BOND
     1    86    87    2
     2    86    85    1
     3    88    89    1
     4    88    85    1
     5    41    42    1
     6    85    84    1
     7    45    42    1
     8    45    46    1
     9    42    43    1
    10    44    43    2
    11    46    47   ar
    12    46    48   ar
    13    84    81   am
    14    31    29    1
    15    82    81    2
    16    81    80    1
    17    70    69   ar
    18    70    68   ar
    19    69    67   ar
    20    59    57    1
    21    56    55    1
    22    56    57    2
    23    29    30    1
    24    29    26    1
    25    68    66   ar
    26    55    54    1
    27    57    58    1
    28    27    26    1
    29    27    28    2
    30    26    25    1
    31    83    80    1
    32    80    79    1
    33    67    65   ar
    34    54    53    1
    35    79    73   am
    36    66    65   ar
    37    49    50    1
    38    20    19    2
    39    65    64    1
    40    25    19   am
    41    53    50    1
    42    40    39    1
    43    52    51    2
    44    19    18    1
    45    50    51    1
    46    73    74    2
    47    73    72    1
    48    39    38    1
    49    15    14    1
    50    64    61    1
    51    71    72    1
    52    71    62   am
    53    75    72    1
    54    75    76    1
    55    24    22   am
    56    61    62    1
    57    61    60    1
    58    18    17    1
    59    18    21    1
    60    17    12   am
    61    62    63    2
    62    78    76   ar
    63    38    37    1
    64    21    22    1
    65    14    16    1
    66    14    11    1
    67    22    23    2
    68    76    77   ar
    69    37    36    1
    70    12    11    1
    71    12    13    2
    72    11    10    1
    73    32    33    1
    74    36    33    1
    75    33    34    1
    76    34    35    2
    77     4     3    2
    78     9     8    1
    79     8     7    1
    80     7     6    1
    81     3     2    1
    82     6     5    1
    83     5     2    1
    84     2     1    1
