@<TRIPOS>MOLECULE
tmp/3fl4A00.pdb
 169 159 0 0 0
SMALL
GASTEIGER

@<TRIPOS>ATOM
      1  N         47.1670   53.2830  101.4830 N.3    27  VAL27      -0.1245
      2  CA        48.2030   53.1930  100.4490 C.3    27  VAL27       0.1561
      3  C         48.5270   54.5600   99.8480 C.2    27  VAL27       0.2260
      4  O         47.7160   55.4890   99.9170 O.2    27  VAL27      -0.2867
      5  CB        47.8300   52.2070   99.3040 C.3    27  VAL27       0.0252
      6  CG1       47.9630   50.7650   99.7680 C.3    27  VAL27       0.0019
      7  CG2       46.4310   52.4950   98.7570 C.3    27  VAL27       0.0019
      8  N         47.2830   59.5560   96.6450 N.3    32  TYR32      -0.1241
      9  CA        46.0720   59.1870   95.9130 C.3    32  TYR32       0.1605
     10  C         44.8040   59.7580   96.5440 C.2    32  TYR32       0.2264
     11  O         43.7020   59.5820   96.0180 O.2    32  TYR32      -0.2867
     12  CB        45.9750   57.6610   95.7910 C.3    32  TYR32       0.0534
     13  CG        47.1960   57.0210   95.1670 C.ar   32  TYR32      -0.0201
     14  CD1       47.8060   55.9140   95.7550 C.ar   32  TYR32      -0.0009
     15  CD2       47.7500   57.5350   93.9940 C.ar   32  TYR32      -0.0009
     16  CE1       48.9330   55.3280   95.1830 C.ar   32  TYR32       0.0417
     17  CE2       48.8680   56.9650   93.4220 C.ar   32  TYR32       0.0417
     18  CZ        49.4570   55.8620   94.0150 C.ar   32  TYR32       0.1957
     19  OH        50.5720   55.3020   93.4340 O.3    32  TYR32      -0.2866
     20  N         42.8170   56.8540  100.3730 N.3    35  VAL35      -0.1245
     21  CA        42.6710   55.5660   99.6900 C.3    35  VAL35       0.1561
     22  C         43.2330   54.4200  100.5340 C.2    35  VAL35       0.2260
     23  O         44.3450   54.5060  101.0700 O.2    35  VAL35      -0.2867
     24  CB        43.3450   55.5810   98.2840 C.3    35  VAL35       0.0252
     25  CG1       43.2420   54.2200   97.5990 C.3    35  VAL35       0.0019
     26  CG2       42.7180   56.6570   97.4010 C.3    35  VAL35       0.0019
     27  N         41.1450   48.9230   95.6470 N.3    48  ALA48      -0.1245
     28  CA        41.4430   50.2260   96.2350 C.3    48  ALA48       0.1562
     29  C         40.1220   50.9070   96.5730 C.2    48  ALA48       0.2260
     30  O         39.2400   51.0160   95.7170 O.2    48  ALA48      -0.2867
     31  CB        42.2510   51.0800   95.2700 C.3    48  ALA48       0.0290
     32  N         38.4580   54.4030   97.8810 N.3    50  LYS50      -0.1245
     33  CA        38.6460   55.8360   98.1070 C.3    50  LYS50       0.1561
     34  C         37.4530   56.4650   98.8260 C.2    50  LYS50       0.2260
     35  O         36.3180   56.3780   98.3560 O.2    50  LYS50      -0.2867
     36  CB        38.9390   56.5710   96.7930 C.3    50  LYS50       0.0271
     37  CG        39.1800   58.0730   96.9770 C.3    50  LYS50       0.0035
     38  CD        39.9940   58.6840   95.8420 C.3    50  LYS50       0.0206
     39  CE        39.1500   58.9670   94.6200 C.3    50  LYS50       0.1093
     40  NZ        39.8500   59.9040   93.6800 N.3    50  LYS50      -0.1314
     41  N         33.0530   63.2230   89.3220 N.3    66  GLU66      -0.1245
     42  CA        33.8890   62.0340   89.5010 C.3    66  GLU66       0.1567
     43  C         33.0630   60.7470   89.4780 C.2    66  GLU66       0.2260
     44  O         33.4550   59.7720   88.8400 O.2    66  GLU66      -0.2867
     45  CB        34.7320   62.1180   90.7820 C.3    66  GLU66       0.0388
     46  CG        35.5620   60.8530   91.0260 C.3    66  GLU66       0.1160
     47  CD        36.6970   61.0330   92.0150 C.2    66  GLU66       0.3649
     48  OE1       36.6640   61.9910   92.8140 O.co2  66  GLU66      -0.2457
     49  OE2       37.6220   60.1910   91.9940 O.co2  66  GLU66      -0.2457
     50  N         33.5430   57.8600   86.5570 N.3    70  LEU70      -0.1245
     51  CA        33.8570   56.4960   86.9940 C.3    70  LEU70       0.1561
     52  C         32.7720   55.4610   86.6720 C.2    70  LEU70       0.2260
     53  O         33.0860   54.3400   86.2860 O.2    70  LEU70      -0.2867
     54  CB        34.1950   56.4790   88.4890 C.3    70  LEU70       0.0270
     55  CG        35.5430   57.1120   88.8580 C.3    70  LEU70       0.0019
     56  CD1       35.6710   57.2500   90.3630 C.3    70  LEU70       0.0001
     57  CD2       36.7150   56.3150   88.2840 C.3    70  LEU70       0.0001
     58  N         40.5330   52.8510   84.5440 N.3    79  ILE79      -0.1231
     59  CA        40.0000   52.6330   85.8920 C.3    79  ILE79       0.1692
     60  C         38.4910   52.8580   85.9110 C.2    79  ILE79       0.2593
     61  O         37.9940   53.9270   85.5280 O.2    79  ILE79      -0.2718
     62  CB        40.7140   53.4980   86.9720 C.3    79  ILE79       0.0266
     63  CG1       42.0930   52.9090   87.3030 C.3    79  ILE79       0.0019
     64  CG2       39.8710   53.6240   88.2520 C.3    79  ILE79       0.0020
     65  CD1       42.0720   51.5500   87.9990 C.3    79  ILE79       0.0001
     66  N         37.7820   51.8200   86.3390 N.am   80  GLY80      -0.1942
     67  CA        36.3330   51.8390   86.4260 C.3    80  GLY80       0.2014
     68  C         35.8530   51.5040   87.8220 C.2    80  GLY80       0.2638
     69  O         36.6530   51.3200   88.7490 O.2    80  GLY80      -0.2714
     70  N         34.5410   51.4130   87.9730 N.am   81  LEU81      -0.1977
     71  CA        33.9440   51.2730   89.2880 C.3    81  LEU81       0.1596
     72  C         33.4960   49.8390   89.5440 C.2    81  LEU81       0.2287
     73  O         32.6200   49.3090   88.8490 O.2    81  LEU81      -0.2864
     74  CB        32.7740   52.2470   89.4200 C.3    81  LEU81       0.0297
     75  CG        32.4370   52.8780   90.7690 C.3    81  LEU81       0.0022
     76  CD1       33.6490   53.5430   91.4310 C.3    81  LEU81       0.0001
     77  CD2       31.3220   53.8880   90.5640 C.3    81  LEU81       0.0001
     78  N         34.3740   54.9650   96.9130 N.3    99  LEU99      -0.1231
     79  CA        34.5500   54.4390   95.5620 C.3    99  LEU99       0.1693
     80  C         35.5170   53.2640   95.5890 C.2    99  LEU99       0.2592
     81  O         36.5590   53.3340   96.2440 O.2    99  LEU99      -0.2718
     82  CB        35.0850   55.5320   94.6300 C.3    99  LEU99       0.0284
     83  CG        34.2920   56.8400   94.5430 C.3    99  LEU99       0.0019
     84  CD1       35.1750   57.9670   94.0210 C.3    99  LEU99       0.0001
     85  CD2       33.0290   56.6720   93.6800 C.3    99  LEU99       0.0001
     86  N         35.1710   52.1930   94.8760 N.am  100  VAL100     -0.1966
     87  CA        35.9800   50.9780   94.8580 C.3   100  VAL100      0.1727
     88  C         36.4060   50.6030   93.4330 C.2   100  VAL100      0.2617
     89  O         35.5740   50.4900   92.5250 O.2   100  VAL100     -0.2715
     90  CB        35.2530   49.7700   95.5290 C.3   100  VAL100      0.0290
     91  CG1       36.1760   48.5520   95.6020 C.3   100  VAL100      0.0023
     92  CG2       34.7460   50.1300   96.9260 C.3   100  VAL100      0.0023
     93  N         37.7080   50.3950   93.2570 N.am  101  THR101     -0.1937
     94  CA        38.2600   49.9290   91.9860 C.3   101  THR101      0.2028
     95  C         39.3360   48.8630   92.2090 C.2   101  THR101      0.2642
     96  O         39.6330   48.5080   93.3510 O.2   101  THR101     -0.2714
     97  CB        38.8210   51.1070   91.1200 C.3   101  THR101      0.1808
     98  OG1       38.9720   50.6710   89.7660 O.3   101  THR101     -0.2208
     99  CG2       40.1690   51.6150   91.6440 C.3   101  THR101      0.0379
    100  N         39.9110   48.3560   91.1190 N.am  102  HIS102     -0.1959
    101  CA        41.0250   47.4090   91.1870 C.3   102  HIS102      0.1787
    102  C         42.2400   48.0070   91.8830 C.2   102  HIS102      0.2620
    103  O         42.5820   49.1710   91.6540 O.2   102  HIS102     -0.2715
    104  CB        41.4360   46.9590   89.7850 C.3   102  HIS102      0.0785
    105  CG        40.3710   46.2070   89.0530 C.ar  102  HIS102      0.0821
    106  ND1       39.5330   46.8080   88.1380 N.ar  102  HIS102     -0.2267
    107  CD2       40.0040   44.9040   89.1040 C.ar  102  HIS102      0.1154
    108  CE1       38.7000   45.9050   87.6520 C.ar  102  HIS102      0.1986
    109  NE2       38.9650   44.7420   88.2200 N.ar  102  HIS102     -0.2212
    110  N         42.8830   47.2110   92.7320 N.am  103  LEU103     -0.1963
    111  CA        44.1820   47.5830   93.2950 C.3   103  LEU103      0.1728
    112  C         45.2900   47.2150   92.3100 C.2   103  LEU103      0.2616
    113  O         45.4910   46.0410   91.9860 O.2   103  LEU103     -0.2715
    114  CB        44.4130   46.9140   94.6570 C.3   103  LEU103      0.0311
    115  CG        45.7070   47.2400   95.4190 C.3   103  LEU103      0.0022
    116  CD1       45.7520   48.6890   95.9020 C.3   103  LEU103      0.0001
    117  CD2       45.8810   46.2700   96.5880 C.3   103  LEU103      0.0001
    118  N         45.9910   48.2310   91.8230 N.am  104  MET104     -0.1963
    119  CA        47.0820   48.0310   90.8690 C.3   104  MET104      0.1736
    120  C         48.3910   47.7850   91.6180 C.2   104  MET104      0.2617
    121  O         48.4270   47.8950   92.8430 O.2   104  MET104     -0.2715
    122  CB        47.1980   49.2360   89.9350 C.3   104  MET104      0.0427
    123  CG        45.9350   49.5060   89.0920 C.3   104  MET104      0.0599
    124  SD        45.3020   48.0520   88.2290 S.3   104  MET104     -0.1393
    125  CE        46.4870   47.8690   86.9020 C.3   104  MET104      0.0692
    126  N         49.4500   47.4430   90.8850 N.am  105  GLY105     -0.1940
    127  CA        50.7430   47.1050   91.4860 C.3   105  GLY105      0.2014
    128  C         51.6760   48.2860   91.6510 C.2   105  GLY105      0.2639
    129  O         52.2300   48.5040   92.7300 O.2   105  GLY105     -0.2714
    130  N         51.8530   49.0440   90.5710 N.am  106  ALA106     -0.1963
    131  CA        52.7480   50.1980   90.5550 C.3   106  ALA106      0.1728
    132  C         52.3220   51.1750   89.4670 C.2   106  ALA106      0.2616
    133  O         51.6400   50.7830   88.5200 O.2   106  ALA106     -0.2715
    134  CB        54.1870   49.7430   90.3140 C.3   106  ALA106      0.0334
    135  N         52.7300   52.4370   89.5950 N.am  107  ASP107     -0.1971
    136  CA        52.5490   53.4010   88.5070 C.3   107  ASP107      0.1709
    137  C         53.7580   53.3790   87.5620 C.2   107  ASP107      0.2293
    138  O         54.7660   52.7310   87.8600 O.2   107  ASP107     -0.2864
    139  CB        52.2350   54.8110   89.0360 C.3   107  ASP107      0.1436
    140  CG        53.3610   55.4050   89.8710 C.2   107  ASP107      0.3671
    141  OD1       54.5420   55.2180   89.5270 O.co2 107  ASP107     -0.2456
    142  OD2       53.0570   56.0830   90.8710 O.co2 107  ASP107     -0.2456
    143  N         52.4740   58.9980   86.7600 N.3   145  SER145     -0.1217
    144  CA        51.8870   58.7350   88.0810 C.3   145  SER145      0.1889
    145  C         50.3910   58.3910   88.0770 C.2   145  SER145      0.2288
    146  O         49.8890   57.8390   89.0610 O.2   145  SER145     -0.2866
    147  CB        52.1720   59.8890   89.0550 C.3   145  SER145      0.2089
    148  OG        51.5480   61.0830   88.6310 O.3   145  SER145     -0.2183
    149  N         48.8380   53.0580   85.8060 N.3   148  ALA148     -0.1245
    150  CA        49.2120   51.9770   86.7090 C.3   148  ALA148      0.1562
    151  C         49.1610   50.6270   86.0220 C.2   148  ALA148      0.2260
    152  O         48.3710   50.4190   85.1000 O.2   148  ALA148     -0.2867
    153  CB        48.3290   51.9910   87.9310 C.3   148  ALA148      0.0290
    154  N         44.2200   56.2550   85.2700 N.3   158  LEU158     -0.1231
    155  CA        43.5290   56.8470   86.4220 C.3   158  LEU158      0.1693
    156  C         43.3710   58.3630   86.2660 C.2   158  LEU158      0.2592
    157  O         44.0810   58.9850   85.4770 O.2   158  LEU158     -0.2718
    158  CB        44.2940   56.5490   87.7230 C.3   158  LEU158      0.0284
    159  CG        44.3230   55.1030   88.2170 C.3   158  LEU158      0.0019
    160  CD1       45.5960   54.3990   87.7820 C.3   158  LEU158      0.0001
    161  CD2       44.1640   55.0350   89.7300 C.3   158  LEU158      0.0001
    162  N         42.4310   58.9410   87.0200 N.am  159  ASP159     -0.1974
    163  CA        42.2840   60.4090   87.1690 C.3   159  ASP159      0.1709
    164  C         41.8300   61.2190   85.9400 C.2   159  ASP159      0.2293
    165  O         42.1090   62.4210   85.8520 O.2   159  ASP159     -0.2864
    166  CB        43.5730   61.0300   87.7310 C.3   159  ASP159      0.1436
    167  CG        43.8630   60.6050   89.1560 C.2   159  ASP159      0.3671
    168  OD1       45.0580   60.5270   89.5060 O.co2 159  ASP159     -0.2456
    169  OD2       42.9090   60.3590   89.9290 O.co2 159  ASP159     -0.2456
@<TRIPOS>BOND
     1    58    59    1
     2   152   151    2
     3   154   155    1
     4   157   156    2
     5    61    60    2
     6   149   150    1
     7   165   164    2
     8    59    60    1
     9    59    62    1
    10    60    66   am
    11   164   163    1
    12   151   150    1
    13   156   155    1
    14   156   162   am
    15    53    52    2
    16    66    67    1
    17   155   158    1
    18    67    68    1
    19    50    51    1
    20    52    51    1
    21   150   153    1
    22   143   144    1
    23   125   124    1
    24    62    63    1
    25    62    64    1
    26    51    54    1
    27   162   163    1
    28   163   166    1
    29    63    65    1
    30   137   138    2
    31   137   136    1
    32   108   106   ar
    33   108   109   ar
    34   158   159    1
    35   166   167    1
    36   160   159    1
    37    68    70   am
    38    68    69    2
    39    70    71    1
    40   145   144    1
    41   145   146    2
    42   144   147    1
    43   106   105   ar
    44   159   161    1
    45   109   107   ar
    46   124   123    1
    47    57    55    1
    48    54    55    1
    49   136   139    1
    50   136   135    1
    51   133   132    2
    52   148   147    1
    53    44    43    2
    54    73    72    2
    55    55    56    1
    56   139   140    1
    57   105   107   ar
    58   105   104    1
    59   123   122    1
    60   167   168   ar
    61   167   169   ar
    62    71    74    1
    63    71    72    1
    64    41    42    1
    65    74    75    1
    66   132   135   am
    67   132   131    1
    68    43    42    1
    69    42    45    1
    70   141   140   ar
    71    98    97    1
    72   104   101    1
    73   140   142   ar
    74   122   119    1
    75   134   131    1
    76   131   130    1
    77    77    75    1
    78   130   128   am
    79    75    76    1
    80    45    46    1
    81   119   120    1
    82   119   118    1
    83   126   127    1
    84   126   120   am
    85    46    47    1
    86   100   101    1
    87   100    95   am
    88    97    99    1
    89    97    94    1
    90   101   102    1
    91   127   128    1
    92   120   121    2
    93   128   129    2
    94   103   102    2
    95   118   112   am
    96   102   110   am
    97    94    95    1
    98    94    93    1
    99   113   112    2
   100    49    47   ar
   101    47    48   ar
   102    95    96    2
   103   112   111    1
   104    89    88    2
   105   110   111    1
   106    93    88   am
   107   111   114    1
   108    17    15   ar
   109    17    18   ar
   110    88    87    1
   111    19    18    1
   112    40    39    1
   113    85    83    1
   114    15    13   ar
   115    18    16   ar
   116    84    83    1
   117    83    82    1
   118    39    38    1
   119    82    79    1
   120   114   115    1
   121    87    86    1
   122    87    90    1
   123    86    80   am
   124    13    14   ar
   125    13    12    1
   126    16    14   ar
   127    31    28    1
   128   115   116    1
   129   115   117    1
   130    90    91    1
   131    90    92    1
   132    79    80    1
   133    79    78    1
   134    80    81    2
   135    27    28    1
   136    30    29    2
   137    12     9    1
   138    38    37    1
   139     9    10    1
   140     9     8    1
   141    11    10    2
   142    28    29    1
   143    36    37    1
   144    36    33    1
   145    26    24    1
   146    25    24    1
   147    32    33    1
   148    33    34    1
   149    24    21    1
   150    35    34    2
   151     7     5    1
   152     5     6    1
   153     5     2    1
   154    21    20    1
   155    21    22    1
   156     3     4    2
   157     3     2    1
   158     2     1    1
   159    22    23    2
