@<TRIPOS>MOLECULE
tmp/3fl5A00.pdb
 120 117 0 0 0
SMALL
GASTEIGER

@<TRIPOS>ATOM
      1  N         10.9590   -3.0480   -6.6060 N.3     5  VAL5       -0.1231
      2  CA        10.6510   -1.6190   -6.5480 C.3     5  VAL5        0.1692
      3  C         11.9460   -0.8080   -6.4520 C.2     5  VAL5        0.2592
      4  O         12.9380   -1.2850   -5.9140 O.2     5  VAL5       -0.2718
      5  CB         9.7120   -1.2600   -5.3470 C.3     5  VAL5        0.0266
      6  CG1        8.3050   -1.8650   -5.5240 C.3     5  VAL5        0.0020
      7  CG2       10.3210   -1.6730   -4.0140 C.3     5  VAL5        0.0020
      8  N         11.9220    0.4120   -6.9900 N.am    6  TYR6       -0.1976
      9  CA        13.0320    1.3700   -6.8990 C.3     6  TYR6        0.1639
     10  C         14.3570    0.8410   -7.4560 C.2     6  TYR6        0.2290
     11  O         15.4350    1.3080   -7.0550 O.2     6  TYR6       -0.2864
     12  CB        13.2440    1.8320   -5.4510 C.3     6  TYR6        0.0560
     13  CG        12.0170    2.3340   -4.7130 C.ar    6  TYR6       -0.0198
     14  CD1       11.2040    3.3330   -5.2480 C.ar    6  TYR6       -0.0009
     15  CD2       11.7010    1.8380   -3.4450 C.ar    6  TYR6       -0.0009
     16  CE1       10.0750    3.8050   -4.5420 C.ar    6  TYR6        0.0417
     17  CE2       10.5950    2.3030   -2.7360 C.ar    6  TYR6        0.0417
     18  CZ         9.7870    3.2840   -3.2880 C.ar    6  TYR6        0.1957
     19  OH         8.6870    3.7380   -2.5820 O.3     6  TYR6       -0.2866
     20  N         10.6710    2.9650    3.7790 N.3   138  ASP138     -0.1239
     21  CA        10.1520    3.2530    2.4400 C.3   138  ASP138      0.1674
     22  C         10.8860    4.4350    1.8340 C.2   138  ASP138      0.2266
     23  O         11.2520    4.3910    0.6590 O.2   138  ASP138     -0.2867
     24  CB         8.6360    3.4990    2.4170 C.3   138  ASP138      0.1410
     25  CG         8.1190    3.8130    1.0180 C.2   138  ASP138      0.3668
     26  OD1        8.4160    3.0620    0.0770 O.co2 138  ASP138     -0.2456
     27  OD2        7.4180    4.8270    0.8430 O.co2 138  ASP138     -0.2456
     28  N         14.6660    3.4020    0.9070 N.3   141  HIS141     -0.1241
     29  CA        14.5650    2.5250   -0.2590 C.3   141  HIS141      0.1621
     30  C         14.2100    3.3030   -1.5370 C.2   141  HIS141      0.2264
     31  O         14.8240    3.0920   -2.5830 O.2   141  HIS141     -0.2867
     32  CB        13.5700    1.3930    0.0110 C.3   141  HIS141      0.0745
     33  CG        13.9860    0.4840    1.1300 C.ar  141  HIS141      0.0817
     34  ND1       13.1260   -0.4150    1.7240 N.ar  141  HIS141     -0.2268
     35  CD2       15.1730    0.3430    1.7700 C.ar  141  HIS141      0.1154
     36  CE1       13.7660   -1.0770    2.6690 C.ar  141  HIS141      0.1986
     37  NE2       15.0070   -0.6280    2.7250 N.ar  141  HIS141     -0.2212
     38  N         18.8530   -6.9240   -1.9620 N.3   203  ASP203     -0.1225
     39  CA        18.3390   -5.5700   -2.1680 C.3   203  ASP203      0.1805
     40  C         17.6390   -4.9960   -0.9250 C.2   203  ASP203      0.2598
     41  O         17.8310   -5.4860    0.1900 O.2   203  ASP203     -0.2718
     42  CB        17.4120   -5.5310   -3.3950 C.3   203  ASP203      0.1424
     43  CG        16.2540   -6.4970   -3.2860 C.2   203  ASP203      0.3668
     44  OD1       15.2580   -6.1650   -2.6100 O.co2 203  ASP203     -0.2456
     45  OD2       16.3350   -7.5880   -3.8920 O.co2 203  ASP203     -0.2456
     46  N         16.8370   -3.9530   -1.1320 N.am  204  TYR204     -0.1962
     47  CA        16.0430   -3.3370   -0.0700 C.3   204  TYR204      0.1771
     48  C         15.3190   -4.3590    0.8200 C.2   204  TYR204      0.2620
     49  O         15.1840   -4.1370    2.0170 O.2   204  TYR204     -0.2715
     50  CB        15.0030   -2.3760   -0.6670 C.3   204  TYR204      0.0574
     51  CG        15.5140   -1.4420   -1.7470 C.ar  204  TYR204     -0.0198
     52  CD1       16.4670   -0.4620   -1.4640 C.ar  204  TYR204     -0.0009
     53  CD2       15.0140   -1.5210   -3.0500 C.ar  204  TYR204     -0.0009
     54  CE1       16.9160    0.4100   -2.4520 C.ar  204  TYR204      0.0417
     55  CE2       15.4600   -0.6720   -4.0410 C.ar  204  TYR204      0.0417
     56  CZ        16.4070    0.3000   -3.7410 C.ar  204  TYR204      0.1957
     57  OH        16.8460    1.1470   -4.7380 O.3   204  TYR204     -0.2866
     58  N         14.8600   -5.4600    0.2180 N.am  205  SER205     -0.1950
     59  CA        14.0980   -6.5280    0.8970 C.3   205  SER205      0.1924
     60  C         14.8030   -7.1500    2.1030 C.2   205  SER205      0.2314
     61  O         14.1660   -7.7980    2.9340 O.2   205  SER205     -0.2863
     62  CB        13.6840   -7.6320   -0.0950 C.3   205  SER205      0.2116
     63  OG        14.7980   -8.1530   -0.8020 O.3   205  SER205     -0.2180
     64  N         13.4760   -5.6600    5.2600 N.3   208  MET208     -0.1245
     65  CA        12.1290   -6.1380    5.5810 C.3   208  MET208      0.1570
     66  C         12.1580   -7.4290    6.3800 C.2   208  MET208      0.2261
     67  O         11.2720   -7.6580    7.2160 O.2   208  MET208     -0.2867
     68  CB        11.2730   -6.3000    4.3080 C.3   208  MET208      0.0387
     69  CG        11.0140   -4.9830    3.5610 C.3   208  MET208      0.0595
     70  SD        10.4880   -3.6110    4.6260 S.3   208  MET208     -0.1393
     71  CE         8.8070   -4.0730    5.0010 C.3   208  MET208      0.0692
     72  N         13.5040  -13.3650   -0.7220 N.3   302  HIS302     -0.1241
     73  CA        13.4840  -11.9140   -0.5590 C.3   302  HIS302      0.1621
     74  C         12.5030  -11.2360   -1.5150 C.2   302  HIS302      0.2264
     75  O         11.9150  -10.1990   -1.1790 O.2   302  HIS302     -0.2867
     76  CB        14.8940  -11.3320   -0.6960 C.3   302  HIS302      0.0745
     77  CG        15.6100  -11.7460   -1.9480 C.ar  302  HIS302      0.0817
     78  ND1       16.1050  -13.0180   -2.1380 N.ar  302  HIS302     -0.2268
     79  CD2       15.9280  -11.0500   -3.0630 C.ar  302  HIS302      0.1154
     80  CE1       16.6850  -13.0900   -3.3220 C.ar  302  HIS302      0.1986
     81  NE2       16.5930  -11.9090   -3.9020 N.ar  302  HIS302     -0.2212
     82  N          8.7910  -11.1700   -0.0510 N.3   305  ARG305     -0.1231
     83  CA         8.5130  -10.2690    1.0740 C.3   305  ARG305      0.1694
     84  C          7.7560   -8.9980    0.6700 C.2   305  ARG305      0.2592
     85  O          7.9300   -8.4870   -0.4410 O.2   305  ARG305     -0.2718
     86  CB         9.8110   -9.9000    1.8040 C.3   305  ARG305      0.0321
     87  CG        10.5280  -11.1010    2.4110 C.3   305  ARG305      0.0489
     88  CD        11.8950  -10.7350    2.9730 C.3   305  ARG305      0.2205
     89  NE        12.7690  -11.9030    3.0300 N.pl3 305  ARG305     -0.0865
     90  CZ        14.0960  -11.8630    2.9070 C.cat 305  ARG305      0.5346
     91  NH1       14.7240  -10.7010    2.7260 N.pl3 305  ARG305      0.1354
     92  NH2       14.8000  -12.9890    2.9650 N.pl3 305  ARG305      0.1354
     93  N          6.9070   -8.5070    1.5780 N.am  306  LEU306     -0.1966
     94  CA         6.2500   -7.2170    1.3950 C.3   306  LEU306      0.1728
     95  C          7.3080   -6.1350    1.3070 C.2   306  LEU306      0.2617
     96  O          8.2980   -6.1540    2.0470 O.2   306  LEU306     -0.2715
     97  CB         5.3180   -6.8700    2.5630 C.3   306  LEU306      0.0311
     98  CG         4.1020   -7.7350    2.8910 C.3   306  LEU306      0.0022
     99  CD1        3.4540   -7.2180    4.1680 C.3   306  LEU306      0.0001
    100  CD2        3.0990   -7.7730    1.7330 C.3   306  LEU306      0.0001
    101  N          7.0820   -5.1930    0.3980 N.am  307  THR307     -0.1937
    102  CA         7.8570   -3.9720    0.3520 C.3   307  THR307      0.2028
    103  C          7.3900   -3.0860    1.5210 C.2   307  THR307      0.2642
    104  O          6.3670   -3.3580    2.1500 O.2   307  THR307     -0.2714
    105  CB         7.6940   -3.2720   -1.0120 C.3   307  THR307      0.1808
    106  OG1        6.3270   -2.8960   -1.1990 O.3   307  THR307     -0.2208
    107  CG2        8.1280   -4.2120   -2.1590 C.3   307  THR307      0.0379
    108  N          8.1530   -2.0530    1.8440 N.am  308  ALA308     -0.1963
    109  CA         7.7990   -1.1780    2.9490 C.3   308  ALA308      0.1728
    110  C          6.5110   -0.4170    2.6540 C.2   308  ALA308      0.2616
    111  O          5.7130   -0.1890    3.5670 O.2   308  ALA308     -0.2715
    112  CB         8.9270   -0.2300    3.2670 C.3   308  ALA308      0.0334
    113  N          6.3040   -0.0570    1.3810 N.am  309  LEU309     -0.1977
    114  CA         5.1210    0.6960    0.9560 C.3   309  LEU309      0.1596
    115  C          3.8620   -0.1560    1.0630 C.2   309  LEU309      0.2287
    116  O          2.8130    0.3360    1.4910 O.2   309  LEU309     -0.2864
    117  CB         5.2840    1.2410   -0.4740 C.3   309  LEU309      0.0297
    118  CG         4.2890    2.3080   -0.9700 C.3   309  LEU309      0.0022
    119  CD1        4.5900    3.6850   -0.3840 C.3   309  LEU309      0.0001
    120  CD2        4.2920    2.4090   -2.4890 C.3   309  LEU309      0.0001
@<TRIPOS>BOND
     1    10    11    2
     2    10     9    1
     3     8     9    1
     4     8     3   am
     5     9    12    1
     6     1     2    1
     7     2     3    1
     8     2     5    1
     9     3     4    2
    10     6     5    1
    11    12    13    1
    12     5     7    1
    13    14    13   ar
    14    14    16   ar
    15    57    56    1
    16    13    15   ar
    17    16    18   ar
    18    55    56   ar
    19    55    53   ar
    20    81    80   ar
    21    81    79   ar
    22    45    43   ar
    23    56    54   ar
    24    15    17   ar
    25    42    43    1
    26    42    39    1
    27    80    78   ar
    28    18    17   ar
    29    18    19    1
    30    43    44   ar
    31    79    77   ar
    32    53    51   ar
    33    31    30    2
    34   120   118    1
    35    54    52   ar
    36    39    38    1
    37    39    40    1
    38   107   105    1
    39    78    77   ar
    40    77    76    1
    41    51    52   ar
    42    51    50    1
    43    30    29    1
    44    74    75    2
    45    74    73    1
    46   106   105    1
    47    46    40   am
    48    46    47    1
    49   105   102    1
    50   118   117    1
    51   118   119    1
    52    40    41    2
    53    63    62    1
    54    72    73    1
    55    76    73    1
    56    50    47    1
    57   117   114    1
    58    85    84    2
    59    29    32    1
    60    29    28    1
    61    62    59    1
    62    47    48    1
    63    82    83    1
    64    32    33    1
    65    26    25   ar
    66    58    48   am
    67    58    59    1
    68   102   101    1
    69   102   103    1
    70   101    95   am
    71    23    22    2
    72    84    83    1
    73    84    93   am
    74    48    49    2
    75    27    25   ar
    76    59    60    1
    77   114   115    1
    78   114   113    1
    79    25    24    1
    80   115   116    2
    81    83    86    1
    82    33    34   ar
    83    33    35   ar
    84    95    94    1
    85    95    96    2
    86   113   110   am
    87    94    93    1
    88    94    97    1
    89   103   108   am
    90   103   104    2
    91    34    36   ar
    92   100    98    1
    93    35    37   ar
    94    86    87    1
    95    22    21    1
    96   108   109    1
    97    60    61    2
    98    87    88    1
    99    24    21    1
   100    21    20    1
   101    97    98    1
   102   110   109    1
   103   110   111    2
   104    36    37   ar
   105    91    90    1
   106    98    99    1
   107    90    92    1
   108    90    89    2
   109   109   112    1
   110    88    89    1
   111    69    68    1
   112    69    70    1
   113    68    65    1
   114    70    71    1
   115    64    65    1
   116    65    66    1
   117    66    67    2
