@<TRIPOS>MOLECULE
tmp/3fl5A01.pdb
 148 139 0 0 0
SMALL
GASTEIGER

@<TRIPOS>ATOM
      1  N         26.3290    8.1560   25.7640 N.3    39  VAL39      -0.1231
      2  CA        24.9760    7.6090   25.6810 C.3    39  VAL39       0.1696
      3  C         24.9550    6.2000   25.0960 C.2    39  VAL39       0.2632
      4  O         23.9890    5.4600   25.2780 O.2    39  VAL39      -0.2714
      5  CB        23.9820    8.5600   24.9430 C.3    39  VAL39       0.0266
      6  CG1       23.7350    9.8130   25.7800 C.3    39  VAL39       0.0020
      7  CG2       24.4740    8.9240   23.5340 C.3    39  VAL39       0.0020
      8  N         26.0250    5.8300   24.4000 N.am   40  GLY40      -0.1718
      9  CA        26.1770    4.4560   23.9600 C.2    40  GLY40       0.1480
     10  C         27.2490    4.2290   22.9280 C.2    40  GLY40       0.2820
     11  O         28.2740    4.9210   22.8920 O.2    40  GLY40      -0.2669
     12  N         27.0050    3.2360   22.0880 N.am   41  ARG41      -0.1929
     13  CA        27.9060    2.9020   21.0030 C.3    41  ARG41       0.1732
     14  C         27.1140    2.5770   19.7390 C.2    41  ARG41       0.2616
     15  O         25.9860    2.0660   19.8060 O.2    41  ARG41      -0.2715
     16  CB        28.8040    1.7180   21.3960 C.3    41  ARG41       0.0348
     17  CG        28.0400    0.4500   21.7400 C.3    41  ARG41       0.0492
     18  CD        28.9680   -0.7180   22.0190 C.3    41  ARG41       0.2205
     19  NE        28.2580   -1.8040   22.6970 N.pl3  41  ARG41      -0.0865
     20  CZ        28.1560   -1.9170   24.0190 C.cat  41  ARG41       0.5346
     21  NH1       28.7280   -1.0160   24.8100 N.pl3  41  ARG41       0.1354
     22  NH2       27.4870   -2.9340   24.5530 N.pl3  41  ARG41       0.1354
     23  N         27.7070    2.8900   18.5920 N.am   42  GLY42      -0.1955
     24  CA        27.2300    2.3620   17.3190 C.3    42  GLY42       0.1869
     25  C         28.0590    1.1410   16.9560 C.2    42  GLY42       0.2309
     26  O         28.8430    0.6490   17.7810 O.2    42  GLY42      -0.2863
     27  N         29.3650    7.0910   21.1030 N.3    47  VAL47      -0.1245
     28  CA        28.3310    8.0870   20.8680 C.3    47  VAL47       0.1561
     29  C         28.0050    8.8540   22.1460 C.2    47  VAL47       0.2260
     30  O         27.8650    8.2760   23.2190 O.2    47  VAL47      -0.2867
     31  CB        27.0550    7.4470   20.2440 C.3    47  VAL47       0.0252
     32  CG1       26.0370    8.5150   19.8710 C.3    47  VAL47       0.0019
     33  CG2       27.4190    6.6080   19.0050 C.3    47  VAL47       0.0019
     34  N         23.8960   15.1870   19.0360 N.3    60  ILE60      -0.1245
     35  CA        24.5440   13.8870   19.1660 C.3    60  ILE60       0.1561
     36  C         25.9340   13.9360   18.5300 C.2    60  ILE60       0.2260
     37  O         26.0820   14.3470   17.3840 O.2    60  ILE60      -0.2867
     38  CB        23.6940   12.7430   18.5390 C.3    60  ILE60       0.0252
     39  CG1       22.3620   12.5730   19.2930 C.3    60  ILE60       0.0019
     40  CG2       24.5020   11.4420   18.4490 C.3    60  ILE60       0.0019
     41  CD1       22.4830   12.3110   20.8180 C.3    60  ILE60       0.0001
     42  N         28.9250   11.5880   17.3850 N.3    62  LYS62      -0.1245
     43  CA        29.2910   10.2150   17.0510 C.3    62  LYS62       0.1561
     44  C         30.7590   10.1910   16.6550 C.2    62  LYS62       0.2260
     45  O         31.1220   10.6270   15.5610 O.2    62  LYS62      -0.2867
     46  CB        28.4030    9.6790   15.9210 C.3    62  LYS62       0.0271
     47  CG        28.6280    8.2150   15.5480 C.3    62  LYS62       0.0035
     48  CD        27.8090    7.8500   14.3170 C.3    62  LYS62       0.0206
     49  CE        27.9010    6.3590   13.9970 C.3    62  LYS62       0.1093
     50  NZ        26.9190    5.9570   12.9380 N.3    62  LYS62      -0.1314
     51  N         28.9970    6.6690    4.5580 N.3    75  GLU75      -0.1245
     52  CA        28.0400    7.0570    5.5940 C.3    75  GLU75       0.1567
     53  C         27.5850    8.5110    5.4400 C.2    75  GLU75       0.2260
     54  O         26.3880    8.7930    5.4880 O.2    75  GLU75      -0.2867
     55  CB        28.5730    6.8020    7.0150 C.3    75  GLU75       0.0388
     56  CG        27.5040    7.0440    8.0910 C.3    75  GLU75       0.1160
     57  CD        27.9200    6.6520    9.5000 C.2    75  GLU75       0.3649
     58  OE1       28.9850    6.0220    9.6770 O.co2  75  GLU75      -0.2457
     59  OE2       27.1600    6.9740   10.4440 O.co2  75  GLU75      -0.2457
     60  N         23.8640    9.8730    4.4580 N.3    79  LEU79      -0.1245
     61  CA        23.2350   10.7720    5.4270 C.3    79  LEU79       0.1561
     62  C         22.8360   12.1210    4.8340 C.2    79  LEU79       0.2260
     63  O         21.7970   12.6740    5.1980 O.2    79  LEU79      -0.2867
     64  CB        24.1420   10.9730    6.6520 C.3    79  LEU79       0.0270
     65  CG        24.1940    9.8620    7.7090 C.3    79  LEU79       0.0019
     66  CD1       25.4000   10.0380    8.6160 C.3    79  LEU79       0.0001
     67  CD2       22.9010    9.8300    8.5260 C.3    79  LEU79       0.0001
     68  N         17.5970   10.1120   11.1130 N.3    88  VAL88      -0.1245
     69  CA        18.4830   10.9690   11.8990 C.3    88  VAL88       0.1561
     70  C         18.9960   12.1230   11.0120 C.2    88  VAL88       0.2260
     71  O         19.2030   11.9400    9.8090 O.2    88  VAL88      -0.2867
     72  CB        19.6390   10.1350   12.5340 C.3    88  VAL88       0.0252
     73  CG1       20.7300    9.8340   11.5240 C.3    88  VAL88       0.0019
     74  CG2       20.1980   10.8240   13.7610 C.3    88  VAL88       0.0019
     75  N         24.7740   15.1200   14.9080 N.3   106  PHE106     -0.1241
     76  CA        23.3670   14.9550   14.5540 C.3   106  PHE106      0.1605
     77  C         22.4640   15.8290   15.4200 C.2   106  PHE106      0.2264
     78  O         22.8630   16.2910   16.4900 O.2   106  PHE106     -0.2867
     79  CB        22.9320   13.4940   14.7200 C.3   106  PHE106      0.0534
     80  CG        23.7500   12.5130   13.9330 C.ar  106  PHE106     -0.0203
     81  CD1       23.3870   12.1700   12.6330 C.ar  106  PHE106     -0.0042
     82  CD2       24.8740   11.9170   14.4950 C.ar  106  PHE106     -0.0042
     83  CE1       24.1370   11.2620   11.9060 C.ar  106  PHE106     -0.0003
     84  CE2       25.6270   11.0130   13.7740 C.ar  106  PHE106     -0.0003
     85  CZ        25.2560   10.6760   12.4790 C.ar  106  PHE106     -0.0000
     86  N         18.8740   13.2390   19.6870 N.3   109  VAL109     -0.1245
     87  CA        17.9680   12.1020   19.7370 C.3   109  VAL109      0.1561
     88  C         18.0090   11.5710   21.1610 C.2   109  VAL109      0.2260
     89  O         19.0800   11.2800   21.6980 O.2   109  VAL109     -0.2867
     90  CB        18.3680   10.9780   18.7270 C.3   109  VAL109      0.0252
     91  CG1       17.3420    9.8430   18.7220 C.3   109  VAL109      0.0019
     92  CG2       18.5460   11.5310   17.3050 C.3   109  VAL109      0.0019
     93  N         16.9120    8.5750   23.9370 N.3   111  ASN111     -0.1240
     94  CA        16.8740    7.1290   23.8130 C.3   111  ASN111      0.1653
     95  C         16.2440    6.4660   25.0290 C.2   111  ASN111      0.2266
     96  O         16.7270    6.6090   26.1500 O.2   111  ASN111     -0.2867
     97  CB        18.2830    6.5820   23.5440 C.3   111  ASN111      0.1155
     98  CG        18.3610    5.0630   23.6510 C.2   111  ASN111      0.2627
     99  OD1       17.3990    4.3500   23.3490 O.2   111  ASN111     -0.2716
    100  ND2       19.5220    4.5600   24.0720 N.am  111  ASN111     -0.0877
    101  N         18.3010   -1.6190   18.5950 N.3   153  HIS153     -0.1241
    102  CA        19.2250   -0.5210   18.9130 C.3   153  HIS153      0.1621
    103  C         19.2190    0.5980   17.8630 C.2   153  HIS153      0.2264
    104  O         19.2650    1.7850   18.2140 O.2   153  HIS153     -0.2867
    105  CB        20.6620   -1.0180   19.1590 C.3   153  HIS153      0.0745
    106  CG        21.6150    0.0780   19.5330 C.ar  153  HIS153      0.0817
    107  ND1       21.7060    0.5820   20.8160 N.ar  153  HIS153     -0.2268
    108  CD2       22.4830    0.8030   18.7840 C.ar  153  HIS153      0.1154
    109  CE1       22.6100    1.5450   20.8470 C.ar  153  HIS153      0.1986
    110  NE2       23.0980    1.6980   19.6280 N.ar  153  HIS153     -0.2212
    111  N         15.8050    4.1020   17.2440 N.3   156  MET156     -0.1245
    112  CA        15.7690    4.8810   18.4940 C.3   156  MET156      0.1570
    113  C         14.3890    5.4590   18.7730 C.2   156  MET156      0.2261
    114  O         13.9210    6.3540   18.0740 O.2   156  MET156     -0.2867
    115  CB        16.8320    5.9880   18.5240 C.3   156  MET156      0.0387
    116  CG        18.2740    5.4910   18.7060 C.3   156  MET156      0.0595
    117  SD        18.5850    4.6990   20.3020 S.3   156  MET156     -0.1393
    118  CE        20.2730    4.1600   20.1420 C.3   156  MET156      0.0692
    119  N         18.7200    5.1840   13.0240 N.3   167  ILE167     -0.1231
    120  CA        20.0760    5.6850   13.2590 C.3   167  ILE167      0.1692
    121  C         21.1170    4.7140   12.7260 C.2   167  ILE167      0.2592
    122  O         20.7780    3.6300   12.2490 O.2   167  ILE167     -0.2718
    123  CB        20.3470    5.9500   14.7770 C.3   167  ILE167      0.0266
    124  CG1       20.2190    4.6490   15.5750 C.3   167  ILE167      0.0019
    125  CG2       19.4190    7.0520   15.3170 C.3   167  ILE167      0.0020
    126  CD1       21.2170    4.4870   16.7120 C.3   167  ILE167      0.0001
    127  N         22.3800    5.1240   12.8260 N.am  168  ASP168     -0.1960
    128  CA        23.5490    4.3260   12.4450 C.3   168  ASP168      0.1840
    129  C         23.5290    3.7820   11.0130 C.2   168  ASP168      0.2622
    130  O         23.2680    2.5890   10.7580 O.2   168  ASP168     -0.2715
    131  CB        23.8380    3.2250   13.4690 C.3   168  ASP168      0.1450
    132  CG        25.3030    2.8270   13.4940 C.2   168  ASP168      0.3671
    133  OD1       25.6940    2.0720   14.4030 O.co2 168  ASP168     -0.2456
    134  OD2       26.0690    3.2700   12.6120 O.co2 168  ASP168     -0.2456
    135  N         23.8490    4.6770   10.0890 N.am  169  TRP169     -0.1974
    136  CA        23.8630    4.3770    8.6680 C.3   169  TRP169      0.1640
    137  C         25.2440    3.9350    8.1900 C.2   169  TRP169      0.2290
    138  O         25.5340    3.9630    6.9910 O.2   169  TRP169     -0.2864
    139  CB        23.3380    5.5890    7.8900 C.3   169  TRP169      0.0576
    140  CG        21.8750    5.8310    8.1950 C.ar  169  TRP169      0.0006
    141  CD1       21.3530    6.5160    9.2580 C.ar  169  TRP169      0.0946
    142  CD2       20.7630    5.3440    7.4450 C.ar  169  TRP169      0.0152
    143  NE1       19.9770    6.5000    9.2070 N.ar  169  TRP169     -0.2442
    144  CE2       19.5880    5.7880    8.1020 C.ar  169  TRP169      0.0810
    145  CE3       20.6430    4.5800    6.2710 C.ar  169  TRP169      0.0012
    146  CZ2       18.3080    5.5040    7.6230 C.ar  169  TRP169      0.0191
    147  CZ3       19.3690    4.2870    5.7960 C.ar  169  TRP169      0.0001
    148  CH2       18.2140    4.7530    6.4760 C.ar  169  TRP169      0.0015
@<TRIPOS>BOND
     1    60    61    1
     2    51    52    1
     3    62    63    2
     4    62    61    1
     5    61    64    1
     6    53    54    2
     7    53    52    1
     8    52    55    1
     9   147   145   ar
    10   147   148   ar
    11   145   142   ar
    12   148   146   ar
    13    64    65    1
    14   138   137    2
    15    55    56    1
    16   142   144   ar
    17   142   140   ar
    18   146   144   ar
    19    65    67    1
    20    65    66    1
    21   139   140    1
    22   139   136    1
    23    56    57    1
    24   144   143   ar
    25   137   136    1
    26   140   141   ar
    27   136   135    1
    28   143   141   ar
    29    57    58   ar
    30    57    59   ar
    31    71    70    2
    32   135   129   am
    33   130   129    2
    34    70    69    1
    35   129   128    1
    36    68    69    1
    37    73    72    1
    38    69    72    1
    39    83    85   ar
    40    83    81   ar
    41   122   121    2
    42   128   127    1
    43   128   131    1
    44    85    84   ar
    45    72    74    1
    46   134   132   ar
    47    81    80   ar
    48   121   127   am
    49   121   120    1
    50    50    49    1
    51   119   120    1
    52   120   123    1
    53   131   132    1
    54   132   133   ar
    55    84    82   ar
    56    80    82   ar
    57    80    79    1
    58    49    48    1
    59    48    47    1
    60    76    79    1
    61    76    75    1
    62    76    77    1
    63   123   125    1
    64   123   124    1
    65    77    78    2
    66    47    46    1
    67    45    44    2
    68   124   126    1
    69    46    43    1
    70    44    43    1
    71    25    24    1
    72    25    26    2
    73    43    42    1
    74   111   112    1
    75    92    90    1
    76    24    23    1
    77    37    36    2
    78   103   104    2
    79   103   102    1
    80   114   113    2
    81    40    38    1
    82   112   115    1
    83   112   113    1
    84   115   116    1
    85    36    35    1
    86    38    35    1
    87    38    39    1
    88    23    14   am
    89   101   102    1
    90   116   117    1
    91    91    90    1
    92    90    87    1
    93   108   106   ar
    94   108   110   ar
    95   102   105    1
    96    33    31    1
    97    34    35    1
    98   105   106    1
    99    39    41    1
   100   106   107   ar
   101   110   109   ar
   102    86    87    1
   103    87    88    1
   104    14    15    2
   105    14    13    1
   106    32    31    1
   107   118   117    1
   108    31    28    1
   109   107   109   ar
   110    28    27    1
   111    28    29    1
   112    13    16    1
   113    13    12    1
   114    88    89    2
   115    16    17    1
   116    17    18    1
   117    18    19    1
   118    12    10   am
   119    29    30    2
   120    19    20    2
   121    11    10    2
   122    10     9    1
   123    99    98    2
   124     7     5    1
   125    97    98    1
   126    97    94    1
   127    98   100   am
   128    94    93    1
   129    94    95    1
   130     9     8    2
   131    20    22    1
   132    20    21    1
   133     8     3    1
   134     5     2    1
   135     5     6    1
   136    95    96    2
   137     3     4    2
   138     3     2    1
   139     2     1    1
