@<TRIPOS>MOLECULE
tmp/3fl9C00.pdb
 115 106 0 0 0
SMALL
GASTEIGER

@<TRIPOS>ATOM
      1  N         15.2870   16.7000   73.5550 N.3     6  MET6       -0.1230
      2  CA        15.2240   16.1260   74.8920 C.3     6  MET6        0.1702
      3  C         16.0650   16.9690   75.8370 C.2     6  MET6        0.2592
      4  O         17.2900   16.9660   75.7570 O.2     6  MET6       -0.2718
      5  CB        15.7110   14.6750   74.8830 C.3     6  MET6        0.0401
      6  CG        15.7400   14.0040   76.2540 C.3     6  MET6        0.0596
      7  SD        14.1160   13.7300   76.9940 S.3     6  MET6       -0.1393
      8  CE        13.5530   12.3120   76.0610 C.3     6  MET6        0.0692
      9  N         15.4040   17.6960   76.7290 N.am    7  VAL7       -0.1966
     10  CA        16.1030   18.6100   77.6210 C.3     7  VAL7        0.1727
     11  C         15.5110   18.6410   79.0320 C.2     7  VAL7        0.2616
     12  O         14.2980   18.7200   79.2080 O.2     7  VAL7       -0.2715
     13  CB        16.1490   20.0430   77.0150 C.3     7  VAL7        0.0290
     14  CG1       14.8850   20.3290   76.2190 C.3     7  VAL7        0.0023
     15  CG2       16.3710   21.0930   78.0970 C.3     7  VAL7        0.0023
     16  N         16.3810   18.5470   80.0330 N.am    8  ALA8       -0.1977
     17  CA        15.9910   18.7800   81.4120 C.3     8  ALA8        0.1597
     18  C         16.3460   20.2230   81.7090 C.2     8  ALA8        0.2287
     19  O         17.5160   20.6020   81.6870 O.2     8  ALA8       -0.2864
     20  CB        16.7270   17.8480   82.3450 C.3     8  ALA8        0.0319
     21  N         20.1640   24.5910   82.0650 N.3    15  ILE15      -0.1245
     22  CA        20.2490   23.1780   81.7130 C.3    15  ILE15       0.1561
     23  C         21.6370   22.6030   81.9930 C.2    15  ILE15       0.2260
     24  O         22.0540   21.6140   81.3840 O.2    15  ILE15      -0.2867
     25  CB        19.8980   22.9480   80.2370 C.3    15  ILE15       0.0252
     26  CG1       20.9180   23.6400   79.3300 C.3    15  ILE15       0.0019
     27  CG2       18.4860   23.4460   79.9390 C.3    15  ILE15       0.0019
     28  CD1       20.7050   23.3730   77.8500 C.3    15  ILE15       0.0001
     29  N         27.9860   19.9180   83.8360 N.3    20  ASN20      -0.1225
     30  CA        27.1580   18.9080   84.4820 C.3    20  ASN20       0.1785
     31  C         25.8050   19.4330   84.9490 C.2    20  ASN20       0.2597
     32  O         25.5790   20.6430   85.0060 O.2    20  ASN20      -0.2718
     33  CB        27.9010   18.2550   85.6500 C.3    20  ASN20       0.1169
     34  CG        28.3920   16.8560   85.3220 C.2    20  ASN20       0.2627
     35  OD1       28.9270   16.1590   86.1820 O.2    20  ASN20      -0.2716
     36  ND2       28.2010   16.4350   84.0770 N.am   20  ASN20      -0.0877
     37  N         24.9160   18.5030   85.2890 N.am   21  LEU21      -0.1980
     38  CA        23.5620   18.8370   85.7000 C.3    21  LEU21       0.1596
     39  C         23.5470   19.4540   87.0900 C.2    21  LEU21       0.2287
     40  O         24.0530   18.8550   88.0410 O.2    21  LEU21      -0.2864
     41  CB        22.6850   17.5970   85.6630 C.3    21  LEU21       0.0297
     42  CG        22.5630   16.9030   84.3120 C.3    21  LEU21       0.0022
     43  CD1       21.8390   15.5780   84.4310 C.3    21  LEU21       0.0001
     44  CD2       21.8610   17.7770   83.2890 C.3    21  LEU21       0.0001
     45  N         14.4160   11.0030   86.7050 N.3    28  GLU28      -0.1231
     46  CA        14.2870   11.7800   85.4750 C.3    28  GLU28       0.1699
     47  C         15.2490   11.2310   84.4290 C.2    28  GLU28       0.2592
     48  O         14.8920   11.0730   83.2630 O.2    28  GLU28      -0.2718
     49  CB        14.5730   13.2640   85.7250 C.3    28  GLU28       0.0402
     50  CG        14.1150   14.1980   84.6040 C.3    28  GLU28       0.1161
     51  CD        15.0180   14.1690   83.3660 C.2    28  GLU28       0.3649
     52  OE1       16.2400   13.9520   83.5070 O.co2  28  GLU28      -0.2457
     53  OE2       14.5040   14.3780   82.2460 O.co2  28  GLU28      -0.2457
     54  N         16.4720   10.9370   84.8540 N.am   29  LEU29      -0.1980
     55  CA        17.4510   10.3120   83.9790 C.3    29  LEU29       0.1596
     56  C         16.9090    8.9720   83.4870 C.2    29  LEU29       0.2287
     57  O         17.1360    8.5760   82.3460 O.2    29  LEU29      -0.2864
     58  CB        18.7800   10.1290   84.7120 C.3    29  LEU29       0.0297
     59  CG        19.5410   11.4210   85.0200 C.3    29  LEU29       0.0022
     60  CD1       20.9130   11.1300   85.6160 C.3    29  LEU29       0.0001
     61  CD2       19.6730   12.2780   83.7730 C.3    29  LEU29       0.0001
     62  N         14.3400    9.6890   80.7830 N.3    32  VAL32      -0.1245
     63  CA        15.0730   10.0530   79.5820 C.3    32  VAL32       0.1561
     64  C         15.5730    8.7880   78.8870 C.2    32  VAL32       0.2260
     65  O         15.3100    8.5800   77.7040 O.2    32  VAL32      -0.2867
     66  CB        16.2640   10.9830   79.9080 C.3    32  VAL32       0.0252
     67  CG1       17.0190   11.3630   78.6400 C.3    32  VAL32       0.0019
     68  CG2       15.7810   12.2250   80.6420 C.3    32  VAL32       0.0019
     69  N         28.6640   18.6950   75.3740 N.3    47  ASN47      -0.1240
     70  CA        27.5490   18.0080   75.9970 C.3    47  ASN47       0.1653
     71  C         27.9850   16.5870   76.3290 C.2    47  ASN47       0.2266
     72  O         27.4610   15.9660   77.2470 O.2    47  ASN47      -0.2867
     73  CB        26.3300   17.9960   75.0780 C.3    47  ASN47       0.1155
     74  CG        25.0710   17.5310   75.7870 C.2    47  ASN47       0.2627
     75  OD1       24.7160   18.0410   76.8500 O.2    47  ASN47      -0.2716
     76  ND2       24.3830   16.5650   75.1930 N.am   47  ASN47      -0.0877
     77  N         30.3180   16.5120   79.2580 N.3    50  ALA50      -0.1231
     78  CA        29.4510   16.7410   80.4080 C.3    50  ALA50       0.1694
     79  C         28.8770   15.4270   80.9340 C.2    50  ALA50       0.2591
     80  O         29.0240   15.1070   82.1120 O.2    50  ALA50      -0.2718
     81  CB        28.3360   17.7040   80.0480 C.3    50  ALA50       0.0304
     82  N         28.2150   14.6690   80.0640 N.am   51  ILE51      -0.1980
     83  CA        27.7480   13.3410   80.4430 C.3    51  ILE51       0.1595
     84  C         28.9310   12.5260   80.9620 C.2    51  ILE51       0.2287
     85  O         28.9180   12.0540   82.1020 O.2    51  ILE51      -0.2864
     86  CB        27.0680   12.5960   79.2730 C.3    51  ILE51       0.0276
     87  CG1       25.6240   13.0670   79.0930 C.3    51  ILE51       0.0022
     88  CG2       27.0600   11.1010   79.5360 C.3    51  ILE51       0.0022
     89  CD1       25.4800   14.4020   78.4130 C.3    51  ILE51       0.0001
     90  N         26.2790    6.8260   76.3230 N.3    55  LEU55      -0.1245
     91  CA        25.0340    6.2920   76.8550 C.3    55  LEU55       0.1561
     92  C         24.5880    5.0980   76.0190 C.2    55  LEU55       0.2260
     93  O         24.1750    5.2560   74.8700 O.2    55  LEU55      -0.2867
     94  CB        23.9550    7.3760   76.8790 C.3    55  LEU55       0.0270
     95  CG        24.2260    8.5600   77.8130 C.3    55  LEU55       0.0019
     96  CD1       23.3910    9.7720   77.4320 C.3    55  LEU55       0.0001
     97  CD2       23.9770    8.1680   79.2570 C.3    55  LEU55       0.0001
     98  N         20.2400   16.2710   72.0940 N.3    96  PHE96      -0.1241
     99  CA        20.3720   16.0230   73.5160 C.3    96  PHE96       0.1605
    100  C         20.8060   17.2500   74.2920 C.2    96  PHE96       0.2264
    101  O         20.2570   17.5510   75.3510 O.2    96  PHE96      -0.2867
    102  CB        21.3570   14.8830   73.7520 C.3    96  PHE96       0.0534
    103  CG        20.8820   13.8810   74.7530 C.ar   96  PHE96      -0.0203
    104  CD1       19.5730   13.4350   74.7240 C.ar   96  PHE96      -0.0042
    105  CD2       21.7430   13.3650   75.7040 C.ar   96  PHE96      -0.0042
    106  CE1       19.1270   12.5050   75.6350 C.ar   96  PHE96      -0.0003
    107  CE2       21.3030   12.4320   76.6130 C.ar   96  PHE96      -0.0003
    108  CZ        19.9930   12.0020   76.5810 C.ar   96  PHE96      -0.0000
    109  N         11.8020   18.5570   80.2680 N.3   115  THR115     -0.1218
    110  CA        11.6050   18.5050   81.7010 C.3   115  THR115      0.1862
    111  C         11.8090   19.9210   82.2190 C.2   115  THR115      0.2287
    112  O         12.6580   20.6600   81.7150 O.2   115  THR115     -0.2866
    113  CB        12.5910   17.5370   82.3830 C.3   115  THR115      0.1770
    114  OG1       12.3550   16.2040   81.9170 O.3   115  THR115     -0.2211
    115  CG2       12.4130   17.5680   83.8870 C.3   115  THR115      0.0375
@<TRIPOS>BOND
     1    98    99    1
     2    99   102    1
     3    99   100    1
     4     1     2    1
     5   102   103    1
     6   100   101    2
     7   104   103   ar
     8   104   106   ar
     9   103   105   ar
    10    93    92    2
    11     5     2    1
    12     5     6    1
    13     2     3    1
    14    73    74    1
    15    73    70    1
    16    76    74   am
    17    69    70    1
    18   106   108   ar
    19   105   107   ar
    20     4     3    2
    21    74    75    2
    22     3     9   am
    23    70    71    1
    24    92    91    1
    25     8     7    1
    26    14    13    1
    27     6     7    1
    28    90    91    1
    29    71    72    2
    30   108   107   ar
    31     9    10    1
    32    91    94    1
    33    94    95    1
    34    13    10    1
    35    13    15    1
    36    96    95    1
    37    10    11    1
    38    65    64    2
    39    95    97    1
    40    28    26    1
    41    89    87    1
    42    67    66    1
    43    64    63    1
    44    11    12    2
    45    11    16   am
    46    87    86    1
    47    77    78    1
    48    86    88    1
    49    86    83    1
    50    26    25    1
    51    63    66    1
    52    63    62    1
    53    66    68    1
    54    27    25    1
    55    16    17    1
    56    81    78    1
    57    82    83    1
    58    82    79   am
    59    25    22    1
    60   109   110    1
    61    78    79    1
    62    83    84    1
    63    79    80    2
    64    84    85    2
    65    24    23    2
    66    17    18    1
    67    17    20    1
    68    19    18    2
    69   110   111    1
    70   110   113    1
    71    22    23    1
    72    22    21    1
    73   112   111    2
    74   114   113    1
    75    53    51   ar
    76    57    56    2
    77   113   115    1
    78    48    47    2
    79    44    42    1
    80    51    52   ar
    81    51    50    1
    82    56    55    1
    83    61    59    1
    84    29    30    1
    85    55    58    1
    86    55    54    1
    87    36    34   am
    88    42    43    1
    89    42    41    1
    90    47    54   am
    91    47    46    1
    92    30    31    1
    93    30    33    1
    94    50    49    1
    95    58    59    1
    96    31    32    2
    97    31    37   am
    98    59    60    1
    99    37    38    1
   100    34    33    1
   101    34    35    2
   102    46    49    1
   103    46    45    1
   104    41    38    1
   105    38    39    1
   106    39    40    2
