@<TRIPOS>MOLECULE
tmp/3flbA00.pdb
 97 93 0 0 0
SMALL
GASTEIGER

@<TRIPOS>ATOM
      1  N         15.2080   32.0550    9.5330 N.3    31  PHE31      -0.1227
      2  CA        14.4660   33.1520   10.1650 C.3    31  PHE31       0.1736
      3  C         14.0500   32.7620   11.5780 C.2    31  PHE31       0.2595
      4  O         14.0190   33.5960   12.4870 O.2    31  PHE31      -0.2718
      5  CB        13.2370   33.5080    9.3310 C.3    31  PHE31       0.0547
      6  CG        12.3520   34.5530    9.9620 C.ar   31  PHE31      -0.0202
      7  CD1       12.8450   35.8240   10.2420 C.ar   31  PHE31      -0.0042
      8  CD2       11.0240   34.2700   10.2490 C.ar   31  PHE31      -0.0042
      9  CE1       12.0240   36.8000   10.8210 C.ar   31  PHE31      -0.0003
     10  CE2       10.1940   35.2350   10.8340 C.ar   31  PHE31      -0.0003
     11  CZ        10.6990   36.5030   11.1170 C.ar   31  PHE31      -0.0000
     12  N         13.7550   31.4790   11.7560 N.am   32  PHE32      -0.1976
     13  CA        13.2380   30.9750   13.0250 C.3    32  PHE32       0.1639
     14  C         14.2990   30.4220   13.9940 C.2    32  PHE32       0.2290
     15  O         13.9470   29.8520   15.0290 O.2    32  PHE32      -0.2864
     16  CB        12.1420   29.9310   12.7580 C.3    32  PHE32       0.0560
     17  CG        10.8890   30.5120   12.1570 C.ar   32  PHE32      -0.0200
     18  CD1       10.0840   31.3680   12.8980 C.ar   32  PHE32      -0.0042
     19  CD2       10.5010   30.1760   10.8600 C.ar   32  PHE32      -0.0042
     20  CE1        8.9140   31.9080   12.3510 C.ar   32  PHE32      -0.0003
     21  CE2        9.3520   30.6990   10.3100 C.ar   32  PHE32      -0.0003
     22  CZ         8.5520   31.5710   11.0540 C.ar   32  PHE32      -0.0000
     23  N         16.4340   31.9580   16.0910 N.3    34  PRO34      -0.2102
     24  CA        16.3130   32.4620   17.4730 C.3    34  PRO34       0.1504
     25  C         15.0870   31.9420   18.2350 C.2    34  PRO34       0.2575
     26  O         15.1610   31.7390   19.4450 O.2    34  PRO34      -0.2718
     27  CB        16.2470   33.9810   17.3090 C.3    34  PRO34       0.0282
     28  CG        16.0110   34.2330   15.8570 C.3    34  PRO34       0.0208
     29  CD        16.5230   33.0540   15.1090 C.3    34  PRO34       0.0893
     30  N         13.9710   31.7360   17.5370 N.am   35  LEU35      -0.1980
     31  CA        12.7780   31.1900   18.1810 C.3    35  LEU35       0.1596
     32  C         13.0320   29.7610   18.6930 C.2    35  LEU35       0.2287
     33  O         12.5610   29.3810   19.7690 O.2    35  LEU35      -0.2864
     34  CB        11.5720   31.2380   17.2330 C.3    35  LEU35       0.0297
     35  CG        10.2150   30.8300   17.8290 C.3    35  LEU35       0.0022
     36  CD1        9.7910   31.8340   18.8990 C.3    35  LEU35       0.0001
     37  CD2        9.1590   30.7210   16.7360 C.3    35  LEU35       0.0001
     38  N         14.9310   30.1070   21.8460 N.3    38  ALA38      -0.1245
     39  CA        13.9990   30.6620   22.8400 C.3    38  ALA38       0.1562
     40  C         12.9890   29.6790   23.4360 C.2    38  ALA38       0.2260
     41  O         12.7540   29.6920   24.6420 O.2    38  ALA38      -0.2867
     42  CB        13.2540   31.8520   22.2450 C.3    38  ALA38       0.0290
     43  N          2.8970   27.7190   13.6300 N.3    87  PHE87      -0.1241
     44  CA         3.0670   29.1630   13.5870 C.3    87  PHE87       0.1605
     45  C          3.4060   29.5630   12.1630 C.2    87  PHE87       0.2264
     46  O          4.3340   29.0280   11.5850 O.2    87  PHE87      -0.2867
     47  CB         4.1830   29.6260   14.5230 C.3    87  PHE87       0.0534
     48  CG         4.4840   31.1000   14.4070 C.ar   87  PHE87      -0.0203
     49  CD1        5.2860   31.5880   13.3750 C.ar   87  PHE87      -0.0042
     50  CD2        3.9200   32.0070   15.2970 C.ar   87  PHE87      -0.0042
     51  CE1        5.5400   32.9530   13.2500 C.ar   87  PHE87      -0.0003
     52  CE2        4.1720   33.3720   15.1830 C.ar   87  PHE87      -0.0003
     53  CZ         4.9800   33.8420   14.1650 C.ar   87  PHE87      -0.0000
     54  N          6.7710   41.2410   13.8860 N.3   227  LEU227     -0.1231
     55  CA         7.1730   40.0740   14.6970 C.3   227  LEU227      0.1693
     56  C          8.6500   40.0550   15.0780 C.2   227  LEU227      0.2591
     57  O          9.0340   39.4260   16.0750 O.2   227  LEU227     -0.2718
     58  CB         6.7810   38.7520   14.0180 C.3   227  LEU227      0.0284
     59  CG         7.5610   38.2110   12.8140 C.3   227  LEU227      0.0019
     60  CD1        7.0750   36.7960   12.5240 C.3   227  LEU227      0.0001
     61  CD2        7.4060   39.0860   11.5790 C.3   227  LEU227      0.0001
     62  N          9.4580   40.7430   14.2770 N.am  228  VAL228     -0.1980
     63  CA        10.8940   40.8900   14.5190 C.3   228  VAL228      0.1595
     64  C         11.1190   41.7210   15.7960 C.2   228  VAL228      0.2287
     65  O         11.7620   41.2500   16.7410 O.2   228  VAL228     -0.2864
     66  CB        11.6190   41.5060   13.2910 C.3   228  VAL228      0.0276
     67  CG1       13.1290   41.6090   13.5380 C.3   228  VAL228      0.0022
     68  CG2       11.3420   40.6840   12.0320 C.3   228  VAL228      0.0022
     69  N          9.1650   40.1640   19.1770 N.3   231  ALA231     -0.1245
     70  CA         9.3780   38.7430   19.4550 C.3   231  ALA231      0.1562
     71  C          9.0950   38.3800   20.9140 C.2   231  ALA231      0.2260
     72  O          8.4310   37.3810   21.1760 O.2   231  ALA231     -0.2867
     73  CB        10.7800   38.3100   19.0430 C.3   231  ALA231      0.0290
     74  N          5.3300   38.1320   21.9680 N.3   234  MET234     -0.1230
     75  CA         4.8220   36.9980   21.2000 C.3   234  MET234      0.1702
     76  C          5.2550   35.6730   21.8040 C.2   234  MET234      0.2592
     77  O          4.4330   34.7770   21.9850 O.2   234  MET234     -0.2718
     78  CB         5.2970   37.0770   19.7560 C.3   234  MET234      0.0401
     79  CG         4.5630   38.1270   18.9550 C.3   234  MET234      0.0596
     80  SD         5.1880   38.3010   17.2980 S.3   234  MET234     -0.1393
     81  CE         4.4600   36.8930   16.4520 C.3   234  MET234      0.0692
     82  N          6.5470   35.5610   22.1050 N.am  235  ILE235     -0.1980
     83  CA         7.1060   34.3460   22.7110 C.3   235  ILE235      0.1595
     84  C          6.4980   34.0990   24.0880 C.2   235  ILE235      0.2287
     85  O          6.1920   32.9640   24.4340 O.2   235  ILE235     -0.2864
     86  CB         8.6620   34.3800   22.7320 C.3   235  ILE235      0.0276
     87  CG1        9.1910   34.2790   21.2990 C.3   235  ILE235      0.0022
     88  CG2        9.2480   33.2590   23.6070 C.3   235  ILE235      0.0022
     89  CD1       10.6200   34.7430   21.1260 C.3   235  ILE235      0.0001
     90  N          3.0510   32.7420   23.1920 N.3   238  MET238     -0.1245
     91  CA         3.1460   31.3840   22.6710 C.3   238  MET238      0.1570
     92  C          3.5390   30.3520   23.7280 C.2   238  MET238      0.2261
     93  O          2.9760   29.2600   23.7440 O.2   238  MET238     -0.2867
     94  CB         4.0930   31.3280   21.4800 C.3   238  MET238      0.0387
     95  CG         3.5780   32.1070   20.2770 C.3   238  MET238      0.0595
     96  SD         4.8510   32.3790   19.0310 S.3   238  MET238     -0.1393
     97  CE         5.0700   30.7500   18.3750 C.3   238  MET238      0.0692
@<TRIPOS>BOND
     1     5     6    1
     2     5     2    1
     3     1     2    1
     4     6     7   ar
     5     6     8   ar
     6     2     3    1
     7     7     9   ar
     8     8    10   ar
     9    21    19   ar
    10    21    22   ar
    11     9    11   ar
    12    10    11   ar
    13    19    17   ar
    14    22    20   ar
    15     3    12   am
    16     3     4    2
    17    61    59    1
    18    46    45    2
    19    12    13    1
    20    68    66    1
    21    17    16    1
    22    17    18   ar
    23    45    44    1
    24    20    18   ar
    25    60    59    1
    26    16    13    1
    27    59    58    1
    28    13    14    1
    29    51    49   ar
    30    51    53   ar
    31    66    67    1
    32    66    63    1
    33    49    48   ar
    34    44    43    1
    35    44    47    1
    36    54    55    1
    37    14    15    2
    38    58    55    1
    39    53    52   ar
    40    62    63    1
    41    62    56   am
    42    48    47    1
    43    48    50   ar
    44    63    64    1
    45    55    56    1
    46    56    57    2
    47    29    28    1
    48    29    23    1
    49    52    50   ar
    50    64    65    2
    51    28    27    1
    52    23    24    1
    53    81    80    1
    54    37    35    1
    55    34    35    1
    56    34    31    1
    57    80    79    1
    58    27    24    1
    59    24    25    1
    60    30    31    1
    61    30    25   am
    62    35    36    1
    63    31    32    1
    64    25    26    2
    65    97    96    1
    66    32    33    2
    67    79    78    1
    68    96    95    1
    69    73    70    1
    70    69    70    1
    71    70    71    1
    72    78    75    1
    73    95    94    1
    74    71    72    2
    75    89    87    1
    76    75    76    1
    77    75    74    1
    78    87    86    1
    79    94    91    1
    80    76    77    2
    81    76    82   am
    82    38    39    1
    83    82    83    1
    84    42    39    1
    85    91    90    1
    86    91    92    1
    87    83    86    1
    88    83    84    1
    89    86    88    1
    90    39    40    1
    91    40    41    2
    92    92    93    2
    93    84    85    2
