@<TRIPOS>MOLECULE
tmp/3flfA00.pdb
 206 202 0 0 0
SMALL
GASTEIGER

@<TRIPOS>ATOM
      1  N        -13.9400   46.6880   -1.2600 N.3   111  ASN111     -0.1225
      2  CA       -12.7500   45.8840   -1.5130 C.3   111  ASN111      0.1785
      3  C        -12.4970   44.8720   -0.4070 C.2   111  ASN111      0.2597
      4  O        -11.4480   44.8230    0.2300 O.2   111  ASN111     -0.2718
      5  CB       -11.5250   46.7890   -1.6990 C.3   111  ASN111      0.1169
      6  CG       -11.5200   47.5550   -3.0070 C.2   111  ASN111      0.2627
      7  OD1      -11.8090   47.0750   -4.1080 O.2   111  ASN111     -0.2716
      8  ND2      -11.1610   48.8310   -2.9200 N.am  111  ASN111     -0.0877
      9  N        -13.4840   44.0140   -0.1370 N.am  112  ASN112     -0.1960
     10  CA       -13.2580   43.0130    0.9030 C.3   112  ASN112      0.1819
     11  C        -14.4000   42.0000    0.8850 C.2   112  ASN112      0.2621
     12  O        -15.3540   42.1410    0.1210 O.2   112  ASN112     -0.2715
     13  CB       -13.1290   43.6670    2.2750 C.3   112  ASN112      0.1195
     14  CG       -12.1760   43.0050    3.2430 C.2   112  ASN112      0.2630
     15  OD1      -11.8950   41.8100    3.2160 O.2   112  ASN112     -0.2716
     16  ND2      -11.6270   43.7840    4.1720 N.am  112  ASN112     -0.0877
     17  N        -14.2610   41.0050    1.7380 N.am  113  ALA113     -0.1963
     18  CA       -15.2410   39.9690    2.0160 C.3   113  ALA113      0.1728
     19  C        -15.0970   39.5530    3.4800 C.2   113  ALA113      0.2616
     20  O        -14.0180   39.7280    4.0560 O.2   113  ALA113     -0.2715
     21  CB       -15.0540   38.7810    1.0930 C.3   113  ALA113      0.0334
     22  N        -16.1380   39.0090    4.0970 N.am  114  PHE114     -0.1960
     23  CA       -16.0140   38.6200    5.4940 C.3   114  PHE114      0.1771
     24  C        -17.1350   37.6780    5.9200 C.2   114  PHE114      0.2620
     25  O        -18.1050   37.4670    5.1930 O.2   114  PHE114     -0.2715
     26  CB       -16.0020   39.8680    6.3810 C.3   114  PHE114      0.0574
     27  CG       -17.1920   40.7970    6.2830 C.ar  114  PHE114     -0.0200
     28  CD1      -17.3380   41.6710    5.2190 C.ar  114  PHE114     -0.0042
     29  CD2      -18.1650   40.7950    7.2740 C.ar  114  PHE114     -0.0042
     30  CE1      -18.4190   42.5290    5.1290 C.ar  114  PHE114     -0.0003
     31  CE2      -19.2520   41.6420    7.1860 C.ar  114  PHE114     -0.0003
     32  CZ       -19.3870   42.5150    6.1180 C.ar  114  PHE114     -0.0000
     33  N        -16.9590   37.1340    7.1120 N.am  115  TRP115     -0.1960
     34  CA       -17.9530   36.3570    7.8400 C.3   115  TRP115      0.1771
     35  C        -18.4690   37.2440    8.9730 C.2   115  TRP115      0.2620
     36  O        -17.6580   37.6990    9.7900 O.2   115  TRP115     -0.2715
     37  CB       -17.3470   35.0310    8.3170 C.3   115  TRP115      0.0590
     38  CG       -18.2680   34.2710    9.2230 C.ar  115  TRP115      0.0006
     39  CD1      -18.2680   34.2870   10.5920 C.ar  115  TRP115      0.0946
     40  CD2      -19.3270   33.3880    8.8310 C.ar  115  TRP115      0.0152
     41  NE1      -19.2600   33.4640   11.0680 N.ar  115  TRP115     -0.2442
     42  CE2      -19.9250   32.9000   10.0050 C.ar  115  TRP115      0.0810
     43  CE3      -19.8150   32.9620    7.5950 C.ar  115  TRP115      0.0012
     44  CZ2      -20.9980   32.0070    9.9940 C.ar  115  TRP115      0.0191
     45  CZ3      -20.8800   32.0790    7.5750 C.ar  115  TRP115      0.0001
     46  CH2      -21.4600   31.6090    8.7660 C.ar  115  TRP115      0.0015
     47  N        -19.7630   37.5450    9.0400 N.am  116  ASN116     -0.1958
     48  CA       -20.2720   38.5250   10.0000 C.3   116  ASN116      0.1819
     49  C        -20.7630   37.8770   11.2860 C.2   116  ASN116      0.2621
     50  O        -21.4680   38.4710   12.1090 O.2   116  ASN116     -0.2715
     51  CB       -21.3980   39.3540    9.3770 C.3   116  ASN116      0.1195
     52  CG       -22.7380   38.6470    9.3330 C.2   116  ASN116      0.2630
     53  OD1      -22.8360   37.4290    9.4680 O.2   116  ASN116     -0.2716
     54  ND2      -23.7950   39.4320    9.1380 N.am  116  ASN116     -0.0877
     55  N        -20.3880   36.6180   11.4720 N.am  117  GLY117     -0.1954
     56  CA       -20.8890   35.9060   12.6410 C.3   117  GLY117      0.1869
     57  C        -21.9900   34.9240   12.2690 C.2   117  GLY117      0.2309
     58  O        -22.2160   33.9770   13.0340 O.2   117  GLY117     -0.2863
     59  N         -8.7320   47.8380   -7.5680 N.3   129  THR129     -0.1203
     60  CA        -8.0250   46.9900   -6.6080 C.3   129  THR129      0.1994
     61  C         -8.5810   45.5720   -6.6480 C.2   129  THR129      0.2617
     62  O         -7.8600   44.5980   -6.4440 O.2   129  THR129     -0.2717
     63  CB        -8.1580   47.5760   -5.1910 C.3   129  THR129      0.1784
     64  OG1       -7.8210   48.9730   -5.2390 O.3   129  THR129     -0.2211
     65  CG2       -7.2000   46.9190   -4.2100 C.3   129  THR129      0.0376
     66  N         -9.8830   45.4560   -6.9070 N.am  130  PHE130     -0.1975
     67  CA       -10.5860   44.1910   -6.9020 C.3   130  PHE130      0.1639
     68  C        -11.7140   44.1480   -7.9370 C.2   130  PHE130      0.2290
     69  O        -12.2870   45.1870   -8.2470 O.2   130  PHE130     -0.2864
     70  CB       -11.2330   43.9200   -5.5420 C.3   130  PHE130      0.0560
     71  CG       -10.3780   43.3180   -4.4520 C.ar  130  PHE130     -0.0200
     72  CD1       -9.9090   42.0190   -4.5340 C.ar  130  PHE130     -0.0042
     73  CD2      -10.0430   44.0610   -3.3300 C.ar  130  PHE130     -0.0042
     74  CE1       -9.1320   41.4730   -3.5290 C.ar  130  PHE130     -0.0003
     75  CE2       -9.2640   43.5290   -2.3170 C.ar  130  PHE130     -0.0003
     76  CZ        -8.8020   42.2300   -2.4180 C.ar  130  PHE130     -0.0000
     77  N        -15.3710   39.7260   -5.2550 N.3   133  LEU133     -0.1245
     78  CA       -14.4270   38.8830   -4.5330 C.3   133  LEU133      0.1561
     79  C        -14.8160   37.4190   -4.5000 C.2   133  LEU133      0.2260
     80  O        -13.9460   36.5490   -4.3540 O.2   133  LEU133     -0.2867
     81  CB       -14.2160   39.4250   -3.1100 C.3   133  LEU133      0.0270
     82  CG       -13.1690   40.5540   -3.0720 C.3   133  LEU133      0.0019
     83  CD1      -13.8090   41.8760   -3.4530 C.3   133  LEU133      0.0001
     84  CD2      -12.4970   40.6220   -1.7100 C.3   133  LEU133      0.0001
     85  N        -10.7740   32.7500   -1.7200 N.3   139  VAL139     -0.1245
     86  CA       -11.4710   33.7390   -0.9060 C.3   139  VAL139      0.1561
     87  C        -12.7530   33.1430   -0.3360 C.2   139  VAL139      0.2260
     88  O        -13.0290   33.3080    0.8520 O.2   139  VAL139     -0.2867
     89  CB       -11.8190   35.0090   -1.6930 C.3   139  VAL139      0.0252
     90  CG1      -12.7240   35.9100   -0.8670 C.3   139  VAL139      0.0019
     91  CG2      -10.5390   35.7300   -2.1030 C.3   139  VAL139      0.0019
     92  N        -11.8450   30.7360    2.3470 N.3   142  HIS142     -0.1226
     93  CA       -11.2960   31.4880    3.4820 C.3   142  HIS142      0.1752
     94  C        -12.4290   31.9600    4.3900 C.2   142  HIS142      0.2595
     95  O        -12.3660   31.8210    5.6090 O.2   142  HIS142     -0.2718
     96  CB       -10.4780   32.6630    2.9680 C.3   142  HIS142      0.0759
     97  CG        -9.8630   33.6010    3.9520 C.ar  142  HIS142      0.0818
     98  ND1       -8.4970   33.6920    4.1250 N.ar  142  HIS142     -0.2268
     99  CD2      -10.3870   34.5120    4.8050 C.ar  142  HIS142      0.1154
    100  CE1       -8.2160   34.5990    5.0430 C.ar  142  HIS142      0.1986
    101  NE2       -9.3520   35.1150    5.4760 N.ar  142  HIS142     -0.2212
    102  N        -13.4720   32.5240    3.7750 N.am  143  GLU143     -0.1979
    103  CA       -14.5970   33.0480    4.5390 C.3   143  GLU143      0.1602
    104  C        -15.3350   31.9220    5.2510 C.2   143  GLU143      0.2287
    105  O        -15.5660   32.0120    6.4580 O.2   143  GLU143     -0.2864
    106  CB       -15.5730   33.8280    3.6570 C.3   143  GLU143      0.0415
    107  CG       -15.0130   35.0640    2.9660 C.3   143  GLU143      0.1163
    108  CD       -14.1720   35.9530    3.8610 C.2   143  GLU143      0.3649
    109  OE1      -14.4360   35.9910    5.0760 O.co2 143  GLU143     -0.2457
    110  OE2      -13.2510   36.6230    3.3500 O.co2 143  GLU143     -0.2457
    111  N        -13.7450   30.7880    8.1710 N.3   146  HIS146     -0.1241
    112  CA       -13.8570   31.5900    9.3940 C.3   146  HIS146      0.1621
    113  C        -15.0170   31.0660   10.2410 C.2   146  HIS146      0.2264
    114  O        -14.9350   31.0750   11.4690 O.2   146  HIS146     -0.2867
    115  CB       -14.0470   33.0720    9.1070 C.3   146  HIS146      0.0745
    116  CG       -12.7680   33.8440    8.9590 C.ar  146  HIS146      0.0817
    117  ND1      -11.8150   33.9400    9.9450 N.ar  146  HIS146     -0.2268
    118  CD2      -12.2950   34.5580    7.9150 C.ar  146  HIS146      0.1154
    119  CE1      -10.8050   34.6810    9.5250 C.ar  146  HIS146      0.1986
    120  NE2      -11.0710   35.0680    8.2960 N.ar  146  HIS146     -0.2212
    121  N        -10.1540   37.0880   17.5310 N.3   157  TYR157     -0.1241
    122  CA        -9.6610   37.7490   16.3280 C.3   157  TYR157      0.1605
    123  C         -8.6580   38.8530   16.6110 C.2   157  TYR157      0.2264
    124  O         -8.8590   39.9690   16.1200 O.2   157  TYR157     -0.2867
    125  CB       -10.8290   38.3480   15.5260 C.3   157  TYR157      0.0534
    126  CG       -10.5440   38.5040   14.0500 C.ar  157  TYR157     -0.0201
    127  CD1      -10.0800   37.4280   13.3040 C.ar  157  TYR157     -0.0009
    128  CD2      -10.7430   39.7090   13.3940 C.ar  157  TYR157     -0.0009
    129  CE1       -9.8130   37.5340   11.9570 C.ar  157  TYR157      0.0417
    130  CE2      -10.4810   39.8290   12.0430 C.ar  157  TYR157      0.0417
    131  CZ       -10.0190   38.7420   11.3280 C.ar  157  TYR157      0.1957
    132  OH        -9.7490   38.8520    9.9770 O.3   157  TYR157     -0.2866
    133  N         -6.5810   33.6500   10.9800 N.3   166  GLU166     -0.1245
    134  CA        -6.3480   34.0690    9.6080 C.3   166  GLU166      0.1567
    135  C         -5.5640   33.0170    8.8330 C.2   166  GLU166      0.2260
    136  O         -5.9290   32.6800    7.7000 O.2   166  GLU166     -0.2867
    137  CB        -5.6040   35.4150    9.5670 C.3   166  GLU166      0.0388
    138  CG        -6.5380   36.6190    9.5240 C.3   166  GLU166      0.1160
    139  CD        -7.5400   36.4940    8.3890 C.2   166  GLU166      0.3649
    140  OE1       -7.0790   36.3060    7.2430 O.co2 166  GLU166     -0.2457
    141  OE2       -8.7550   36.5950    8.6400 O.co2 166  GLU166     -0.2457
    142  N         -2.9540   33.9310   -2.2980 N.3   188  ILE188     -0.1245
    143  CA        -4.3170   34.2170   -1.8460 C.3   188  ILE188      0.1561
    144  C         -4.9730   35.3210   -2.6670 C.2   188  ILE188      0.2260
    145  O         -4.4470   36.4350   -2.7580 O.2   188  ILE188     -0.2867
    146  CB        -4.3310   34.6160   -0.3560 C.3   188  ILE188      0.0252
    147  CG1       -3.7300   33.5620    0.5790 C.3   188  ILE188      0.0019
    148  CG2       -5.7360   34.9960    0.0930 C.3   188  ILE188      0.0019
    149  CD1       -4.5000   32.2550    0.5750 C.3   188  ILE188      0.0001
    150  N         -7.7860   39.8730   -7.4640 N.3   193  TYR193     -0.1241
    151  CA        -7.0120   41.0520   -7.0790 C.3   193  TYR193      0.1605
    152  C         -6.3850   41.7370   -8.2910 C.2   193  TYR193      0.2264
    153  O         -5.8320   41.0760   -9.1710 O.2   193  TYR193     -0.2867
    154  CB        -5.9590   40.6080   -6.0700 C.3   193  TYR193      0.0534
    155  CG        -5.0770   41.6870   -5.4930 C.ar  193  TYR193     -0.0201
    156  CD1       -5.6140   42.7440   -4.7750 C.ar  193  TYR193     -0.0009
    157  CD2       -3.6970   41.6440   -5.6660 C.ar  193  TYR193     -0.0009
    158  CE1       -4.7900   43.7210   -4.2520 C.ar  193  TYR193      0.0417
    159  CE2       -2.8660   42.6190   -5.1460 C.ar  193  TYR193      0.0417
    160  CZ        -3.4240   43.6600   -4.4360 C.ar  193  TYR193      0.1957
    161  OH        -2.6220   44.6460   -3.9070 O.3   193  TYR193     -0.2866
    162  N         -2.9700   39.0580   -2.8690 N.3   202  LEU202     -0.1231
    163  CA        -3.1550   39.6250   -1.5410 C.3   202  LEU202      0.1693
    164  C         -2.0100   39.2190   -0.6120 C.2   202  LEU202      0.2591
    165  O         -1.3970   40.0230    0.0820 O.2   202  LEU202     -0.2718
    166  CB        -4.4640   39.1450   -0.9180 C.3   202  LEU202      0.0284
    167  CG        -5.7020   40.0240   -0.9390 C.3   202  LEU202      0.0019
    168  CD1       -5.9540   40.5700   -2.3290 C.3   202  LEU202      0.0001
    169  CD2       -6.9270   39.2480   -0.4680 C.3   202  LEU202      0.0001
    170  N         -1.7620   37.9150   -0.6140 N.am  203  ARG203     -0.1980
    171  CA        -0.7520   37.2920    0.2170 C.3   203  ARG203      0.1597
    172  C         -0.1150   36.0960   -0.4860 C.2   203  ARG203      0.2287
    173  O         -0.6690   35.4780   -1.3890 O.2   203  ARG203     -0.2864
    174  CB        -1.3360   36.7790    1.5370 C.3   203  ARG203      0.0334
    175  CG        -1.9120   37.8280    2.4660 C.3   203  ARG203      0.0492
    176  CD        -2.3700   37.1810    3.7630 C.3   203  ARG203      0.2205
    177  NE        -3.6890   36.5710    3.6800 N.pl3 203  ARG203     -0.0865
    178  CZ        -4.8310   37.2310    3.5300 C.cat 203  ARG203      0.5346
    179  NH1       -4.8530   38.5550    3.4360 N.pl3 203  ARG203      0.1354
    180  NH2       -5.9790   36.5650    3.4720 N.pl3 203  ARG203      0.1354
    181  N         -4.7190   46.4700   12.1880 N.3   226  ASP226     -0.1225
    182  CA        -5.2110   45.1810   11.7000 C.3   226  ASP226      0.1805
    183  C         -5.3640   44.1740   12.8330 C.2   226  ASP226      0.2597
    184  O         -4.9640   43.0200   12.7150 O.2   226  ASP226     -0.2718
    185  CB        -4.2350   44.6710   10.6420 C.3   226  ASP226      0.1424
    186  CG        -4.5940   43.3730    9.9560 C.2   226  ASP226      0.3668
    187  OD1       -5.7810   43.0910    9.7050 O.co2 226  ASP226     -0.2456
    188  OD2       -3.6630   42.5990    9.6360 O.co2 226  ASP226     -0.2456
    189  N         -5.9410   44.6500   13.9260 N.am  227  ASN227     -0.1974
    190  CA        -6.1880   43.8690   15.1320 C.3   227  ASN227      0.1688
    191  C         -4.9040   43.2610   15.6680 C.2   227  ASN227      0.2292
    192  O         -4.8600   42.1370   16.1640 O.2   227  ASN227     -0.2864
    193  CB        -7.2360   42.7830   14.8450 C.3   227  ASN227      0.1181
    194  CG        -8.5910   43.4360   14.6190 C.2   227  ASN227      0.2629
    195  OD1       -9.1470   43.3460   13.5310 O.2   227  ASN227     -0.2716
    196  ND2       -9.0990   44.1030   15.6450 N.am  227  ASN227     -0.0877
    197  N         -3.6650   39.8980    9.6890 N.3   231  HIS231     -0.1241
    198  CA        -3.4420   39.5570    8.2870 C.3   231  HIS231      0.1621
    199  C         -1.9700   39.6850    7.9150 C.2   231  HIS231      0.2264
    200  O         -1.5720   39.4570    6.7740 O.2   231  HIS231     -0.2867
    201  CB        -4.2470   40.4750    7.3680 C.3   231  HIS231      0.0745
    202  CG        -5.7190   40.2690    7.5080 C.ar  231  HIS231      0.0817
    203  ND1       -6.4950   41.0450    8.3380 N.ar  231  HIS231     -0.2268
    204  CD2       -6.5550   39.3790    6.9270 C.ar  231  HIS231      0.1154
    205  CE1       -7.7550   40.6400    8.2650 C.ar  231  HIS231      0.1986
    206  NE2       -7.8150   39.6320    7.4150 N.ar  231  HIS231     -0.2212
@<TRIPOS>BOND
     1   153   152    2
     2   152   151    1
     3    69    68    2
     4    68    67    1
     5    59    60    1
     6   150   151    1
     7   151   154    1
     8    66    67    1
     9    66    61   am
    10    67    70    1
    11    61    60    1
    12    61    62    2
    13    60    63    1
    14   154   155    1
    15   157   155   ar
    16   157   159   ar
    17    70    71    1
    18   155   156   ar
    19    77    78    1
    20    64    63    1
    21    63    65    1
    22   159   160   ar
    23   156   158   ar
    24    72    71   ar
    25    72    74   ar
    26    78    79    1
    27    78    81    1
    28    79    80    2
    29    71    73   ar
    30   160   158   ar
    31   160   161    1
    32     7     6    2
    33    74    76   ar
    34    83    82    1
    35    73    75   ar
    36    81    82    1
    37    82    84    1
    38     6     8   am
    39     6     5    1
    40   162   163    1
    41   145   144    2
    42   144   143    1
    43    76    75   ar
    44   168   167    1
    45   142   143    1
    46    91    89    1
    47   143   146    1
    48    85    86    1
    49     5     2    1
    50    89    86    1
    51    89    90    1
    52   163   166    1
    53   163   164    1
    54     2     1    1
    55     2     3    1
    56   173   172    2
    57   167   166    1
    58   167   169    1
    59    86    87    1
    60   170   164   am
    61   170   171    1
    62   164   165    2
    63   172   171    1
    64     3     9   am
    65     3     4    2
    66   146   148    1
    67   146   147    1
    68    87    88    2
    69     9    10    1
    70    12    11    2
    71   171   174    1
    72   149   147    1
    73    11    10    1
    74    11    17   am
    75    10    13    1
    76    21    18    1
    77   174   175    1
    78    17    18    1
    79    18    19    1
    80    13    14    1
    81    92    93    1
    82   175   176    1
    83   107   106    1
    84   107   108    1
    85    96    93    1
    86    96    97    1
    87    15    14    2
    88    14    16   am
    89   110   108   ar
    90   179   178    1
    91   180   178    1
    92    19    20    2
    93    19    22   am
    94    93    94    1
    95   178   177    2
    96   106   103    1
    97   177   176    1
    98   102    94   am
    99   102   103    1
   100   108   109   ar
   101    97    98   ar
   102    97    99   ar
   103    22    23    1
   104    98   100   ar
   105    94    95    2
   106   103   104    1
   107    99   101   ar
   108   100   101   ar
   109    30    28   ar
   110    30    32   ar
   111    25    24    2
   112    28    27   ar
   113   104   105    2
   114    23    24    1
   115    23    26    1
   116    24    33   am
   117    32    31   ar
   118    27    26    1
   119    27    29   ar
   120   200   199    2
   121   204   206   ar
   122   204   202   ar
   123    33    34    1
   124    31    29   ar
   125   140   139   ar
   126   201   202    1
   127   201   198    1
   128   206   205   ar
   129   202   203   ar
   130    45    43   ar
   131    45    46   ar
   132    43    40   ar
   133   136   135    2
   134    34    37    1
   135    34    35    1
   136   118   120   ar
   137   118   116   ar
   138   199   198    1
   139   111   112    1
   140   205   203   ar
   141   198   197    1
   142   120   119   ar
   143    37    38    1
   144   139   141   ar
   145   139   138    1
   146    46    44   ar
   147    40    38   ar
   148    40    42   ar
   149   135   134    1
   150   116   115    1
   151   116   117   ar
   152    35    47   am
   153    35    36    2
   154    47    48    1
   155   115   112    1
   156    54    52   am
   157    38    39   ar
   158    52    51    1
   159    52    53    2
   160    51    48    1
   161   112   113    1
   162   138   137    1
   163   119   117   ar
   164   137   134    1
   165   134   133    1
   166   188   186   ar
   167   187   186   ar
   168   186   185    1
   169   132   131    1
   170    44    42   ar
   171    48    49    1
   172    42    41   ar
   173   113   114    2
   174    39    41   ar
   175   185   182    1
   176    49    55   am
   177    49    50    2
   178   131   129   ar
   179   131   130   ar
   180    55    56    1
   181   182   181    1
   182   182   183    1
   183   129   127   ar
   184   130   128   ar
   185    57    56    1
   186    57    58    2
   187   184   183    2
   188   183   189   am
   189   127   126   ar
   190   128   126   ar
   191   195   194    2
   192   189   190    1
   193   126   125    1
   194   194   193    1
   195   194   196   am
   196   193   190    1
   197   190   191    1
   198   125   122    1
   199   191   192    2
   200   124   123    2
   201   122   123    1
   202   122   121    1
