@<TRIPOS>MOLECULE
tmp/3flkD03.pdb
 80 76 0 0 0
SMALL
GASTEIGER

@<TRIPOS>ATOM
      1  N          7.2400  114.6190   84.5710 N.3     9  GLY9       -0.1210
      2  CA         8.0390  113.4070   84.4100 C.3     9  GLY9        0.1956
      3  C          8.0830  112.9520   82.9630 C.2     9  GLY9        0.2612
      4  O          8.3190  113.7610   82.0630 O.2     9  GLY9       -0.2717
      5  N          7.8360  111.6590   82.7450 N.am   10  ASP10      -0.1959
      6  CA         7.9780  111.0360   81.4280 C.3    10  ASP10       0.1840
      7  C          6.6400  110.6050   80.8410 C.2    10  ASP10       0.2622
      8  O          5.6520  110.4450   81.5620 O.2    10  ASP10      -0.2715
      9  CB         8.8690  109.7880   81.5130 C.3    10  ASP10       0.1450
     10  CG        10.2770  110.0900   81.9890 C.2    10  ASP10       0.3671
     11  OD1       10.9270  110.9940   81.4260 O.co2  10  ASP10      -0.2456
     12  OD2       10.7430  109.3940   82.9170 O.co2  10  ASP10      -0.2456
     13  N          6.6320  110.3980   79.5270 N.am   11  GLY11      -0.1954
     14  CA         5.5020  109.7770   78.8410 C.3    11  GLY11       0.1869
     15  C          4.2010  110.5090   79.0800 C.2    11  GLY11       0.2309
     16  O          4.1580  111.7340   79.0090 O.2    11  GLY11      -0.2863
     17  N          3.3660  113.9340   80.7540 N.3    14  LEU14      -0.1245
     18  CA         3.3710  115.1630   79.9600 C.3    14  LEU14       0.1561
     19  C          2.0050  115.4620   79.3290 C.2    14  LEU14       0.2260
     20  O          1.6910  116.6170   79.0470 O.2    14  LEU14      -0.2867
     21  CB         4.4530  115.0990   78.8710 C.3    14  LEU14       0.0270
     22  CG         5.9110  114.9210   79.3150 C.3    14  LEU14       0.0019
     23  CD1        6.7590  114.2980   78.2040 C.3    14  LEU14       0.0001
     24  CD2        6.5150  116.2360   79.7860 C.3    14  LEU14       0.0001
     25  N         13.5070  110.9720   82.6130 N.3    45  CYS45      -0.1221
     26  CA        14.5850  110.2970   81.9020 C.3    45  CYS45       0.1808
     27  C         15.2740  111.2190   80.8950 C.2    45  CYS45       0.2601
     28  O         16.4520  111.0330   80.5920 O.2    45  CYS45      -0.2717
     29  CB        14.0780  109.0160   81.2420 C.3    45  CYS45       0.0970
     30  SG        13.5730  107.7700   82.4560 S.3    45  CYS45      -0.0800
     31  N         14.5410  112.2170   80.3980 N.am   46  ASP46      -0.1973
     32  CA        15.1180  113.2610   79.5430 C.3    46  ASP46       0.1709
     33  C         16.2400  114.0050   80.2730 C.2    46  ASP46       0.2293
     34  O         17.3110  114.2310   79.7110 O.2    46  ASP46      -0.2864
     35  CB        14.0360  114.2500   79.0840 C.3    46  ASP46       0.1436
     36  CG        14.5850  115.3440   78.1690 C.2    46  ASP46       0.3671
     37  OD1       14.9760  115.0380   77.0230 O.co2  46  ASP46      -0.2456
     38  OD2       14.6180  116.5170   78.5940 O.co2  46  ASP46      -0.2456
     39  N         19.3380  111.6160   80.6990 N.3    49  LEU49      -0.1245
     40  CA        20.1620  111.4400   79.5050 C.3    49  LEU49       0.1561
     41  C         21.0920  112.6330   79.2940 C.2    49  LEU49       0.2260
     42  O         22.1610  112.5030   78.6940 O.2    49  LEU49      -0.2867
     43  CB        19.2900  111.2090   78.2680 C.3    49  LEU49       0.0270
     44  CG        18.4320  109.9390   78.2150 C.3    49  LEU49       0.0019
     45  CD1       17.5450  109.9540   76.9780 C.3    49  LEU49       0.0001
     46  CD2       19.2790  108.6670   78.2530 C.3    49  LEU49       0.0001
     47  N         11.0180  105.4510   81.4130 N.3    74  TRP74      -0.1241
     48  CA        11.1360  105.2730   79.9710 C.3    74  TRP74       0.1605
     49  C         12.1520  104.1610   79.7080 C.2    74  TRP74       0.2264
     50  O         13.3070  104.4370   79.3800 O.2    74  TRP74      -0.2867
     51  CB        11.5360  106.5820   79.2750 C.3    74  TRP74       0.0550
     52  CG        11.1660  106.5970   77.8230 C.ar   74  TRP74       0.0003
     53  CD1       11.9990  106.3890   76.7650 C.ar   74  TRP74       0.0946
     54  CD2        9.8570  106.8070   77.2720 C.ar   74  TRP74       0.0152
     55  NE1       11.2940  106.4590   75.5850 N.ar   74  TRP74      -0.2442
     56  CE2        9.9790  106.7180   75.8660 C.ar   74  TRP74       0.0810
     57  CE3        8.5960  107.0690   77.8290 C.ar   74  TRP74       0.0012
     58  CZ2        8.8840  106.8810   75.0050 C.ar   74  TRP74       0.0191
     59  CZ3        7.5080  107.2300   76.9740 C.ar   74  TRP74       0.0001
     60  CH2        7.6620  107.1340   75.5750 C.ar   74  TRP74       0.0015
     61  N         15.2130  103.8490   77.3030 N.3    77  LYS77      -0.1245
     62  CA        16.4090  104.6740   77.4790 C.3    77  LYS77       0.1561
     63  C         17.0800  104.5220   78.8460 C.2    77  LYS77       0.2260
     64  O         18.3070  104.5860   78.9430 O.2    77  LYS77      -0.2867
     65  CB        16.0730  106.1520   77.2410 C.3    77  LYS77       0.0271
     66  CG        15.8150  106.5360   75.7850 C.3    77  LYS77       0.0035
     67  CD        17.1070  106.6450   74.9810 C.3    77  LYS77       0.0206
     68  CE        16.8930  107.4860   73.7300 C.3    77  LYS77       0.1093
     69  NZ        18.0240  107.3860   72.7610 N.3    77  LYS77      -0.1314
     70  N          1.8450  106.7370   74.7260 N.3   281  PHE281     -0.1241
     71  CA         2.2980  108.1230   74.7260 C.3   281  PHE281      0.1605
     72  C          2.3650  108.7130   73.3220 C.2   281  PHE281      0.2264
     73  O          2.9130  108.1000   72.4040 O.2   281  PHE281     -0.2867
     74  CB         3.6440  108.3040   75.4350 C.3   281  PHE281      0.0534
     75  CG         4.1620  109.7130   75.3650 C.ar  281  PHE281     -0.0203
     76  CD1        3.4500  110.7560   75.9520 C.ar  281  PHE281     -0.0042
     77  CD2        5.3360  110.0050   74.6840 C.ar  281  PHE281     -0.0042
     78  CE1        3.9080  112.0640   75.8790 C.ar  281  PHE281     -0.0003
     79  CE2        5.8030  111.3130   74.6050 C.ar  281  PHE281     -0.0003
     80  CZ         5.0900  112.3440   75.2050 C.ar  281  PHE281     -0.0000
@<TRIPOS>BOND
     1    73    72    2
     2    69    68    1
     3    72    71    1
     4    68    67    1
     5    79    77   ar
     6    79    80   ar
     7    77    75   ar
     8    70    71    1
     9    71    74    1
    10    67    66    1
    11    58    60   ar
    12    58    56   ar
    13    80    78   ar
    14    75    74    1
    15    75    76   ar
    16    60    59   ar
    17    55    56   ar
    18    55    53   ar
    19    66    65    1
    20    56    54   ar
    21    78    76   ar
    22    53    52   ar
    23    59    57   ar
    24    45    44    1
    25    37    36   ar
    26    65    62    1
    27    54    52   ar
    28    54    57   ar
    29    61    62    1
    30    62    63    1
    31    52    51    1
    32    36    38   ar
    33    36    35    1
    34    23    22    1
    35    44    46    1
    36    44    43    1
    37    43    40    1
    38    42    41    2
    39    14    15    1
    40    14    13    1
    41    63    64    2
    42    21    22    1
    43    21    18    1
    44    16    15    2
    45    20    19    2
    46    35    32    1
    47    51    48    1
    48    41    40    1
    49    22    24    1
    50    19    18    1
    51    50    49    2
    52    40    39    1
    53    13     7   am
    54    32    33    1
    55    32    31    1
    56    49    48    1
    57    34    33    2
    58    18    17    1
    59    48    47    1
    60    31    27   am
    61    28    27    2
    62     7     6    1
    63     7     8    2
    64    27    26    1
    65    29    26    1
    66    29    30    1
    67    11    10   ar
    68     6     9    1
    69     6     5    1
    70     9    10    1
    71    26    25    1
    72    10    12   ar
    73     4     3    2
    74     5     3   am
    75     3     2    1
    76     2     1    1
