@<TRIPOS>MOLECULE
tmp/3flsA00.pdb
 175 164 0 0 0
SMALL
GASTEIGER

@<TRIPOS>ATOM
      1  N         24.3500    8.7520   39.2010 N.3    27  VAL27      -0.1231
      2  CA        25.3710    8.6820   38.1450 C.3    27  VAL27       0.1692
      3  C         25.7680   10.0580   37.5920 C.2    27  VAL27       0.2593
      4  O         26.7490   10.1730   36.8500 O.2    27  VAL27      -0.2718
      5  CB        24.9780    7.7160   36.9810 C.3    27  VAL27       0.0266
      6  CG1       25.0690    6.2550   37.4270 C.3    27  VAL27       0.0020
      7  CG2       23.5950    8.0460   36.4170 C.3    27  VAL27       0.0020
      8  N         25.0080   11.0890   37.9610 N.am   28  GLY28      -0.1942
      9  CA        25.3210   12.4620   37.5660 C.3    28  GLY28       0.2014
     10  C         24.0970   13.2820   37.2150 C.2    28  GLY28       0.2639
     11  O         23.0090   13.0570   37.7500 O.2    28  GLY28      -0.2714
     12  N         24.2780   14.2430   36.3140 N.am   29  SER29      -0.1949
     13  CA        23.1800   15.1170   35.8930 C.3    29  SER29       0.1924
     14  C         22.7260   14.8000   34.4750 C.2    29  SER29       0.2314
     15  O         23.5140   14.2900   33.6700 O.2    29  SER29      -0.2863
     16  CB        23.5800   16.5900   36.0100 C.3    29  SER29       0.2116
     17  OG        23.8830   16.9220   37.3540 O.3    29  SER29      -0.2180
     18  N         20.1580   12.1740   37.7420 N.3    31  VAL31      -0.1245
     19  CA        19.9370   10.8420   37.1670 C.3    31  VAL31       0.1561
     20  C         20.5270    9.7580   38.0830 C.2    31  VAL31       0.2260
     21  O         21.6210    9.9280   38.6210 O.2    31  VAL31      -0.2867
     22  CB        20.5650   10.7360   35.7450 C.3    31  VAL31       0.0252
     23  CG1       20.3260    9.3700   35.1160 C.3    31  VAL31       0.0019
     24  CG2       20.0300   11.8240   34.8370 C.3    31  VAL31       0.0019
     25  N         18.2050    4.0600   33.3740 N.3    44  ALA44      -0.1245
     26  CA        18.5060    5.3970   33.8500 C.3    44  ALA44       0.1562
     27  C         17.1840    6.0680   34.1760 C.2    44  ALA44       0.2260
     28  O         16.2830    6.1010   33.3540 O.2    44  ALA44      -0.2867
     29  CB        19.2910    6.1970   32.7970 C.3    44  ALA44       0.0290
     30  N         15.4790    9.5790   35.5890 N.3    46  LYS46      -0.1245
     31  CA        15.7480   11.0020   35.6960 C.3    46  LYS46       0.1561
     32  C         14.6190   11.6760   36.4570 C.2    46  LYS46       0.2260
     33  O         13.4610   11.5820   36.0550 O.2    46  LYS46      -0.2867
     34  CB        15.8710   11.5870   34.2850 C.3    46  LYS46       0.0271
     35  CG        16.3390   13.0270   34.1890 C.3    46  LYS46       0.0035
     36  CD        16.1340   13.5320   32.7560 C.3    46  LYS46       0.0206
     37  CE        16.8460   14.8410   32.5230 C.3    46  LYS46       0.1093
     38  NZ        16.6590   15.2830   31.1160 N.3    46  LYS46      -0.1314
     39  N         10.0910   18.5120   27.1960 N.3    64  GLU64      -0.1245
     40  CA        10.9240   17.3190   27.3290 C.3    64  GLU64       0.1567
     41  C         10.0990   16.0470   27.2110 C.2    64  GLU64       0.2260
     42  O         10.4320   15.1520   26.4350 O.2    64  GLU64      -0.2867
     43  CB        11.7070   17.3040   28.6460 C.3    64  GLU64       0.0388
     44  CG        12.6580   16.1370   28.6920 C.3    64  GLU64       0.1160
     45  CD        13.7460   16.2520   29.7310 C.2    64  GLU64       0.3649
     46  OE1       13.5550   16.9240   30.7640 O.co2  64  GLU64      -0.2457
     47  OE2       14.8020   15.6320   29.5090 O.co2  64  GLU64      -0.2457
     48  N         10.4680   13.1310   24.1990 N.3    68  LEU68      -0.1245
     49  CA        10.8520   11.7390   24.4820 C.3    68  LEU68       0.1561
     50  C          9.7610   10.7160   24.1630 C.2    68  LEU68       0.2260
     51  O         10.0660    9.5710   23.8270 O.2    68  LEU68      -0.2867
     52  CB        11.3380   11.5860   25.9310 C.3    68  LEU68       0.0270
     53  CG        12.5780   12.4110   26.3330 C.3    68  LEU68       0.0019
     54  CD1       12.6870   12.5190   27.8400 C.3    68  LEU68       0.0001
     55  CD2       13.8570   11.8400   25.7200 C.3    68  LEU68       0.0001
     56  N         17.5890    8.1570   22.1170 N.3    77  ILE77      -0.1231
     57  CA        17.1190    7.8130   23.4590 C.3    77  ILE77       0.1692
     58  C         15.6010    7.7250   23.4940 C.2    77  ILE77       0.2593
     59  O         14.9120    8.6840   23.1380 O.2    77  ILE77      -0.2718
     60  CB        17.6420    8.8120   24.5400 C.3    77  ILE77       0.0266
     61  CG1       17.2010    8.3800   25.9370 C.3    77  ILE77       0.0019
     62  CG2       17.1770   10.2440   24.2730 C.3    77  ILE77       0.0020
     63  CD1       18.0130    9.0090   27.0480 C.3    77  ILE77       0.0001
     64  N         15.0960    6.5540   23.8910 N.am   78  GLY78      -0.1942
     65  CA        13.6590    6.2890   23.9540 C.3    78  GLY78       0.2014
     66  C         13.1680    6.1220   25.3800 C.2    78  GLY78       0.2638
     67  O         13.9380    5.7770   26.2760 O.2    78  GLY78      -0.2714
     68  N         11.8750    6.3430   25.5830 N.am   79  LEU79      -0.1977
     69  CA        11.2890    6.2970   26.9190 C.3    79  LEU79       0.1596
     70  C         10.7880    4.9010   27.2600 C.2    79  LEU79       0.2287
     71  O          9.9180    4.3780   26.5770 O.2    79  LEU79      -0.2864
     72  CB        10.1490    7.2950   27.0120 C.3    79  LEU79       0.0297
     73  CG         9.7970    7.8460   28.3820 C.3    79  LEU79       0.0022
     74  CD1       10.9520    8.6280   28.9570 C.3    79  LEU79       0.0001
     75  CD2        8.5410    8.7390   28.2450 C.3    79  LEU79       0.0001
     76  N         11.4540   10.1410   34.5680 N.3    97  LEU97      -0.1231
     77  CA        11.5910    9.5800   33.2210 C.3    97  LEU97       0.1693
     78  C         12.5700    8.4060   33.2370 C.2    97  LEU97       0.2592
     79  O         13.5860    8.4530   33.9160 O.2    97  LEU97      -0.2718
     80  CB        12.0760   10.6640   32.2490 C.3    97  LEU97       0.0284
     81  CG        11.3550   12.0210   32.2670 C.3    97  LEU97       0.0019
     82  CD1       12.1690   13.0840   31.5580 C.3    97  LEU97       0.0001
     83  CD2        9.9610   11.9160   31.6640 C.3    97  LEU97       0.0001
     84  N         12.2600    7.3530   32.4900 N.am   98  VAL98      -0.1966
     85  CA        13.0570    6.1270   32.5240 C.3    98  VAL98       0.1727
     86  C         13.4890    5.7310   31.1140 C.2    98  VAL98       0.2617
     87  O         12.6710    5.6730   30.1870 O.2    98  VAL98      -0.2715
     88  CB        12.2850    4.9420   33.1960 C.3    98  VAL98       0.0290
     89  CG1       13.2080    3.7310   33.4370 C.3    98  VAL98       0.0023
     90  CG2       11.6480    5.3730   34.4930 C.3    98  VAL98       0.0023
     91  N         14.7820    5.4670   30.9630 N.am   99  THR99      -0.1937
     92  CA        15.3350    4.9720   29.7010 C.3    99  THR99       0.2028
     93  C         16.4150    3.9020   29.9580 C.2    99  THR99       0.2642
     94  O         16.6380    3.5010   31.1030 O.2    99  THR99      -0.2714
     95  CB        15.8800    6.1410   28.8150 C.3    99  THR99       0.1808
     96  OG1       16.2210    5.6380   27.5130 O.3    99  THR99      -0.2208
     97  CG2       17.1090    6.8080   29.4570 C.3    99  THR99       0.0379
     98  N         17.0730    3.4330   28.8980 N.am  100  HIS100     -0.1959
     99  CA        18.2010    2.5190   29.0640 C.3   100  HIS100      0.1787
    100  C         19.3600    3.2320   29.7350 C.2   100  HIS100      0.2620
    101  O         19.6320    4.3960   29.4400 O.2   100  HIS100     -0.2715
    102  CB        18.6650    1.9630   27.7190 C.3   100  HIS100      0.0785
    103  CG        17.6230    1.1620   27.0130 C.ar  100  HIS100      0.0821
    104  ND1       16.6810    1.7340   26.1870 N.ar  100  HIS100     -0.2267
    105  CD2       17.3620   -0.1670   27.0200 C.ar  100  HIS100      0.1154
    106  CE1       15.8860    0.7930   25.7090 C.ar  100  HIS100      0.1986
    107  NE2       16.2780   -0.3710   26.1980 N.ar  100  HIS100     -0.2212
    108  N         20.0290    2.5410   30.6530 N.am  101  LEU101     -0.1963
    109  CA        21.3010    3.0300   31.1580 C.3   101  LEU101      0.1728
    110  C         22.3610    2.7140   30.1110 C.2   101  LEU101      0.2616
    111  O         22.5290    1.5590   29.7200 O.2   101  LEU101     -0.2715
    112  CB        21.6580    2.4040   32.5090 C.3   101  LEU101      0.0311
    113  CG        22.9590    2.8830   33.1640 C.3   101  LEU101      0.0022
    114  CD1       22.7990    4.2960   33.7360 C.3   101  LEU101      0.0001
    115  CD2       23.4110    1.8920   34.2510 C.3   101  LEU101      0.0001
    116  N         23.0480    3.7570   29.6520 N.am  102  MET102     -0.1963
    117  CA        24.0660    3.6320   28.6100 C.3   102  MET102      0.1736
    118  C         25.4540    3.5340   29.2270 C.2   102  MET102      0.2617
    119  O         25.7360    4.1710   30.2450 O.2   102  MET102     -0.2715
    120  CB        23.9870    4.8090   27.6240 C.3   102  MET102      0.0427
    121  CG        22.6640    4.8970   26.8520 C.3   102  MET102      0.0599
    122  SD        22.2760    3.4620   25.8020 S.3   102  MET102     -0.1393
    123  CE        23.5390    3.5760   24.5290 C.3   102  MET102      0.0692
    124  N         26.3090    2.7260   28.6060 N.am  103  GLY103     -0.1940
    125  CA        27.6530    2.4420   29.1320 C.3   103  GLY103      0.2014
    126  C         28.6100    3.6250   29.2010 C.2   103  GLY103      0.2639
    127  O         29.2600    3.8450   30.2200 O.2   103  GLY103     -0.2714
    128  N         28.7030    4.3850   28.1160 N.am  104  ALA104     -0.1963
    129  CA        29.6930    5.4570   28.0160 C.3   104  ALA104      0.1728
    130  C         29.2710    6.5200   27.0180 C.2   104  ALA104      0.2616
    131  O         28.6500    6.2100   26.0040 O.2   104  ALA104     -0.2715
    132  CB        31.0600    4.8800   27.6170 C.3   104  ALA104      0.0334
    133  N         29.6110    7.7710   27.3110 N.am  105  ASP105     -0.1971
    134  CA        29.4830    8.8310   26.3200 C.3   105  ASP105      0.1709
    135  C         30.6980    8.8370   25.3870 C.2   105  ASP105      0.2293
    136  O         31.7180    8.2070   25.6740 O.2   105  ASP105     -0.2864
    137  CB        29.1850   10.2130   26.9540 C.3   105  ASP105      0.1436
    138  CG        30.4030   10.8760   27.6060 C.2   105  ASP105      0.3671
    139  OD1       30.1890   11.7660   28.4570 O.co2 105  ASP105     -0.2456
    140  OD2       31.5570   10.5470   27.2800 O.co2 105  ASP105     -0.2456
    141  N         34.3940    9.5140   26.5510 N.3   108  ASN108     -0.1240
    142  CA        35.0970    8.4360   27.2400 C.3   108  ASN108      0.1653
    143  C         35.7860    7.4370   26.3070 C.2   108  ASN108      0.2266
    144  O         36.8310    6.8800   26.6470 O.2   108  ASN108     -0.2867
    145  CB        34.1400    7.7220   28.1960 C.3   108  ASN108      0.1155
    146  CG        33.5230    8.6690   29.2220 C.2   108  ASN108      0.2627
    147  OD1       32.3510    8.5370   29.5750 O.2   108  ASN108     -0.2716
    148  ND2       34.3060    9.6350   29.6930 N.am  108  ASN108     -0.0877
    149  N         29.4670   14.3700   24.8280 N.3   147  SER147     -0.1217
    150  CA        28.8460   13.9910   26.0870 C.3   147  SER147      0.1889
    151  C         27.3390   13.7230   25.9430 C.2   147  SER147      0.2288
    152  O         26.7290   13.1680   26.8490 O.2   147  SER147     -0.2866
    153  CB        29.1150   15.0650   27.1460 C.3   147  SER147      0.2089
    154  OG        28.4790   16.2850   26.7990 O.3   147  SER147     -0.2183
    155  N         25.7230    8.6920   23.5940 N.3   150  ALA150     -0.1245
    156  CA        25.9470    7.5800   24.4900 C.3   150  ALA150      0.1562
    157  C         25.9950    6.2780   23.7020 C.2   150  ALA150      0.2260
    158  O         25.3030    6.1180   22.6930 O.2   150  ALA150     -0.2867
    159  CB        24.8660    7.5490   25.5320 C.3   150  ALA150      0.0290
    160  N         21.1420   11.7770   23.0680 N.3   160  LEU160     -0.1231
    161  CA        20.3970   12.3210   24.2140 C.3   160  LEU160      0.1693
    162  C         20.2650   13.8450   24.1350 C.2   160  LEU160      0.2592
    163  O         21.0010   14.5020   23.3970 O.2   160  LEU160     -0.2718
    164  CB        21.0880   11.9680   25.5490 C.3   160  LEU160      0.0284
    165  CG        22.0410   10.7840   25.7460 C.3   160  LEU160      0.0019
    166  CD1       22.5790   10.7990   27.1750 C.3   160  LEU160      0.0001
    167  CD2       21.3890    9.4270   25.4410 C.3   160  LEU160      0.0001
    168  N         19.3250   14.3980   24.9010 N.am  161  ASP161     -0.1974
    169  CA        19.2140   15.8570   25.1170 C.3   161  ASP161      0.1709
    170  C         18.7620   16.7160   23.9140 C.2   161  ASP161      0.2293
    171  O         18.9660   17.9320   23.9120 O.2   161  ASP161     -0.2864
    172  CB        20.5460   16.3930   25.6660 C.3   161  ASP161      0.1436
    173  CG        20.4150   17.7630   26.3150 C.2   161  ASP161      0.3671
    174  OD1       20.1420   17.8020   27.5400 O.co2 161  ASP161     -0.2456
    175  OD2       20.6380   18.7880   25.6190 O.co2 161  ASP161     -0.2456
@<TRIPOS>BOND
     1    56    57    1
     2   158   157    2
     3   160   161    1
     4    59    58    2
     5   163   162    2
     6    57    58    1
     7    57    60    1
     8    58    64   am
     9   155   156    1
    10   157   156    1
    11    51    50    2
    12    64    65    1
    13   171   170    2
    14   170   169    1
    15    65    66    1
    16   162   161    1
    17   162   168   am
    18    50    49    1
    19    48    49    1
    20   161   164    1
    21    62    60    1
    22    49    52    1
    23   156   159    1
    24   123   122    1
    25    60    61    1
    26   149   150    1
    27   168   169    1
    28   169   172    1
    29    66    68   am
    30    66    67    2
    31   135   136    2
    32   135   134    1
    33   167   165    1
    34   164   165    1
    35    68    69    1
    36   175   173   ar
    37   172   173    1
    38   106   104   ar
    39   106   107   ar
    40    55    53    1
    41   165   166    1
    42   122   121    1
    43    52    53    1
    44    61    63    1
    45   151   150    1
    46   151   152    2
    47   131   130    2
    48   150   153    1
    49   104   103   ar
    50   107   105   ar
    51   143   144    2
    52   143   142    1
    53   173   174   ar
    54   134   137    1
    55   134   133    1
    56    53    54    1
    57    42    41    2
    58   141   142    1
    59    71    70    2
    60   154   153    1
    61   121   120    1
    62    69    72    1
    63    69    70    1
    64   137   138    1
    65    72    73    1
    66   103   105   ar
    67   103   102    1
    68   130   133   am
    69   130   129    1
    70    39    40    1
    71    41    40    1
    72   142   145    1
    73   140   138   ar
    74    40    43    1
    75    96    95    1
    76   138   139   ar
    77   132   129    1
    78   120   117    1
    79   102    99    1
    80   129   128    1
    81   128   126   am
    82   145   146    1
    83    75    73    1
    84    73    74    1
    85   124   125    1
    86   124   118   am
    87   117   118    1
    88   117   116    1
    89    43    44    1
    90    44    45    1
    91    95    97    1
    92    95    92    1
    93    98    99    1
    94    98    93   am
    95    99   100    1
    96   125   126    1
    97   126   127    2
    98   146   147    2
    99   146   148   am
   100   118   119    2
   101   101   100    2
   102    47    45   ar
   103   116   110   am
   104    92    93    1
   105    92    91    1
   106   111   110    2
   107    45    46   ar
   108   100   108   am
   109    93    94    2
   110   110   109    1
   111    87    86    2
   112   108   109    1
   113    91    86   am
   114    86    85    1
   115    38    37    1
   116   109   112    1
   117    82    81    1
   118    83    81    1
   119    80    81    1
   120    80    77    1
   121    84    85    1
   122    84    78   am
   123   112   113    1
   124    37    36    1
   125    85    88    1
   126    36    35    1
   127    29    26    1
   128   113   114    1
   129   113   115    1
   130    88    89    1
   131    88    90    1
   132    77    78    1
   133    77    76    1
   134    78    79    2
   135    28    27    2
   136    25    26    1
   137    15    14    2
   138    26    27    1
   139    35    34    1
   140    34    31    1
   141    14    13    1
   142    24    22    1
   143    23    22    1
   144    30    31    1
   145    31    32    1
   146    22    19    1
   147    13    16    1
   148    13    12    1
   149    16    17    1
   150    33    32    2
   151    12    10   am
   152     7     5    1
   153     4     3    2
   154     5     6    1
   155     5     2    1
   156    19    18    1
   157    19    20    1
   158    10     9    1
   159    10    11    2
   160     9     8    1
   161     3     8   am
   162     3     2    1
   163    20    21    2
   164     2     1    1
