@<TRIPOS>MOLECULE
tmp/3fltB00.pdb
 88 80 0 0 0
SMALL
GASTEIGER

@<TRIPOS>ATOM
      1  N          6.4540   55.2670  -17.4970 N.3    49  TYR49      -0.1241
      2  CA         7.6020   54.6030  -16.8930 C.3    49  TYR49       0.1605
      3  C          7.1140   53.6980  -15.7740 C.2    49  TYR49       0.2264
      4  O          6.3910   54.1380  -14.8770 O.2    49  TYR49      -0.2867
      5  CB         8.5980   55.6380  -16.3660 C.3    49  TYR49       0.0534
      6  CG         9.2680   56.4100  -17.4770 C.ar   49  TYR49      -0.0201
      7  CD1        8.7080   57.5770  -17.9910 C.ar   49  TYR49      -0.0009
      8  CD2       10.4260   55.9210  -18.0740 C.ar   49  TYR49      -0.0009
      9  CE1        9.2880   58.2290  -19.0780 C.ar   49  TYR49       0.0417
     10  CE2       11.0100   56.5600  -19.1550 C.ar   49  TYR49       0.0417
     11  CZ        10.4420   57.7070  -19.6550 C.ar   49  TYR49       0.1957
     12  OH        11.0310   58.3060  -20.7420 O.3    49  TYR49      -0.2866
     13  N         19.8510   60.1270  -11.8070 N.3    59  ASP59      -0.1225
     14  CA        18.4460   59.8180  -11.5820 C.3    59  ASP59       0.1805
     15  C         17.8900   58.8710  -12.6400 C.2    59  ASP59       0.2597
     16  O         16.8150   58.2950  -12.4660 O.2    59  ASP59      -0.2718
     17  CB        17.6200   61.1200  -11.5300 C.3    59  ASP59       0.1424
     18  CG        17.7060   61.9420  -12.8240 C.2    59  ASP59       0.3668
     19  OD1       18.8310   62.1500  -13.3440 O.co2  59  ASP59      -0.2456
     20  OD2       16.6400   62.3930  -13.3090 O.co2  59  ASP59      -0.2456
     21  N         18.6280   58.7090  -13.7330 N.am   60  ASN60      -0.1974
     22  CA        18.2050   57.8300  -14.8100 C.3    60  ASN60       0.1688
     23  C         19.1620   56.6450  -14.9540 C.2    60  ASN60       0.2292
     24  O         19.6920   56.4020  -16.0410 O.2    60  ASN60      -0.2864
     25  CB        18.1400   58.6090  -16.1270 C.3    60  ASN60       0.1181
     26  CG        16.9690   59.5780  -16.1830 C.2    60  ASN60       0.2629
     27  OD1       16.3790   59.9080  -15.1610 O.2    60  ASN60      -0.2716
     28  ND2       16.6370   60.0440  -17.3840 N.am   60  ASN60      -0.0877
     29  N         15.5500   52.6950  -16.3240 N.3    63  ILE63      -0.1245
     30  CA        14.1160   52.9950  -16.4090 C.3    63  ILE63       0.1561
     31  C         13.4180   52.2050  -17.5090 C.2    63  ILE63       0.2260
     32  O         13.8230   52.2630  -18.6680 O.2    63  ILE63      -0.2867
     33  CB        13.8500   54.4990  -16.7160 C.3    63  ILE63       0.0252
     34  CG1       15.1440   55.3130  -16.5900 C.3    63  ILE63       0.0019
     35  CG2       12.7900   55.0380  -15.7720 C.3    63  ILE63       0.0019
     36  CD1       15.0190   56.7690  -17.0190 C.3    63  ILE63       0.0001
     37  N         16.0230   52.5310  -20.7180 N.3    79  GLN79      -0.1245
     38  CA        16.9830   53.6170  -20.7070 C.3    79  GLN79       0.1566
     39  C         18.0190   53.3250  -19.6270 C.2    79  GLN79       0.2260
     40  O         17.6640   53.0420  -18.4860 O.2    79  GLN79      -0.2867
     41  CB        16.2850   54.9450  -20.4250 C.3    79  GLN79       0.0367
     42  CG        17.2510   56.1110  -20.3400 C.3    79  GLN79       0.0905
     43  CD        16.5690   57.4410  -20.0700 C.2    79  GLN79       0.2608
     44  OE1       17.1810   58.3490  -19.5130 O.2    79  GLN79      -0.2717
     45  NE2       15.3060   57.5670  -20.4760 N.am   79  GLN79      -0.0878
     46  N         15.6550   56.6210  -24.6560 N.3    85  ASN85      -0.1240
     47  CA        14.8240   55.4300  -24.5030 C.3    85  ASN85       0.1653
     48  C         14.9360   54.5630  -25.7460 C.2    85  ASN85       0.2266
     49  O         14.6460   55.0150  -26.8470 O.2    85  ASN85      -0.2867
     50  CB        13.3560   55.8010  -24.2890 C.3    85  ASN85       0.1155
     51  CG        13.0920   56.3800  -22.9120 C.2    85  ASN85       0.2627
     52  OD1       13.4450   55.7800  -21.8930 O.2    85  ASN85      -0.2716
     53  ND2       12.4560   57.5470  -22.8710 N.am   85  ASN85      -0.0877
     54  N          8.4440   58.3360  -12.7100 N.3   145  GLU145     -0.1245
     55  CA         9.8340   58.4910  -13.1700 C.3   145  GLU145      0.1567
     56  C         10.5580   59.5160  -12.2850 C.2   145  GLU145      0.2260
     57  O         10.2220   60.7040  -12.2820 O.2   145  GLU145     -0.2867
     58  CB         9.8460   58.9520  -14.6320 C.3   145  GLU145      0.0388
     59  CG        11.1280   58.6570  -15.4030 C.3   145  GLU145      0.1160
     60  CD        12.2970   59.5310  -14.9920 C.2   145  GLU145      0.3649
     61  OE1       12.1680   60.7740  -15.0630 O.co2 145  GLU145     -0.2457
     62  OE2       13.3500   58.9750  -14.6070 O.co2 145  GLU145     -0.2457
     63  N         13.2750   62.1310  -10.8520 N.3   147  ASP147     -0.1239
     64  CA        14.2050   63.1190  -11.3730 C.3   147  ASP147      0.1674
     65  C         15.0230   63.5000  -10.1410 C.2   147  ASP147      0.2266
     66  O         15.9060   64.3610  -10.1790 O.2   147  ASP147     -0.2867
     67  CB        13.4590   64.3210  -11.9550 C.3   147  ASP147      0.1410
     68  CG        12.7080   63.9730  -13.2300 C.2   147  ASP147      0.3668
     69  OD1       13.3380   63.4650  -14.1790 O.co2 147  ASP147     -0.2456
     70  OD2       11.4820   64.2000  -13.2900 O.co2 147  ASP147     -0.2456
     71  N          6.9020   63.5790  -12.9060 N.3   154  GLU154     -0.1245
     72  CA         6.2350   64.3410  -13.9660 C.3   154  GLU154      0.1567
     73  C          5.0030   63.5280  -14.3630 C.2   154  GLU154      0.2260
     74  O          5.1190   62.3360  -14.6510 O.2   154  GLU154     -0.2867
     75  CB         7.1470   64.5010  -15.1930 C.3   154  GLU154      0.0388
     76  CG         8.4530   65.2670  -14.9440 C.3   154  GLU154      0.1160
     77  CD         9.3330   65.3880  -16.1930 C.2   154  GLU154      0.3649
     78  OE1       10.4770   65.8760  -16.0780 O.co2 154  GLU154     -0.2457
     79  OE2        8.8850   65.0000  -17.2930 O.co2 154  GLU154     -0.2457
     80  N          4.8540   61.3860  -17.5230 N.3   157  GLU157     -0.1245
     81  CA         5.8060   60.2770  -17.5340 C.3   157  GLU157      0.1567
     82  C          5.3750   59.1530  -16.5870 C.2   157  GLU157      0.2260
     83  O          6.0650   58.1400  -16.4520 O.2   157  GLU157     -0.2867
     84  CB         7.2160   60.7670  -17.1610 C.3   157  GLU157      0.0388
     85  CG         7.7190   61.9160  -18.0260 C.3   157  GLU157      0.1160
     86  CD         9.1960   62.2290  -17.8260 C.2   157  GLU157      0.3649
     87  OE1        9.6370   62.3470  -16.6630 O.co2 157  GLU157     -0.2457
     88  OE2        9.9160   62.3710  -18.8390 O.co2 157  GLU157     -0.2457
@<TRIPOS>BOND
     1    49    48    2
     2    48    47    1
     3    46    47    1
     4    47    50    1
     5    50    51    1
     6    51    53   am
     7    51    52    2
     8    12    11    1
     9    37    38    1
    10    38    41    1
    11    38    39    1
    12    45    43   am
    13    41    42    1
    14    42    43    1
    15    43    44    2
    16    11    10   ar
    17    11     9   ar
    18    39    40    2
    19    10     8   ar
    20     9     7   ar
    21    88    86   ar
    22    32    31    2
    23     8     6   ar
    24    85    86    1
    25    85    84    1
    26     7     6   ar
    27    86    87   ar
    28    81    80    1
    29    81    84    1
    30    81    82    1
    31    31    30    1
    32     1     2    1
    33     6     5    1
    34    28    26   am
    35    79    77   ar
    36    36    34    1
    37     2     5    1
    38     2     3    1
    39    33    34    1
    40    33    30    1
    41    33    35    1
    42    82    83    2
    43    30    29    1
    44    77    78   ar
    45    77    76    1
    46    26    25    1
    47    26    27    2
    48    25    22    1
    49    24    23    2
    50     3     4    2
    51    59    60    1
    52    59    58    1
    53    75    76    1
    54    75    72    1
    55    61    60   ar
    56    60    62   ar
    57    23    22    1
    58    22    21    1
    59    74    73    2
    60    58    55    1
    61    73    72    1
    62    69    68   ar
    63    72    71    1
    64    21    15   am
    65    19    18   ar
    66    20    18   ar
    67    70    68   ar
    68    68    67    1
    69    55    54    1
    70    55    56    1
    71    18    17    1
    72    15    16    2
    73    15    14    1
    74    56    57    2
    75    67    64    1
    76    13    14    1
    77    14    17    1
    78    64    63    1
    79    64    65    1
    80    66    65    2
