@<TRIPOS>MOLECULE
tmp/3flvB00.pdb
 112 110 0 0 0
SMALL
GASTEIGER

@<TRIPOS>ATOM
      1  N         -4.0730   32.2440   19.6410 N.3    11  VAL11      -0.1245
      2  CA        -3.3460   33.4830   19.3360 C.3    11  VAL11       0.1561
      3  C         -3.6590   34.5100   20.3940 C.2    11  VAL11       0.2260
      4  O         -2.7500   35.0560   21.0110 O.2    11  VAL11      -0.2867
      5  CB        -3.7160   33.9750   17.9460 C.3    11  VAL11       0.0252
      6  CG1       -3.2260   35.4060   17.7130 C.3    11  VAL11       0.0019
      7  CG2       -3.1040   33.0450   16.8850 C.3    11  VAL11       0.0019
      8  N         -2.2570   33.6180   23.6430 N.3    14  ILE14      -0.1231
      9  CA        -0.8070   33.8550   23.6460 C.3    14  ILE14       0.1692
     10  C         -0.4850   35.3450   23.6780 C.2    14  ILE14       0.2591
     11  O          0.4320   35.7890   24.3940 O.2    14  ILE14      -0.2718
     12  CB        -0.1560   33.1060   22.4530 C.3    14  ILE14       0.0266
     13  CG1        0.0090   31.6270   22.8390 C.3    14  ILE14       0.0019
     14  CG2        1.1870   33.7860   22.0640 C.3    14  ILE14       0.0020
     15  CD1       -0.0960   30.6340   21.7120 C.3    14  ILE14       0.0001
     16  N         -1.2830   36.1480   22.9790 N.am   15  GLN15      -0.1979
     17  CA        -1.0950   37.6090   23.0300 C.3    15  GLN15       0.1601
     18  C         -1.4650   38.2470   24.3670 C.2    15  GLN15       0.2287
     19  O         -1.0390   39.3730   24.6550 O.2    15  GLN15      -0.2864
     20  CB        -1.7890   38.2760   21.8570 C.3    15  GLN15       0.0394
     21  CG        -1.0770   37.8940   20.5720 C.3    15  GLN15       0.0908
     22  CD        -1.8560   38.1710   19.3280 C.2    15  GLN15       0.2608
     23  OE1       -3.0310   38.5320   19.3800 O.2    15  GLN15      -0.2717
     24  NE2       -1.1980   38.0090   18.1770 N.am   15  GLN15      -0.0878
     25  N          4.1590   38.5970   30.1840 N.3    19  LYS19      -0.1245
     26  CA         5.5490   38.2160   30.3730 C.3    19  LYS19       0.1561
     27  C          5.9060   38.5140   31.8250 C.2    19  LYS19       0.2260
     28  O          5.8180   39.6660   32.2630 O.2    19  LYS19      -0.2867
     29  CB         6.4780   39.0050   29.4560 C.3    19  LYS19       0.0271
     30  CG         6.4950   38.5680   28.0110 C.3    19  LYS19       0.0035
     31  CD         7.6090   39.3030   27.2620 C.3    19  LYS19       0.0206
     32  CE         7.6530   38.9610   25.7660 C.3    19  LYS19       0.1093
     33  NZ         8.1090   37.5660   25.4710 N.3    19  LYS19      -0.1314
     34  N          6.0650   27.7220   17.8980 N.3    33  PHE33      -0.1227
     35  CA         4.8910   28.5740   17.7070 C.3    33  PHE33       0.1736
     36  C          5.1090   29.7480   16.7400 C.2    33  PHE33       0.2595
     37  O          4.2420   30.0750   15.9390 O.2    33  PHE33      -0.2718
     38  CB         4.4230   29.1610   19.0340 C.3    33  PHE33       0.0547
     39  CG         3.7420   28.1700   19.9320 C.ar   33  PHE33      -0.0202
     40  CD1        2.4100   27.8610   19.7430 C.ar   33  PHE33      -0.0042
     41  CD2        4.4300   27.5640   20.9680 C.ar   33  PHE33      -0.0042
     42  CE1        1.7450   26.9760   20.5810 C.ar   33  PHE33      -0.0003
     43  CE2        3.7810   26.6540   21.8120 C.ar   33  PHE33      -0.0003
     44  CZ         2.4320   26.3540   21.6030 C.ar   33  PHE33      -0.0000
     45  N          6.2720   30.3960   16.7940 N.am   34  TYR34      -0.1976
     46  CA         6.5050   31.5510   15.9180 C.3    34  TYR34       0.1639
     47  C          6.2970   31.1580   14.4710 C.2    34  TYR34       0.2290
     48  O          5.6260   31.8590   13.6900 O.2    34  TYR34      -0.2864
     49  CB         7.9500   32.0760   16.0850 C.3    34  TYR34       0.0560
     50  CG         8.3270   33.1450   15.0380 C.ar   34  TYR34      -0.0198
     51  CD1        7.9020   34.4660   15.1780 C.ar   34  TYR34      -0.0009
     52  CD2        9.0910   32.8190   13.9300 C.ar   34  TYR34      -0.0009
     53  CE1        8.2440   35.4280   14.2250 C.ar   34  TYR34       0.0417
     54  CE2        9.4360   33.7790   12.9690 C.ar   34  TYR34       0.0417
     55  CZ         9.0140   35.0690   13.1250 C.ar   34  TYR34       0.1957
     56  OH         9.3820   35.9970   12.1830 O.3    34  TYR34      -0.2866
     57  N          2.7040   30.6140   13.4740 N.3    37  TYR37      -0.1227
     58  CA         1.9850   31.8270   13.4620 C.3    37  TYR37       0.1736
     59  C          2.2090   32.5880   12.1940 C.2    37  TYR37       0.2595
     60  O          1.2380   33.0610   11.5650 O.2    37  TYR37      -0.2718
     61  CB         2.3710   32.6550   14.6300 C.3    37  TYR37       0.0548
     62  CG         1.6690   33.9520   14.6080 C.ar   37  TYR37      -0.0200
     63  CD1        0.3670   34.0590   15.0720 C.ar   37  TYR37      -0.0009
     64  CD2        2.2770   35.0790   14.0490 C.ar   37  TYR37      -0.0009
     65  CE1       -0.2910   35.2450   15.0410 C.ar   37  TYR37       0.0417
     66  CE2        1.6260   36.2870   14.0190 C.ar   37  TYR37       0.0417
     67  CZ         0.3350   36.3710   14.5080 C.ar   37  TYR37       0.1957
     68  OH        -0.3350   37.5770   14.4800 O.3    37  TYR37      -0.2866
     69  N          3.4830   32.7170   11.8100 N.am   38  LYS38      -0.1980
     70  CA         3.8250   33.4180   10.5730 C.3    38  LYS38       0.1596
     71  C          3.3020   32.6810    9.3570 C.2    38  LYS38       0.2287
     72  O          2.7180   33.2990    8.4560 O.2    38  LYS38      -0.2864
     73  CB         5.3480   33.6180   10.4170 C.3    38  LYS38       0.0298
     74  CG         5.9760   34.4700   11.4610 C.3    38  LYS38       0.0038
     75  CD         5.3480   35.8720   11.5560 C.3    38  LYS38       0.0206
     76  CE         5.7930   36.8250   10.4570 C.3    38  LYS38       0.1093
     77  NZ         5.5690   38.2240   10.9170 N.3    38  LYS38      -0.1314
     78  N         14.7050   32.6830   13.9700 N.3    60  LYS60      -0.1245
     79  CA        13.3280   32.7490   13.5550 C.3    60  LYS60       0.1561
     80  C         13.1640   32.4700   12.0820 C.2    60  LYS60       0.2260
     81  O         12.3710   31.5990   11.6680 O.2    60  LYS60      -0.2867
     82  CB        12.8090   34.1150   13.7850 C.3    60  LYS60       0.0271
     83  CG        12.6040   34.4790   15.2360 C.3    60  LYS60       0.0035
     84  CD        12.5200   35.9840   15.4670 C.3    60  LYS60       0.0206
     85  CE        11.2960   36.6860   14.9900 C.3    60  LYS60       0.1093
     86  NZ        11.1980   38.0810   15.5090 N.3    60  LYS60      -0.1314
     87  N         10.7150   29.7220   10.4240 N.3    64  TRP64      -0.1241
     88  CA         9.6180   30.0010    9.5100 C.3    64  TRP64       0.1605
     89  C          9.8680   29.3940    8.1390 C.2    64  TRP64       0.2264
     90  O          8.9670   28.7240    7.5700 O.2    64  TRP64      -0.2867
     91  CB         9.3810   31.5050    9.4620 C.3    64  TRP64       0.0550
     92  CG         8.2850   31.9790    8.5370 C.ar   64  TRP64       0.0003
     93  CD1        7.3420   31.2150    7.8860 C.ar   64  TRP64       0.0946
     94  CD2        7.9820   33.3460    8.2100 C.ar   64  TRP64       0.0152
     95  NE1        6.5090   32.0200    7.1520 N.ar   64  TRP64      -0.2442
     96  CE2        6.8730   33.3290    7.3230 C.ar   64  TRP64       0.0810
     97  CE3        8.5540   34.5800    8.5480 C.ar   64  TRP64       0.0012
     98  CZ2        6.3160   34.5090    6.7860 C.ar   64  TRP64       0.0191
     99  CZ3        7.9930   35.7600    8.0070 C.ar   64  TRP64       0.0001
    100  CH2        6.8910   35.7080    7.1410 C.ar   64  TRP64       0.0015
    101  N         -0.3000   24.9100   15.1300 N.3    79  TYR79      -0.1241
    102  CA        -0.2230   25.8350   16.2020 C.3    79  TYR79       0.1605
    103  C         -1.0770   25.3560   17.3610 C.2    79  TYR79       0.2264
    104  O         -0.6130   25.2890   18.4890 O.2    79  TYR79      -0.2867
    105  CB        -0.6710   27.2100   15.7090 C.3    79  TYR79       0.0534
    106  CG        -0.3800   28.3970   16.5950 C.ar   79  TYR79      -0.0201
    107  CD1        0.8000   29.1580   16.4350 C.ar   79  TYR79      -0.0009
    108  CD2       -1.2980   28.8310   17.5290 C.ar   79  TYR79      -0.0009
    109  CE1        1.0420   30.2750   17.2180 C.ar   79  TYR79       0.0417
    110  CE2       -1.0550   29.9500   18.3190 C.ar   79  TYR79       0.0417
    111  CZ         0.1320   30.6690   18.1600 C.ar   79  TYR79       0.1957
    112  OH         0.3420   31.7780   18.9570 O.3    79  TYR79      -0.2866
@<TRIPOS>BOND
     1    98   100   ar
     2    98    96   ar
     3   100    99   ar
     4    95    96   ar
     5    95    93   ar
     6    96    94   ar
     7    90    89    2
     8    93    92   ar
     9    99    97   ar
    10    89    88    1
    11    94    92   ar
    12    94    97   ar
    13    72    71    2
    14    92    91    1
    15    71    70    1
    16    91    88    1
    17    88    87    1
    18    73    70    1
    19    73    74    1
    20    76    77    1
    21    76    75    1
    22    70    69    1
    23    74    75    1
    24    60    59    2
    25    81    80    2
    26    69    59   am
    27    80    79    1
    28    56    55    1
    29    59    58    1
    30    54    55   ar
    31    54    52   ar
    32    55    53   ar
    33    58    57    1
    34    58    61    1
    35    79    82    1
    36    79    78    1
    37    48    47    2
    38    82    83    1
    39    52    50   ar
    40    66    64   ar
    41    66    67   ar
    42    64    62   ar
    43    53    51   ar
    44    47    46    1
    45    68    67    1
    46    67    65   ar
    47    62    61    1
    48    62    63   ar
    49    85    84    1
    50    85    86    1
    51    50    51   ar
    52    50    49    1
    53    65    63   ar
    54   101   102    1
    55    83    84    1
    56   105   102    1
    57   105   106    1
    58    46    49    1
    59    46    45    1
    60    37    36    2
    61   102   103    1
    62   107   106   ar
    63   107   109   ar
    64   106   108   ar
    65    36    45   am
    66    36    35    1
    67     7     5    1
    68   109   111   ar
    69   103   104    2
    70   108   110   ar
    71    35    34    1
    72    35    38    1
    73     6     5    1
    74     5     2    1
    75   111   110   ar
    76   111   112    1
    77    24    22   am
    78    38    39    1
    79    22    23    2
    80    22    21    1
    81     2     1    1
    82     2     3    1
    83    40    39   ar
    84    40    42   ar
    85    39    41   ar
    86     3     4    2
    87    21    20    1
    88    42    44   ar
    89    41    43   ar
    90    44    43   ar
    91    15    13    1
    92    20    17    1
    93    14    12    1
    94    12    13    1
    95    12     9    1
    96    16    17    1
    97    16    10   am
    98    17    18    1
    99     8     9    1
   100     9    10    1
   101    10    11    2
   102    18    19    2
   103    33    32    1
   104    32    31    1
   105    31    30    1
   106    30    29    1
   107    29    26    1
   108    25    26    1
   109    26    27    1
   110    27    28    2
