@<TRIPOS>MOLECULE
tmp/3flvA00.pdb
 112 109 0 0 0
SMALL
GASTEIGER

@<TRIPOS>ATOM
      1  N         34.9580    6.7630   12.4430 N.3    11  VAL11      -0.1245
      2  CA        34.2410    7.0830   13.7070 C.3    11  VAL11       0.1561
      3  C         34.7130    6.0860   14.7650 C.2    11  VAL11       0.2260
      4  O         35.0270    6.4250   15.9250 O.2    11  VAL11      -0.2867
      5  CB        32.7190    7.1030   13.5120 C.3    11  VAL11       0.0252
      6  CG1       31.9470    7.1140   14.8900 C.3    11  VAL11       0.0019
      7  CG2       32.2790    8.3190   12.6790 C.3    11  VAL11       0.0019
      8  N         36.6710    6.9300   18.2850 N.3    15  GLN15      -0.1245
      9  CA        36.0250    6.4900   19.4980 C.3    15  GLN15       0.1566
     10  C         36.9760    5.6610   20.3480 C.2    15  GLN15       0.2260
     11  O         37.0290    5.8040   21.5980 O.2    15  GLN15      -0.2867
     12  CB        34.7920    5.6570   19.1340 C.3    15  GLN15       0.0367
     13  CG        33.5730    6.4950   18.7600 C.3    15  GLN15       0.0905
     14  CD        32.3360    5.6630   18.4210 C.2    15  GLN15       0.2608
     15  OE1       32.4320    4.5060   17.9730 O.2    15  GLN15      -0.2717
     16  NE2       31.1510    6.2730   18.6060 N.am   15  GLN15      -0.0878
     17  N         38.2830   17.0880   18.9510 N.3    30  MET30      -0.1245
     18  CA        37.0540   16.3480   19.2080 C.3    30  MET30       0.1570
     19  C         35.8080   17.1640   18.8240 C.2    30  MET30       0.2261
     20  O         34.8150   16.6050   18.3530 O.2    30  MET30      -0.2867
     21  CB        36.9780   15.8530   20.6430 C.3    30  MET30       0.0387
     22  CG        37.9470   14.6810   20.9430 C.3    30  MET30       0.0595
     23  SD        37.9710   13.3770   19.7160 S.3    30  MET30      -0.1393
     24  CE        36.2890   12.8200   19.8020 C.3    30  MET30       0.0692
     25  N         35.6380   16.9360   15.0380 N.3    33  PHE33      -0.1227
     26  CA        34.9910   15.6710   14.7590 C.3    33  PHE33       0.1736
     27  C         33.5040   15.6440   14.9940 C.2    33  PHE33       0.2595
     28  O         32.7100   15.1300   14.1770 O.2    33  PHE33      -0.2718
     29  CB        35.6770   14.5060   15.4990 C.3    33  PHE33       0.0547
     30  CG        37.0220   14.1020   14.8970 C.ar   33  PHE33      -0.0202
     31  CD1       37.0990   13.6520   13.6000 C.ar   33  PHE33      -0.0042
     32  CD2       38.1920   14.1710   15.6300 C.ar   33  PHE33      -0.0042
     33  CE1       38.3350   13.3330   13.0220 C.ar   33  PHE33      -0.0003
     34  CE2       39.4470   13.8100   15.0410 C.ar   33  PHE33      -0.0003
     35  CZ        39.4710   13.3810   13.7320 C.ar   33  PHE33      -0.0000
     36  N         33.0880   16.1880   16.1220 N.am   34  TYR34      -0.1976
     37  CA        31.6300   16.2960   16.4030 C.3    34  TYR34       0.1639
     38  C         30.9000   17.0830   15.3330 C.2    34  TYR34       0.2290
     39  O         29.8310   16.6440   14.8660 O.2    34  TYR34      -0.2864
     40  CB        31.4480   16.9570   17.7790 C.3    34  TYR34       0.0560
     41  CG        30.0410   17.4010   18.0600 C.ar   34  TYR34      -0.0198
     42  CD1       29.0980   16.5260   18.5570 C.ar   34  TYR34      -0.0009
     43  CD2       29.6590   18.7020   17.8420 C.ar   34  TYR34      -0.0009
     44  CE1       27.7920   16.9570   18.8220 C.ar   34  TYR34       0.0417
     45  CE2       28.3670   19.1480   18.0820 C.ar   34  TYR34       0.0417
     46  CZ        27.4410   18.2870   18.5780 C.ar   34  TYR34       0.1957
     47  OH        26.1860   18.8010   18.8160 O.3    34  TYR34      -0.2866
     48  N         30.4980   14.9170   12.2360 N.3    37  TYR37      -0.1227
     49  CA        29.5970   13.8510   12.5690 C.3    37  TYR37       0.1736
     50  C         28.1440   14.2900   12.4970 C.2    37  TYR37       0.2595
     51  O         27.3470   13.6630   11.8360 O.2    37  TYR37      -0.2718
     52  CB        29.9140   13.3130   13.9770 C.3    37  TYR37       0.0548
     53  CG        29.1120   12.1230   14.4110 C.ar   37  TYR37      -0.0200
     54  CD1       29.4640   10.8430   13.9920 C.ar   37  TYR37      -0.0009
     55  CD2       27.9990   12.2630   15.1870 C.ar   37  TYR37      -0.0009
     56  CE1       28.7770    9.7600   14.4040 C.ar   37  TYR37       0.0417
     57  CE2       27.2820   11.1750   15.5780 C.ar   37  TYR37       0.0417
     58  CZ        27.6830    9.9250   15.1850 C.ar   37  TYR37       0.1957
     59  OH        26.9660    8.8230   15.6190 O.3    37  TYR37      -0.2866
     60  N         27.8350   15.4190   13.1320 N.am   38  LYS38      -0.1980
     61  CA        26.4980   16.0080   13.0900 C.3    38  LYS38       0.1596
     62  C         26.1220   16.3680   11.6480 C.2    38  LYS38       0.2287
     63  O         25.0390   16.0770   11.1940 O.2    38  LYS38      -0.2864
     64  CB        26.4220   17.2330   14.0080 C.3    38  LYS38       0.0298
     65  CG        26.5660   16.9700   15.5090 C.3    38  LYS38       0.0038
     66  CD        25.6040   15.9270   16.0850 C.3    38  LYS38       0.0206
     67  CE        24.3990   16.5680   16.6200 C.3    38  LYS38       0.1093
     68  NZ        23.4270   15.5810   17.3020 N.3    38  LYS38      -0.1314
     69  N         22.9290   14.3890   10.5200 N.3    42  GLU42      -0.1245
     70  CA        21.7440   15.2050   10.7080 C.3    42  GLU42       0.1567
     71  C         21.6140   16.3820    9.7560 C.2    42  GLU42       0.2260
     72  O         20.5620   16.9900    9.6630 O.2    42  GLU42      -0.2867
     73  CB        21.7070   15.7020   12.1300 C.3    42  GLU42       0.0388
     74  CG        21.6130   14.5710   13.1200 C.3    42  GLU42       0.1160
     75  CD        21.5020   15.0410   14.5370 C.2    42  GLU42       0.3649
     76  OE1       20.7440   15.9950   14.8040 O.co2  42  GLU42      -0.2457
     77  OE2       22.1720   14.4450   15.3990 O.co2  42  GLU42      -0.2457
     78  N         29.9280   23.0990   21.2230 N.3    60  LYS60      -0.1245
     79  CA        29.3220   22.1680   20.3030 C.3    60  LYS60       0.1561
     80  C         28.5790   22.8830   19.1760 C.2    60  LYS60       0.2260
     81  O         28.8300   22.6480   17.9680 O.2    60  LYS60      -0.2867
     82  CB        28.4390   21.1820   21.0550 C.3    60  LYS60       0.0271
     83  CG        29.2410   20.2150   21.9020 C.3    60  LYS60       0.0035
     84  CD        28.4110   19.4620   22.8170 C.3    60  LYS60       0.0206
     85  CE        27.5610   18.5050   22.1090 C.3    60  LYS60       0.1093
     86  NZ        26.4600   18.0600   23.0690 N.3    60  LYS60      -0.1314
     87  N         29.4270   23.0340   15.0650 N.3    64  TRP64      -0.1241
     88  CA        28.4700   22.5110   14.0770 C.3    64  TRP64       0.1605
     89  C         27.9470   23.6460   13.1580 C.2    64  TRP64       0.2264
     90  O         28.0110   23.5370   11.9050 O.2    64  TRP64      -0.2867
     91  CB        27.3270   21.8170   14.7820 C.3    64  TRP64       0.0550
     92  CG        26.3540   21.1330   13.8850 C.ar   64  TRP64       0.0003
     93  CD1       26.4730   20.8970   12.5140 C.ar   64  TRP64       0.0946
     94  CD2       25.0950   20.6040   14.2690 C.ar   64  TRP64       0.0152
     95  NE1       25.3620   20.2620   12.0760 N.ar   64  TRP64      -0.2442
     96  CE2       24.5230   20.0150   13.1260 C.ar   64  TRP64       0.0810
     97  CE3       24.4150   20.5130   15.4850 C.ar   64  TRP64       0.0012
     98  CZ2       23.2190   19.4490   13.1340 C.ar   64  TRP64       0.0191
     99  CZ3       23.1570   19.9170   15.5150 C.ar   64  TRP64       0.0001
    100  CH2       22.5700   19.3860   14.3370 C.ar   64  TRP64       0.0015
    101  N         35.5000   14.2710    7.8960 N.3    79  TYR79      -0.1241
    102  CA        35.7330   13.4770    9.0750 C.3    79  TYR79       0.1605
    103  C         36.8350   12.4680    8.8180 C.2    79  TYR79       0.2264
    104  O         37.7680   12.4080    9.6270 O.2    79  TYR79      -0.2867
    105  CB        34.4700   12.7710    9.5110 C.3    79  TYR79       0.0534
    106  CG        34.5630   12.1320   10.8880 C.ar   79  TYR79      -0.0201
    107  CD1       33.8110   12.6340   11.9730 C.ar   79  TYR79      -0.0009
    108  CD2       35.3940   11.0090   11.1320 C.ar   79  TYR79      -0.0009
    109  CE1       33.8790   12.0550   13.2180 C.ar   79  TYR79       0.0417
    110  CE2       35.5000   10.4720   12.3730 C.ar   79  TYR79       0.0417
    111  CZ        34.7100   10.9790   13.4410 C.ar   79  TYR79       0.1957
    112  OH        34.8010   10.4360   14.7100 O.3    79  TYR79      -0.2866
@<TRIPOS>BOND
     1   101   102    1
     2   103   102    1
     3   103   104    2
     4   102   105    1
     5   105   106    1
     6    72    71    2
     7    71    70    1
     8    69    70    1
     9    70    73    1
    10   106   108   ar
    11   106   107   ar
    12   108   110   ar
    13    63    62    2
    14    62    61    1
    15    51    50    2
    16    90    89    2
    17   107   109   ar
    18    95    93   ar
    19    95    96   ar
    20    73    74    1
    21    48    49    1
    22   110   111   ar
    23     1     2    1
    24    50    49    1
    25    50    60   am
    26    93    92   ar
    27    49    52    1
    28     7     5    1
    29    33    31   ar
    30    33    35   ar
    31    61    60    1
    32    61    64    1
    33    74    75    1
    34    96    98   ar
    35    96    94   ar
    36    98   100   ar
    37    89    88    1
    38   109   111   ar
    39   111   112    1
    40     5     2    1
    41     5     6    1
    42    31    30   ar
    43     2     3    1
    44    35    34   ar
    45    92    94   ar
    46    92    91    1
    47    52    53    1
    48    54    56   ar
    49    54    53   ar
    50    64    65    1
    51    88    91    1
    52    88    87    1
    53    28    27    2
    54    94    97   ar
    55   100    99   ar
    56    56    58   ar
    57    53    55   ar
    58    75    76   ar
    59    75    77   ar
    60    26    27    1
    61    26    25    1
    62    26    29    1
    63     3     4    2
    64    39    38    2
    65    30    29    1
    66    30    32   ar
    67    27    36   am
    68    34    32   ar
    69    58    57   ar
    70    58    59    1
    71    55    57   ar
    72    38    37    1
    73    97    99   ar
    74    65    66    1
    75    66    67    1
    76    36    37    1
    77    37    40    1
    78    67    68    1
    79    40    41    1
    80    43    41   ar
    81    43    45   ar
    82    81    80    2
    83    15    14    2
    84    41    42   ar
    85    45    46   ar
    86     8     9    1
    87    20    19    2
    88    14    16   am
    89    14    13    1
    90    42    44   ar
    91    46    47    1
    92    46    44   ar
    93    13    12    1
    94    19    18    1
    95    17    18    1
    96    12     9    1
    97    80    79    1
    98    18    21    1
    99     9    10    1
   100    23    24    1
   101    23    22    1
   102    79    82    1
   103    79    78    1
   104    10    11    2
   105    21    22    1
   106    82    83    1
   107    83    84    1
   108    85    84    1
   109    85    86    1
