@<TRIPOS>MOLECULE
tmp/3flwA00.pdb
 184 173 0 0 0
SMALL
GASTEIGER

@<TRIPOS>ATOM
      1  N         23.9450   10.1280   40.2020 N.3    26  VAL26      -0.1231
      2  CA        24.7900    9.9900   39.0220 C.3    26  VAL26       0.1692
      3  C         25.2180   11.3630   38.4950 C.2    26  VAL26       0.2593
      4  O         26.0280   11.4650   37.5680 O.2    26  VAL26      -0.2718
      5  CB        24.0840    9.1170   37.9440 C.3    26  VAL26       0.0266
      6  CG1       24.5740    9.4200   36.5340 C.3    26  VAL26       0.0020
      7  CG2       24.2860    7.6490   38.2670 C.3    26  VAL26       0.0020
      8  N         24.6880   12.4140   39.1110 N.am   27  GLY27      -0.1942
      9  CA        25.0920   13.7750   38.7870 C.3    27  GLY27       0.2014
     10  C         23.9600   14.6330   38.2550 C.2    27  GLY27       0.2640
     11  O         22.8010   14.4840   38.6590 O.2    27  GLY27      -0.2714
     12  N         24.3030   15.5370   37.3470 N.am   28  SER28      -0.1935
     13  CA        23.3260   16.4730   36.8120 C.3    28  SER28       0.2055
     14  C         23.0260   16.2190   35.3380 C.2    28  SER28       0.2644
     15  O         23.8690   15.7030   34.5900 O.2    28  SER28      -0.2714
     16  CB        23.7840   17.9180   37.0370 C.3    28  SER28       0.2130
     17  OG        24.9810   18.1850   36.3350 O.3    28  SER28      -0.2179
     18  N         21.8030   16.5640   34.9500 N.am   29  GLY29      -0.1939
     19  CA        21.3790   16.5640   33.5580 C.3    29  GLY29       0.2014
     20  C         20.6860   17.8800   33.2660 C.2    29  GLY29       0.2638
     21  O         20.8150   18.8360   34.0350 O.2    29  GLY29      -0.2714
     22  N         19.9470   17.9290   32.1590 N.am   30  ALA30      -0.1977
     23  CA        19.2170   19.1360   31.7750 C.3    30  ALA30       0.1597
     24  C         18.0740   19.4140   32.7480 C.2    30  ALA30       0.2287
     25  O         17.0930   18.6590   32.8110 O.2    30  ALA30      -0.2864
     26  CB        18.7010   19.0310   30.3300 C.3    30  ALA30       0.0319
     27  N         20.2110   13.5000   38.2750 N.3    34  VAL34      -0.1245
     28  CA        19.9950   12.1570   37.7460 C.3    34  VAL34       0.1561
     29  C         20.4380   11.0750   38.7360 C.2    34  VAL34       0.2260
     30  O         21.4900   11.1940   39.3730 O.2    34  VAL34      -0.2867
     31  CB        20.7060   11.9890   36.3780 C.3    34  VAL34       0.0252
     32  CG1       20.5030   10.5940   35.8040 C.3    34  VAL34       0.0019
     33  CG2       20.2010   13.0470   35.3890 C.3    34  VAL34       0.0019
     34  N         18.2500    5.5170   34.0550 N.3    47  ALA47      -0.1245
     35  CA        18.5490    6.8240   34.6170 C.3    47  ALA47       0.1562
     36  C         17.2390    7.5410   34.9340 C.2    47  ALA47       0.2260
     37  O         16.3630    7.6680   34.0750 O.2    47  ALA47      -0.2867
     38  CB        19.4000    7.6420   33.6470 C.3    47  ALA47       0.0290
     39  N         15.6080   11.0190   36.1970 N.3    49  LYS49      -0.1245
     40  CA        15.7860   12.4470   36.4190 C.3    49  LYS49       0.1561
     41  C         14.5810   13.0580   37.1070 C.2    49  LYS49       0.2260
     42  O         13.4600   12.9950   36.6030 O.2    49  LYS49      -0.2867
     43  CB        16.1070   13.1900   35.1150 C.3    49  LYS49       0.0271
     44  CG        16.3710   14.6940   35.3060 C.3    49  LYS49       0.0035
     45  CD        17.0410   15.3250   34.0880 C.3    49  LYS49       0.0206
     46  CE        16.0930   15.4370   32.9100 C.3    49  LYS49       0.1093
     47  NZ        16.6700   16.2530   31.7940 N.3    49  LYS49      -0.1314
     48  N         10.3520   19.6240   27.4750 N.3    67  GLU67      -0.1245
     49  CA        11.1560   18.4110   27.6420 C.3    67  GLU67       0.1567
     50  C         10.2980   17.1430   27.6430 C.2    67  GLU67       0.2260
     51  O         10.6400   16.1520   26.9870 O.2    67  GLU67      -0.2867
     52  CB        12.0280   18.4640   28.9020 C.3    67  GLU67       0.0388
     53  CG        12.8440   17.1760   29.0630 C.3    67  GLU67       0.1160
     54  CD        13.9200   17.2170   30.1290 C.2    67  GLU67       0.3649
     55  OE1       13.7980   17.9800   31.1080 O.co2  67  GLU67      -0.2457
     56  OE2       14.8840   16.4400   29.9860 O.co2  67  GLU67      -0.2457
     57  N         10.6450   14.1970   24.7440 N.3    71  LEU71      -0.1245
     58  CA        11.0030   12.8380   25.1490 C.3    71  LEU71       0.1561
     59  C          9.9200   11.8020   24.8380 C.2    71  LEU71       0.2260
     60  O         10.2370   10.6670   24.4740 O.2    71  LEU71      -0.2867
     61  CB        11.3860   12.8030   26.6360 C.3    71  LEU71       0.0270
     62  CG        12.7080   13.4610   27.0540 C.3    71  LEU71       0.0019
     63  CD1       12.7750   13.6040   28.5660 C.3    71  LEU71       0.0001
     64  CD2       13.9350   12.6950   26.5440 C.3    71  LEU71       0.0001
     65  N         17.7710    9.3940   22.6430 N.3    80  ILE80      -0.1231
     66  CA        17.2450    9.1480   23.9850 C.3    80  ILE80       0.1692
     67  C         15.7110    9.0990   23.9740 C.2    80  ILE80       0.2593
     68  O         15.0470    9.9890   23.4320 O.2    80  ILE80      -0.2718
     69  CB        17.7610   10.1810   25.0260 C.3    80  ILE80       0.0266
     70  CG1       17.4350    9.7180   26.4450 C.3    80  ILE80       0.0019
     71  CG2       17.1960   11.5770   24.7750 C.3    80  ILE80       0.0020
     72  CD1       18.1170   10.5190   27.5050 C.3    80  ILE80       0.0001
     73  N         15.1660    8.0460   24.5700 N.am   81  GLY81      -0.1942
     74  CA        13.7240    7.8580   24.6450 C.3    81  GLY81       0.2014
     75  C         13.2190    7.7890   26.0720 C.2    81  GLY81       0.2638
     76  O         14.0000    7.6590   27.0180 O.2    81  GLY81      -0.2714
     77  N         11.9040    7.8720   26.2230 N.am   82  LEU82      -0.1977
     78  CA        11.2910    7.8350   27.5410 C.3    82  LEU82       0.1596
     79  C         10.7650    6.4380   27.8550 C.2    82  LEU82       0.2287
     80  O          9.8300    5.9520   27.2130 O.2    82  LEU82      -0.2864
     81  CB        10.1690    8.8700   27.6260 C.3    82  LEU82       0.0297
     82  CG         9.6850    9.3570   28.9870 C.3    82  LEU82       0.0022
     83  CD1       10.8200    9.9820   29.8100 C.3    82  LEU82       0.0001
     84  CD2        8.5650   10.3600   28.7610 C.3    82  LEU82       0.0001
     85  N         11.5600   11.6190   35.1650 N.3   100  LEU100     -0.1231
     86  CA        11.7440   11.0740   33.8210 C.3   100  LEU100      0.1693
     87  C         12.7170    9.9070   33.8600 C.2   100  LEU100      0.2592
     88  O         13.7430    9.9710   34.5400 O.2   100  LEU100     -0.2718
     89  CB        12.2370   12.1690   32.8650 C.3   100  LEU100      0.0284
     90  CG        11.4010   13.4530   32.8200 C.3   100  LEU100      0.0019
     91  CD1       12.2430   14.6370   32.3690 C.3   100  LEU100      0.0001
     92  CD2       10.1510   13.2840   31.9460 C.3   100  LEU100      0.0001
     93  N         12.3800    8.8340   33.1450 N.am  101  VAL101     -0.1966
     94  CA        13.1750    7.6100   33.1620 C.3   101  VAL101      0.1727
     95  C         13.6240    7.2630   31.7470 C.2   101  VAL101      0.2617
     96  O         12.8200    7.2550   30.8130 O.2   101  VAL101     -0.2715
     97  CB        12.4090    6.3860   33.7930 C.3   101  VAL101      0.0290
     98  CG1       13.2960    5.1390   33.8390 C.3   101  VAL101      0.0023
     99  CG2       11.8870    6.7030   35.1920 C.3   101  VAL101      0.0023
    100  N         14.9160    6.9920   31.6020 N.am  102  THR102     -0.1937
    101  CA        15.4790    6.5260   30.3390 C.3   102  THR102      0.2028
    102  C         16.5370    5.4500   30.5970 C.2   102  THR102      0.2642
    103  O         16.8230    5.1240   31.7470 O.2   102  THR102     -0.2714
    104  CB        16.0840    7.6900   29.5060 C.3   102  THR102      0.1808
    105  OG1       16.3940    7.2120   28.1930 O.3   102  THR102     -0.2208
    106  CG2       17.3520    8.2370   30.1550 C.3   102  THR102      0.0379
    107  N         17.1030    4.8930   29.5290 N.am  103  HIS103     -0.1959
    108  CA        18.1880    3.9300   29.6650 C.3   103  HIS103      0.1787
    109  C         19.3940    4.5830   30.3170 C.2   103  HIS103      0.2620
    110  O         19.7890    5.6930   29.9460 O.2   103  HIS103     -0.2715
    111  CB        18.6080    3.3860   28.2970 C.3   103  HIS103      0.0785
    112  CG        17.5520    2.5750   27.6140 C.ar  103  HIS103      0.0821
    113  ND1       16.6730    3.1160   26.6990 N.ar  103  HIS103     -0.2267
    114  CD2       17.2410    1.2620   27.7070 C.ar  103  HIS103      0.1154
    115  CE1       15.8620    2.1690   26.2610 C.ar  103  HIS103      0.1986
    116  NE2       16.1850    1.0350   26.8580 N.ar  103  HIS103     -0.2212
    117  N         19.9820    3.8910   31.2880 N.am  104  LEU104     -0.1963
    118  CA        21.2930    4.2770   31.7810 C.3   104  LEU104      0.1728
    119  C         22.3130    3.9710   30.6800 C.2   104  LEU104      0.2616
    120  O         22.3280    2.8740   30.1130 O.2   104  LEU104     -0.2715
    121  CB        21.6350    3.5360   33.0760 C.3   104  LEU104      0.0311
    122  CG        22.9200    3.9420   33.8110 C.3   104  LEU104      0.0022
    123  CD1       22.8050    5.3270   34.4500 C.3   104  LEU104      0.0001
    124  CD2       23.2800    2.8770   34.8550 C.3   104  LEU104      0.0001
    125  N         23.1230    4.9700   30.3450 N.am  105  MET105     -0.1963
    126  CA        24.1710    4.8070   29.3440 C.3   105  MET105      0.1736
    127  C         25.5210    4.6970   30.0400 C.2   105  MET105      0.2617
    128  O         25.7080    5.2500   31.1300 O.2   105  MET105     -0.2715
    129  CB        24.1510    5.9770   28.3610 C.3   105  MET105      0.0427
    130  CG        22.8040    6.1980   27.6600 C.3   105  MET105      0.0599
    131  SD        22.2480    4.8270   26.6190 S.3   105  MET105     -0.1393
    132  CE        23.5640    4.7130   25.4050 C.3   105  MET105      0.0692
    133  N         26.4530    3.9810   29.4140 N.am  106  GLY106     -0.1940
    134  CA        27.7380    3.6470   30.0370 C.3   106  GLY106      0.2014
    135  C         28.7320    4.7920   30.1120 C.2   106  GLY106      0.2639
    136  O         29.3580    5.0110   31.1490 O.2   106  GLY106     -0.2714
    137  N         28.8860    5.5150   29.0060 N.am  107  ALA107     -0.1963
    138  CA        29.8090    6.6460   28.9340 C.3   107  ALA107      0.1728
    139  C         29.3190    7.6590   27.9060 C.2   107  ALA107      0.2616
    140  O         28.4550    7.3440   27.0860 O.2   107  ALA107     -0.2715
    141  CB        31.2110    6.1640   28.5720 C.3   107  ALA107      0.0334
    142  N         29.8560    8.8750   27.9590 N.am  108  ASP108     -0.1971
    143  CA        29.6510    9.8240   26.8660 C.3   108  ASP108      0.1709
    144  C         30.8440    9.7850   25.9100 C.2   108  ASP108      0.2293
    145  O         31.8310    9.0980   26.1730 O.2   108  ASP108     -0.2864
    146  CB        29.3580   11.2410   27.3860 C.3   108  ASP108      0.1436
    147  CG        30.5490   11.8850   28.0710 C.2   108  ASP108      0.3671
    148  OD1       30.3220   12.6970   28.9870 O.co2 108  ASP108     -0.2456
    149  OD2       31.7070   11.5950   27.6960 O.co2 108  ASP108     -0.2456
    150  N         34.4700   10.6990   27.1270 N.3   111  ASN111     -0.1240
    151  CA        35.1670    9.5940   27.7890 C.3   111  ASN111      0.1653
    152  C         35.8360    8.6320   26.8110 C.2   111  ASN111      0.2266
    153  O         36.8460    8.0100   27.1370 O.2   111  ASN111     -0.2867
    154  CB        34.2140    8.8130   28.7040 C.3   111  ASN111      0.1155
    155  CG        33.4270    9.7100   29.6520 C.2   111  ASN111      0.2627
    156  OD1       32.2340    9.4850   29.8830 O.2   111  ASN111     -0.2716
    157  ND2       34.0830   10.7270   30.2030 N.am  111  ASN111     -0.0877
    158  N         29.7370   15.4410   24.9160 N.3   150  SER150     -0.1217
    159  CA        29.1430   15.1660   26.2340 C.3   150  SER150      0.1889
    160  C         27.6460   14.8300   26.1990 C.2   150  SER150      0.2288
    161  O         27.1260   14.2490   27.1560 O.2   150  SER150     -0.2866
    162  CB        29.4140   16.3180   27.2160 C.3   150  SER150      0.2089
    163  OG        28.6720   17.4760   26.8750 O.3   150  SER150     -0.2183
    164  N         25.9380    9.6740   24.1160 N.3   153  ALA153     -0.1245
    165  CA        26.1850    8.5690   25.0310 C.3   153  ALA153      0.1562
    166  C         26.2800    7.2490   24.2870 C.2   153  ALA153      0.2260
    167  O         25.5960    7.0310   23.2830 O.2   153  ALA153     -0.2867
    168  CB        25.1130    8.5140   26.0730 C.3   153  ALA153      0.0290
    169  N         21.4980   12.6890   23.4210 N.3   163  LEU163     -0.1231
    170  CA        20.7670   13.2540   24.5710 C.3   163  LEU163      0.1693
    171  C         20.6150   14.7840   24.5080 C.2   163  LEU163      0.2592
    172  O         21.3380   15.4580   23.7690 O.2   163  LEU163     -0.2718
    173  CB        21.4260   12.8630   25.9070 C.3   163  LEU163      0.0284
    174  CG        22.1300   11.5270   26.2010 C.3   163  LEU163      0.0019
    175  CD1       22.2320   11.3440   27.7120 C.3   163  LEU163      0.0001
    176  CD2       21.4690   10.3040   25.5790 C.3   163  LEU163      0.0001
    177  N         19.6560   15.3110   25.2780 N.am  164  ASP164     -0.1974
    178  CA        19.4810   16.7620   25.5130 C.3   164  ASP164      0.1709
    179  C         19.1240   17.6390   24.2970 C.2   164  ASP164      0.2293
    180  O         19.5510   18.7960   24.2190 O.2   164  ASP164     -0.2864
    181  CB        20.7190   17.3470   26.2150 C.3   164  ASP164      0.1436
    182  CG        20.9010   16.8330   27.6380 C.2   164  ASP164      0.3671
    183  OD1       19.9120   16.4120   28.2850 O.co2 164  ASP164     -0.2456
    184  OD2       22.0490   16.8730   28.1200 O.co2 164  ASP164     -0.2456
@<TRIPOS>BOND
     1    65    66    1
     2   167   166    2
     3   169   170    1
     4    68    67    2
     5   172   171    2
     6    67    66    1
     7    67    73   am
     8    66    69    1
     9   164   165    1
    10   180   179    2
    11   166   165    1
    12   179   178    1
    13    60    59    2
    14   171   170    1
    15   171   177   am
    16    73    74    1
    17   170   173    1
    18    74    75    1
    19    57    58    1
    20    71    69    1
    21    59    58    1
    22   158   159    1
    23    69    70    1
    24   165   168    1
    25    58    61    1
    26   177   178    1
    27   132   131    1
    28   178   181    1
    29   176   174    1
    30   173   174    1
    31   144   145    2
    32   144   143    1
    33    75    77   am
    34    75    76    2
    35   160   159    1
    36   160   161    2
    37   174   175    1
    38   181   182    1
    39    77    78    1
    40   159   162    1
    41   115   113   ar
    42   115   116   ar
    43    70    72    1
    44    64    62    1
    45   131   130    1
    46    61    62    1
    47   113   112   ar
    48   152   153    2
    49   152   151    1
    50   116   114   ar
    51   143   146    1
    52   143   142    1
    53   163   162    1
    54    51    50    2
    55    62    63    1
    56   140   139    2
    57   150   151    1
    58    80    79    2
    59   146   147    1
    60    48    49    1
    61    78    81    1
    62    78    79    1
    63   112   114   ar
    64   112   111    1
    65    81    82    1
    66   182   184   ar
    67   182   183   ar
    68    49    50    1
    69    49    52    1
    70   130   129    1
    71   149   147   ar
    72   151   154    1
    73   139   142   am
    74   139   138    1
    75   147   148   ar
    76   105   104    1
    77   111   108    1
    78   129   126    1
    79   141   138    1
    80   154   155    1
    81    84    82    1
    82    52    53    1
    83   138   137    1
    84    82    83    1
    85   137   135   am
    86    53    54    1
    87   126   127    1
    88   126   125    1
    89   133   134    1
    90   133   127   am
    91   104   106    1
    92   104   101    1
    93   107   108    1
    94   107   102   am
    95   155   156    2
    96   155   157   am
    97   108   109    1
    98   110   109    2
    99    56    54   ar
   100   134   135    1
   101   127   128    2
   102   135   136    2
   103   120   119    2
   104    54    55   ar
   105   109   117   am
   106    26    23    1
   107   101   102    1
   108   101   100    1
   109   125   119   am
   110   102   103    2
   111   119   118    1
   112    96    95    2
   113   117   118    1
   114   100    95   am
   115    95    94    1
   116    23    22    1
   117    23    24    1
   118   118   121    1
   119    47    46    1
   120    92    90    1
   121    22    20   am
   122    91    90    1
   123    24    25    2
   124    90    89    1
   125    89    86    1
   126    46    45    1
   127   121   122    1
   128    93    94    1
   129    93    87   am
   130    94    97    1
   131    20    19    1
   132    20    21    2
   133    19    18    1
   134    38    35    1
   135    97    98    1
   136    97    99    1
   137   122   123    1
   138   122   124    1
   139    86    87    1
   140    86    85    1
   141    87    88    2
   142    34    35    1
   143    37    36    2
   144    45    44    1
   145    15    14    2
   146    35    36    1
   147    18    14   am
   148    43    44    1
   149    43    40    1
   150    14    13    1
   151    33    31    1
   152    32    31    1
   153    39    40    1
   154    17    16    1
   155    31    28    1
   156    40    41    1
   157     6     5    1
   158    42    41    2
   159    13    16    1
   160    13    12    1
   161    12    10   am
   162     4     3    2
   163    28    27    1
   164    28    29    1
   165     5     7    1
   166     5     2    1
   167    10    11    2
   168    10     9    1
   169     3     2    1
   170     3     8   am
   171    29    30    2
   172     9     8    1
   173     2     1    1
