@<TRIPOS>MOLECULE
tmp/3flyA00.pdb
 184 173 0 0 0
SMALL
GASTEIGER

@<TRIPOS>ATOM
      1  N         24.2400   10.2010   39.7840 N.3    27  VAL27      -0.1231
      2  CA        25.2390   10.1120   38.7070 C.3    27  VAL27       0.1692
      3  C         25.5840   11.4600   38.0600 C.2    27  VAL27       0.2593
      4  O         26.3480   11.5110   37.0910 O.2    27  VAL27      -0.2718
      5  CB        24.8530    9.0880   37.5980 C.3    27  VAL27       0.0266
      6  CG1       24.9190    7.6610   38.1310 C.3    27  VAL27       0.0020
      7  CG2       23.4820    9.4020   37.0080 C.3    27  VAL27       0.0020
      8  N         25.0220   12.5420   38.5900 N.am   28  GLY28      -0.1942
      9  CA        25.3880   13.8820   38.1400 C.3    28  GLY28       0.2014
     10  C         24.2530   14.7270   37.5940 C.2    28  GLY28       0.2640
     11  O         23.0770   14.3710   37.7110 O.2    28  GLY28      -0.2714
     12  N         24.6220   15.8570   36.9970 N.am   29  SER29      -0.1935
     13  CA        23.6560   16.8240   36.4900 C.3    29  SER29       0.2055
     14  C         23.1500   16.4650   35.0990 C.2    29  SER29       0.2644
     15  O         23.9210   16.0420   34.2320 O.2    29  SER29      -0.2714
     16  CB        24.2660   18.2310   36.4710 C.3    29  SER29       0.2130
     17  OG        24.5240   18.6930   37.7860 O.3    29  SER29      -0.2179
     18  N         21.8450   16.6290   34.9070 N.am   30  GLY30      -0.1939
     19  CA        21.2300   16.5580   33.5860 C.3    30  GLY30       0.2014
     20  C         20.6150   17.9050   33.2610 C.2    30  GLY30       0.2638
     21  O         20.7490   18.8550   34.0360 O.2    30  GLY30      -0.2714
     22  N         19.9400   17.9930   32.1180 N.am   31  ALA31      -0.1977
     23  CA        19.2590   19.2250   31.7330 C.3    31  ALA31       0.1597
     24  C         18.0900   19.5030   32.6750 C.2    31  ALA31       0.2287
     25  O         17.1190   18.7390   32.7260 O.2    31  ALA31      -0.2864
     26  CB        18.7890   19.1630   30.2780 C.3    31  ALA31       0.0319
     27  N         20.2440   13.6470   38.0680 N.3    35  VAL35      -0.1245
     28  CA        20.0280   12.2990   37.5530 C.3    35  VAL35       0.1561
     29  C         20.5240   11.2310   38.5350 C.2    35  VAL35       0.2260
     30  O         21.6220   11.3410   39.0940 O.2    35  VAL35      -0.2867
     31  CB        20.7070   12.1160   36.1700 C.3    35  VAL35       0.0252
     32  CG1       20.3890   10.7500   35.5770 C.3    35  VAL35       0.0019
     33  CG2       20.2640   13.2160   35.2060 C.3    35  VAL35       0.0019
     34  N         18.3140    5.7250   34.0970 N.3    48  ALA48      -0.1245
     35  CA        18.6040    7.0410   34.6420 C.3    48  ALA48       0.1562
     36  C         17.2790    7.7180   34.9810 C.2    48  ALA48       0.2260
     37  O         16.4070    7.8440   34.1210 O.2    48  ALA48      -0.2867
     38  CB        19.3900    7.8680   33.6350 C.3    48  ALA48       0.0290
     39  N         15.6270   11.2040   36.2840 N.3    50  LYS50      -0.1245
     40  CA        15.8230   12.6330   36.4960 C.3    50  LYS50       0.1561
     41  C         14.6210   13.2500   37.1980 C.2    50  LYS50       0.2260
     42  O         13.5020   13.2020   36.6850 O.2    50  LYS50      -0.2867
     43  CB        16.0800   13.3530   35.1700 C.3    50  LYS50       0.0271
     44  CG        16.5150   14.8170   35.3320 C.3    50  LYS50       0.0035
     45  CD        16.1210   15.6740   34.1360 C.3    50  LYS50       0.0206
     46  CE        16.8660   15.2900   32.8730 C.3    50  LYS50       0.1093
     47  NZ        16.5600   16.2110   31.7390 N.3    50  LYS50      -0.1314
     48  N         10.2870   19.7450   27.4460 N.3    68  GLU68      -0.1245
     49  CA        11.1180   18.5590   27.6080 C.3    68  GLU68       0.1567
     50  C         10.2910   17.2740   27.5970 C.2    68  GLU68       0.2260
     51  O         10.6790   16.2850   26.9820 O.2    68  GLU68      -0.2867
     52  CB        11.9460   18.6270   28.8880 C.3    68  GLU68       0.0388
     53  CG        12.8480   17.4050   29.0170 C.3    68  GLU68       0.1160
     54  CD        13.8830   17.5030   30.1090 C.2    68  GLU68       0.3649
     55  OE1       13.7170   18.3100   31.0430 O.co2  68  GLU68      -0.2457
     56  OE2       14.8650   16.7380   30.0270 O.co2  68  GLU68      -0.2457
     57  N         10.6810   14.3310   24.7180 N.3    72  LEU72      -0.1245
     58  CA        11.0360   12.9750   25.1320 C.3    72  LEU72       0.1561
     59  C          9.9450   11.9510   24.8300 C.2    72  LEU72       0.2260
     60  O         10.2410   10.8210   24.4430 O.2    72  LEU72      -0.2867
     61  CB        11.3890   12.9540   26.6170 C.3    72  LEU72       0.0270
     62  CG        12.7140   13.6260   26.9880 C.3    72  LEU72       0.0019
     63  CD1       12.8410   13.7120   28.4960 C.3    72  LEU72       0.0001
     64  CD2       13.9050   12.8850   26.3820 C.3    72  LEU72       0.0001
     65  N         17.7580    9.4040   22.5870 N.3    81  ILE81      -0.1231
     66  CA        17.2400    9.1480   23.9290 C.3    81  ILE81       0.1692
     67  C         15.7080    9.0920   23.8960 C.2    81  ILE81       0.2593
     68  O         15.0580    9.9370   23.2740 O.2    81  ILE81      -0.2718
     69  CB        17.7420   10.1990   24.9590 C.3    81  ILE81       0.0266
     70  CG1       17.3220    9.8110   26.3770 C.3    81  ILE81       0.0019
     71  CG2       17.2340   11.6010   24.6250 C.3    81  ILE81       0.0020
     72  CD1       18.1160   10.5190   27.4450 C.3    81  ILE81       0.0001
     73  N         15.1490    8.0760   24.5440 N.am   82  GLY82      -0.1942
     74  CA        13.7000    7.9110   24.6210 C.3    82  GLY82       0.2014
     75  C         13.2100    7.8620   26.0540 C.2    82  GLY82       0.2638
     76  O         13.9910    7.6920   26.9910 O.2    82  GLY82      -0.2714
     77  N         11.9060    8.0130   26.2230 N.am   83  LEU83      -0.1977
     78  CA        11.3150    7.9990   27.5480 C.3    83  LEU83       0.1596
     79  C         10.8240    6.5930   27.8720 C.2    83  LEU83       0.2287
     80  O          9.9410    6.0600   27.1960 O.2    83  LEU83      -0.2864
     81  CB        10.1740    9.0110   27.6220 C.3    83  LEU83       0.0297
     82  CG         9.6890    9.4710   28.9980 C.3    83  LEU83       0.0022
     83  CD1       10.8000   10.1390   29.8270 C.3    83  LEU83       0.0001
     84  CD2        8.5070   10.4020   28.8110 C.3    83  LEU83       0.0001
     85  N         11.5410   11.8300   35.2620 N.3   101  LEU101     -0.1231
     86  CA        11.7380   11.2870   33.9200 C.3   101  LEU101      0.1693
     87  C         12.7120   10.1170   33.9480 C.2   101  LEU101      0.2592
     88  O         13.7560   10.1930   34.6030 O.2   101  LEU101     -0.2718
     89  CB        12.2630   12.3800   32.9840 C.3   101  LEU101      0.0284
     90  CG        11.3960   13.6320   32.8530 C.3   101  LEU101      0.0019
     91  CD1       12.2320   14.8000   32.3440 C.3   101  LEU101      0.0001
     92  CD2       10.1940   13.3590   31.9450 C.3   101  LEU101      0.0001
     93  N         12.3700    9.0430   33.2370 N.am  102  VAL102     -0.1966
     94  CA        13.1650    7.8090   33.2550 C.3   102  VAL102      0.1727
     95  C         13.6260    7.4290   31.8480 C.2   102  VAL102      0.2617
     96  O         12.8210    7.3530   30.9220 O.2   102  VAL102     -0.2715
     97  CB        12.3870    6.6110   33.8940 C.3   102  VAL102      0.0290
     98  CG1       13.2720    5.3740   33.9900 C.3   102  VAL102      0.0023
     99  CG2       11.8500    6.9730   35.2740 C.3   102  VAL102      0.0023
    100  N         14.9270    7.1900   31.7010 N.am  103  THR103     -0.1937
    101  CA        15.4940    6.7060   30.4430 C.3   103  THR103      0.2028
    102  C         16.5790    5.6550   30.7030 C.2   103  THR103      0.2642
    103  O         16.9140    5.3860   31.8540 O.2   103  THR103     -0.2714
    104  CB        16.0740    7.8650   29.5900 C.3   103  THR103      0.1808
    105  OG1       16.3080    7.3970   28.2570 O.3   103  THR103     -0.2208
    106  CG2       17.3790    8.3920   30.1900 C.3   103  THR103      0.0379
    107  N         17.1120    5.0640   29.6350 N.am  104  HIS104     -0.1959
    108  CA        18.2100    4.1050   29.7490 C.3   104  HIS104      0.1787
    109  C         19.4170    4.7610   30.3950 C.2   104  HIS104      0.2620
    110  O         19.7540    5.9050   30.0790 O.2   104  HIS104     -0.2715
    111  CB        18.6350    3.5870   28.3720 C.3   104  HIS104      0.0785
    112  CG        17.5720    2.8260   27.6440 C.ar  104  HIS104      0.0821
    113  ND1       16.6730    3.4340   26.7940 N.ar  104  HIS104     -0.2267
    114  CD2       17.2810    1.5040   27.6180 C.ar  104  HIS104      0.1154
    115  CE1       15.8680    2.5190   26.2830 C.ar  104  HIS104      0.1986
    116  NE2       16.2160    1.3400   26.7660 N.ar  104  HIS104     -0.2212
    117  N         20.0670    4.0370   31.3000 N.am  105  LEU105     -0.1963
    118  CA        21.3680    4.4540   31.7920 C.3   105  LEU105      0.1728
    119  C         22.4080    4.1270   30.7170 C.2   105  LEU105      0.2616
    120  O         22.5030    2.9880   30.2450 O.2   105  LEU105     -0.2715
    121  CB        21.6950    3.7680   33.1230 C.3   105  LEU105      0.0311
    122  CG        22.9120    4.2410   33.9270 C.3   105  LEU105      0.0022
    123  CD1       22.7120    5.6400   34.5130 C.3   105  LEU105      0.0001
    124  CD2       23.2180    3.2420   35.0290 C.3   105  LEU105      0.0001
    125  N         23.1590    5.1400   30.3000 N.am  106  MET106     -0.1963
    126  CA        24.2110    4.9340   29.3080 C.3   106  MET106      0.1736
    127  C         25.5600    4.7630   30.0010 C.2   106  MET106      0.2617
    128  O         25.7580    5.2510   31.1140 O.2   106  MET106     -0.2715
    129  CB        24.2440    6.0800   28.2910 C.3   106  MET106      0.0427
    130  CG        22.9260    6.3030   27.5340 C.3   106  MET106      0.0599
    131  SD        22.3500    4.8940   26.5600 S.3   106  MET106     -0.1393
    132  CE        23.5850    4.7930   25.2610 C.3   106  MET106      0.0692
    133  N         26.4740    4.0530   29.3450 N.am  107  GLY107     -0.1940
    134  CA        27.7560    3.6950   29.9500 C.3   107  GLY107      0.2014
    135  C         28.7330    4.8480   30.0460 C.2   107  GLY107      0.2639
    136  O         29.2900    5.1180   31.1110 O.2   107  GLY107     -0.2714
    137  N         28.9430    5.5240   28.9210 N.am  108  ALA108     -0.1963
    138  CA        29.8870    6.6310   28.8390 C.3   108  ALA108      0.1728
    139  C         29.4450    7.5950   27.7500 C.2   108  ALA108      0.2616
    140  O         28.6980    7.2130   26.8460 O.2   108  ALA108     -0.2715
    141  CB        31.2830    6.1120   28.5440 C.3   108  ALA108      0.0334
    142  N         29.8950    8.8420   27.8440 N.am  109  ASP109     -0.1971
    143  CA        29.6860    9.7960   26.7610 C.3   109  ASP109      0.1709
    144  C         30.8880    9.7840   25.8180 C.2   109  ASP109      0.2293
    145  O         31.8920    9.1180   26.0910 O.2   109  ASP109     -0.2864
    146  CB        29.3640   11.2050   27.2850 C.3   109  ASP109      0.1436
    147  CG        30.5030   11.8270   28.0730 C.2   109  ASP109      0.3671
    148  OD1       30.2100   12.5710   29.0300 O.co2 109  ASP109     -0.2456
    149  OD2       31.6830   11.5920   27.7400 O.co2 109  ASP109     -0.2456
    150  N         34.5640   10.4980   27.0380 N.3   112  ASN112     -0.1240
    151  CA        35.2620    9.3820   27.6740 C.3   112  ASN112      0.1653
    152  C         35.9320    8.4540   26.6650 C.2   112  ASN112      0.2266
    153  O         36.9140    7.7770   26.9850 O.2   112  ASN112     -0.2867
    154  CB        34.3030    8.5840   28.5660 C.3   112  ASN112      0.1155
    155  CG        33.6710    9.4320   29.6630 C.2   112  ASN112      0.2627
    156  OD1       32.4910    9.2670   29.9820 O.2   112  ASN112     -0.2716
    157  ND2       34.4500   10.3430   30.2420 N.am  112  ASN112     -0.0877
    158  N         29.6660   15.4720   24.9240 N.3   151  SER151     -0.1217
    159  CA        29.0630   15.2030   26.2380 C.3   151  SER151      0.1889
    160  C         27.5640   14.8830   26.1570 C.2   151  SER151      0.2288
    161  O         26.9910   14.3360   27.1090 O.2   151  SER151     -0.2866
    162  CB        29.3180   16.3670   27.2080 C.3   151  SER151      0.2089
    163  OG        28.6770   17.5550   26.7720 O.3   151  SER151     -0.2183
    164  N         25.9730    9.6190   24.0520 N.3   154  ALA154     -0.1245
    165  CA        26.2550    8.5110   24.9440 C.3   154  ALA154      0.1562
    166  C         26.3850    7.2300   24.1440 C.2   154  ALA154      0.2260
    167  O         25.6790    7.0270   23.1540 O.2   154  ALA154     -0.2867
    168  CB        25.1770    8.3940   25.9870 C.3   154  ALA154      0.0290
    169  N         21.4780   12.7410   23.2950 N.3   164  LEU164     -0.1231
    170  CA        20.7880   13.2860   24.4750 C.3   164  LEU164      0.1693
    171  C         20.5830   14.8120   24.3750 C.2   164  LEU164      0.2592
    172  O         21.3260   15.4900   23.6700 O.2   164  LEU164     -0.2718
    173  CB        21.5800   12.9410   25.7530 C.3   164  LEU164      0.0284
    174  CG        22.3970   11.6390   25.8220 C.3   164  LEU164      0.0019
    175  CD1       23.3060   11.6030   27.0510 C.3   164  LEU164      0.0001
    176  CD2       21.5250   10.3900   25.7710 C.3   164  LEU164      0.0001
    177  N         19.5620   15.3370   25.0650 N.am  165  ASP165     -0.1974
    178  CA        19.3630   16.8000   25.2560 C.3   165  ASP165      0.1709
    179  C         19.0270   17.6680   24.0290 C.2   165  ASP165      0.2293
    180  O         19.4390   18.8330   23.9540 O.2   165  ASP165     -0.2864
    181  CB        20.5640   17.4120   25.9900 C.3   165  ASP165      0.1436
    182  CG        20.7060   16.9090   27.4100 C.2   165  ASP165      0.3671
    183  OD1       19.6940   16.4590   27.9990 O.co2 165  ASP165     -0.2456
    184  OD2       21.8350   16.9790   27.9420 O.co2 165  ASP165     -0.2456
@<TRIPOS>BOND
     1    65    66    1
     2   167   166    2
     3    68    67    2
     4   169   170    1
     5   172   171    2
     6    67    66    1
     7    67    73   am
     8    66    69    1
     9   180   179    2
    10   179   178    1
    11   164   165    1
    12   166   165    1
    13   171   170    1
    14   171   177   am
    15    60    59    2
    16   170   173    1
    17    73    74    1
    18    74    75    1
    19    71    69    1
    20    57    58    1
    21    59    58    1
    22   158   159    1
    23   165   168    1
    24    69    70    1
    25   177   178    1
    26    58    61    1
    27   178   181    1
    28   132   131    1
    29   173   174    1
    30   176   174    1
    31   144   145    2
    32   144   143    1
    33   174   175    1
    34   181   182    1
    35    75    77   am
    36    75    76    2
    37   160   159    1
    38   160   161    2
    39    77    78    1
    40   159   162    1
    41   115   116   ar
    42   115   113   ar
    43    70    72    1
    44    64    62    1
    45   131   130    1
    46    61    62    1
    47   152   153    2
    48   152   151    1
    49   143   146    1
    50   143   142    1
    51   116   114   ar
    52   163   162    1
    53   113   112   ar
    54   140   139    2
    55    51    50    2
    56    62    63    1
    57   150   151    1
    58    80    79    2
    59   146   147    1
    60   182   184   ar
    61   182   183   ar
    62    48    49    1
    63   130   129    1
    64    78    81    1
    65    78    79    1
    66    50    49    1
    67    49    52    1
    68   114   112   ar
    69    81    82    1
    70   112   111    1
    71   151   154    1
    72   149   147   ar
    73   139   142   am
    74   139   138    1
    75   147   148   ar
    76   105   104    1
    77   129   126    1
    78   111   108    1
    79   141   138    1
    80   154   155    1
    81    84    82    1
    82   138   137    1
    83    52    53    1
    84   137   135   am
    85    82    83    1
    86    53    54    1
    87   126   127    1
    88   126   125    1
    89   133   134    1
    90   133   127   am
    91   104   106    1
    92   104   101    1
    93   107   108    1
    94   107   102   am
    95   155   156    2
    96   155   157   am
    97   108   109    1
    98   134   135    1
    99   127   128    2
   100    56    54   ar
   101   135   136    2
   102   110   109    2
   103    54    55   ar
   104   120   119    2
   105    26    23    1
   106   125   119   am
   107   109   117   am
   108   101   102    1
   109   101   100    1
   110   102   103    2
   111   119   118    1
   112    96    95    2
   113   117   118    1
   114   100    95   am
   115    23    22    1
   116    23    24    1
   117    47    46    1
   118   118   121    1
   119    95    94    1
   120    92    90    1
   121    22    20   am
   122    91    90    1
   123    24    25    2
   124    90    89    1
   125    46    45    1
   126    89    86    1
   127   121   122    1
   128    93    94    1
   129    93    87   am
   130    94    97    1
   131    20    19    1
   132    20    21    2
   133    19    18    1
   134    38    35    1
   135    97    98    1
   136    97    99    1
   137    86    87    1
   138    86    85    1
   139   122   123    1
   140   122   124    1
   141    87    88    2
   142    34    35    1
   143    37    36    2
   144    45    44    1
   145    15    14    2
   146    35    36    1
   147    18    14   am
   148    14    13    1
   149    43    44    1
   150    43    40    1
   151    33    31    1
   152    32    31    1
   153    31    28    1
   154    39    40    1
   155    16    13    1
   156    16    17    1
   157    13    12    1
   158    40    41    1
   159    42    41    2
   160    12    10   am
   161     7     5    1
   162     4     3    2
   163    28    27    1
   164    28    29    1
   165    10    11    2
   166    10     9    1
   167     5     6    1
   168     5     2    1
   169     3     8   am
   170     3     2    1
   171     9     8    1
   172    29    30    2
   173     2     1    1
