@<TRIPOS>MOLECULE
tmp/3flzA00.pdb
 180 168 0 0 0
SMALL
GASTEIGER

@<TRIPOS>ATOM
      1  N         24.2150   10.1810   40.5390 N.3    27  VAL27      -0.1231
      2  CA        25.1960   10.0550   39.4640 C.3    27  VAL27       0.1696
      3  C         25.7850   11.4050   39.0410 C.2    27  VAL27       0.2632
      4  O         27.0080   11.5920   39.0860 O.2    27  VAL27      -0.2714
      5  CB        24.6250    9.2750   38.2440 C.3    27  VAL27       0.0266
      6  CG1       25.2880    9.7050   36.9240 C.3    27  VAL27       0.0020
      7  CG2       24.7970    7.7850   38.4600 C.3    27  VAL27       0.0020
      8  N         24.9290   12.3410   38.6440 N.am   28  GLY28      -0.1718
      9  CA        25.4150   13.6130   38.1310 C.2    28  GLY28       0.1480
     10  C         24.3730   14.6890   37.9020 C.2    28  GLY28       0.2821
     11  O         23.2500   14.6210   38.4160 O.2    28  GLY28      -0.2669
     12  N         24.7710   15.6910   37.1240 N.am   29  SER29      -0.1901
     13  CA        23.9240   16.8250   36.8060 C.3    29  SER29       0.2058
     14  C         23.3330   16.6290   35.4140 C.2    29  SER29       0.2644
     15  O         24.0600   16.3560   34.4540 O.2    29  SER29      -0.2714
     16  CB        24.7420   18.1210   36.8720 C.3    29  SER29       0.2130
     17  OG        23.9750   19.1930   37.3960 O.3    29  SER29      -0.2179
     18  N         22.0120   16.7430   35.3180 N.am   30  GLY30      -0.1939
     19  CA        21.3170   16.6340   34.0380 C.3    30  GLY30       0.2014
     20  C         20.6600   17.9490   33.6630 C.2    30  GLY30       0.2638
     21  O         20.7230   18.9220   34.4220 O.2    30  GLY30      -0.2714
     22  N         20.0320   17.9810   32.4880 N.am   31  ALA31      -0.1977
     23  CA        19.3060   19.1670   32.0310 C.3    31  ALA31       0.1597
     24  C         18.1350   19.4930   32.9700 C.2    31  ALA31       0.2287
     25  O         17.1300   18.7650   33.0200 O.2    31  ALA31      -0.2864
     26  CB        18.8310   18.9930   30.5830 C.3    31  ALA31       0.0319
     27  N         20.3400   13.6090   38.3640 N.3    35  VAL35      -0.1245
     28  CA        20.1220   12.2410   37.8940 C.3    35  VAL35       0.1561
     29  C         20.5740   11.1800   38.9110 C.2    35  VAL35       0.2260
     30  O         21.5700   11.3590   39.6200 O.2    35  VAL35      -0.2867
     31  CB        20.8170   12.0030   36.5300 C.3    35  VAL35       0.0252
     32  CG1       20.4310   10.6550   35.9410 C.3    35  VAL35       0.0019
     33  CG2       20.4680   13.1240   35.5420 C.3    35  VAL35       0.0019
     34  N         18.4720    5.6090   34.2910 N.3    48  ALA48      -0.1245
     35  CA        18.7450    6.9190   34.8380 C.3    48  ALA48       0.1562
     36  C         17.4070    7.5810   35.1730 C.2    48  ALA48       0.2260
     37  O         16.5020    7.6280   34.3360 O.2    48  ALA48      -0.2867
     38  CB        19.5480    7.7560   33.8480 C.3    48  ALA48       0.0290
     39  N         15.7900   11.0970   36.5170 N.3    50  LYS50      -0.1245
     40  CA        15.9470   12.5230   36.7710 C.3    50  LYS50       0.1561
     41  C         14.7300   13.1220   37.4670 C.2    50  LYS50       0.2260
     42  O         13.6070   13.0070   36.9750 O.2    50  LYS50      -0.2867
     43  CB        16.2380   13.2770   35.4710 C.3    50  LYS50       0.0271
     44  CG        16.3050   14.8080   35.6270 C.3    50  LYS50       0.0035
     45  CD        17.0020   15.4790   34.4570 C.3    50  LYS50       0.0206
     46  CE        16.2080   15.3420   33.1600 C.3    50  LYS50       0.1093
     47  NZ        16.8170   16.1620   32.0680 N.3    50  LYS50      -0.1314
     48  N         10.4240   19.6710   27.5320 N.3    68  GLU68      -0.1245
     49  CA        11.2320   18.4560   27.7070 C.3    68  GLU68       0.1567
     50  C         10.3660   17.1940   27.6940 C.2    68  GLU68       0.2260
     51  O         10.6830   16.2220   27.0090 O.2    68  GLU68      -0.2867
     52  CB        12.0970   18.4990   28.9830 C.3    68  GLU68       0.0388
     53  CG        12.9980   17.2650   29.0960 C.3    68  GLU68       0.1160
     54  CD        14.0310   17.3040   30.2260 C.2    68  GLU68       0.3649
     55  OE1       13.8150   17.9970   31.2370 O.co2  68  GLU68      -0.2457
     56  OE2       15.0600   16.6000   30.0990 O.co2  68  GLU68      -0.2457
     57  N         10.7380   14.2860   24.8600 N.3    72  LEU72      -0.1245
     58  CA        11.1280   12.9280   25.2530 C.3    72  LEU72       0.1561
     59  C         10.0620   11.8800   24.9300 C.2    72  LEU72       0.2260
     60  O         10.3940   10.7510   24.5550 O.2    72  LEU72      -0.2867
     61  CB        11.5180   12.8790   26.7340 C.3    72  LEU72       0.0270
     62  CG        12.8650   13.4970   27.1400 C.3    72  LEU72       0.0019
     63  CD1       12.9790   13.5410   28.6390 C.3    72  LEU72       0.0001
     64  CD2       14.0540   12.7470   26.5430 C.3    72  LEU72       0.0001
     65  N         17.8870    9.2750   22.6980 N.3    81  ILE81      -0.1245
     66  CA        17.3940    9.0480   24.0490 C.3    81  ILE81       0.1561
     67  C         15.8490    8.9930   24.0700 C.2    81  ILE81       0.2260
     68  O         15.1670    9.8780   23.5370 O.2    81  ILE81      -0.2867
     69  CB        17.9790   10.1100   25.0260 C.3    81  ILE81       0.0252
     70  CG1       17.7350    9.7310   26.4840 C.3    81  ILE81       0.0019
     71  CG2       17.4460   11.5230   24.7160 C.3    81  ILE81       0.0019
     72  CD1       16.4620   10.3160   27.0710 C.3    81  ILE81       0.0001
     73  N         12.0950    7.8660   26.4050 N.3    83  LEU83      -0.1245
     74  CA        11.5120    7.8320   27.7400 C.3    83  LEU83       0.1561
     75  C         10.9890    6.4360   28.0690 C.2    83  LEU83       0.2260
     76  O         10.0560    5.9520   27.4310 O.2    83  LEU83      -0.2867
     77  CB        10.3880    8.8580   27.8220 C.3    83  LEU83       0.0270
     78  CG         9.9170    9.4010   29.1620 C.3    83  LEU83       0.0019
     79  CD1       11.0530   10.0650   29.9500 C.3    83  LEU83       0.0001
     80  CD2        8.7970   10.3850   28.8650 C.3    83  LEU83       0.0001
     81  N         11.6300   11.7030   35.4220 N.3   101  LEU101     -0.1231
     82  CA        11.8100   11.1300   34.0950 C.3   101  LEU101      0.1693
     83  C         12.7800    9.9600   34.1630 C.2   101  LEU101      0.2592
     84  O         13.7720   10.0130   34.8930 O.2   101  LEU101     -0.2718
     85  CB        12.3270   12.1970   33.1240 C.3   101  LEU101      0.0284
     86  CG        11.5250   13.5080   33.0710 C.3   101  LEU101      0.0019
     87  CD1       12.4000   14.6600   32.6340 C.3   101  LEU101      0.0001
     88  CD2       10.3130   13.3700   32.1600 C.3   101  LEU101      0.0001
     89  N         12.4920    8.9070   33.4010 N.am  102  VAL102     -0.1966
     90  CA        13.3070    7.6910   33.4220 C.3   102  VAL102      0.1727
     91  C         13.7660    7.3400   32.0100 C.2   102  VAL102      0.2617
     92  O         12.9610    7.3090   31.0810 O.2   102  VAL102     -0.2715
     93  CB        12.5500    6.4640   34.0880 C.3   102  VAL102      0.0290
     94  CG1       13.4270    5.2210   34.1230 C.3   102  VAL102      0.0023
     95  CG2       12.0620    6.7990   35.5030 C.3   102  VAL102      0.0023
     96  N         15.0650    7.0920   31.8570 N.am  103  THR103     -0.1937
     97  CA        15.6330    6.6360   30.5880 C.3   103  THR103      0.2028
     98  C         16.7080    5.5630   30.8300 C.2   103  THR103      0.2642
     99  O         17.0030    5.2270   31.9750 O.2   103  THR103     -0.2714
    100  CB        16.1890    7.8290   29.7330 C.3   103  THR103      0.1808
    101  OG1       16.4920    7.3710   28.4080 O.3   103  THR103     -0.2208
    102  CG2       17.4460    8.4400   30.3560 C.3   103  THR103      0.0379
    103  N         17.2730    5.0150   29.7580 N.am  104  HIS104     -0.1959
    104  CA        18.3490    4.0290   29.8880 C.3   104  HIS104      0.1787
    105  C         19.5700    4.6410   30.5560 C.2   104  HIS104      0.2620
    106  O         19.9270    5.7890   30.2820 O.2   104  HIS104     -0.2715
    107  CB        18.7720    3.4930   28.5210 C.3   104  HIS104      0.0785
    108  CG        17.7280    2.6710   27.8340 C.ar  104  HIS104      0.0821
    109  ND1       16.8160    3.2110   26.9520 N.ar  104  HIS104     -0.2267
    110  CD2       17.4710    1.3430   27.8760 C.ar  104  HIS104      0.1154
    111  CE1       16.0370    2.2510   26.4860 C.ar  104  HIS104      0.1986
    112  NE2       16.4110    1.1090   27.0340 N.ar  104  HIS104     -0.2212
    113  N         20.2080    3.8810   31.4410 N.am  105  LEU105     -0.1963
    114  CA        21.5050    4.2890   31.9620 C.3   105  LEU105      0.1728
    115  C         22.5520    4.0090   30.8830 C.2   105  LEU105      0.2616
    116  O         22.6130    2.9150   30.3070 O.2   105  LEU105     -0.2715
    117  CB        21.8360    3.5640   33.2660 C.3   105  LEU105      0.0311
    118  CG        23.0820    3.9870   34.0510 C.3   105  LEU105      0.0022
    119  CD1       22.9600    5.4090   34.6180 C.3   105  LEU105      0.0001
    120  CD2       23.3440    2.9810   35.1710 C.3   105  LEU105      0.0001
    121  N         23.3460    5.0240   30.5790 N.am  106  MET106     -0.1963
    122  CA        24.4000    4.8800   29.5840 C.3   106  MET106      0.1736
    123  C         25.7500    4.7520   30.2830 C.2   106  MET106      0.2617
    124  O         25.9350    5.2760   31.3820 O.2   106  MET106     -0.2715
    125  CB        24.3690    6.0520   28.6010 C.3   106  MET106      0.0427
    126  CG        23.0400    6.2050   27.8430 C.3   106  MET106      0.0599
    127  SD        22.5620    4.7510   26.8760 S.3   106  MET106     -0.1393
    128  CE        23.7230    4.7920   25.5060 C.3   106  MET106      0.0692
    129  N         26.6750    4.0360   29.6480 N.am  107  GLY107     -0.1940
    130  CA        27.9590    3.6950   30.2600 C.3   107  GLY107      0.2014
    131  C         28.9450    4.8430   30.3260 C.2   107  GLY107      0.2639
    132  O         29.4590    5.1720   31.3930 O.2   107  GLY107     -0.2714
    133  N         29.2200    5.4410   29.1740 N.am  108  ALA108     -0.1963
    134  CA        30.1170    6.5830   29.0850 C.3   108  ALA108      0.1728
    135  C         29.5940    7.5350   28.0210 C.2   108  ALA108      0.2616
    136  O         28.6530    7.2020   27.2930 O.2   108  ALA108     -0.2715
    137  CB        31.5220    6.1240   28.7400 C.3   108  ALA108      0.0334
    138  N         30.1820    8.7230   27.9450 N.am  109  ASP109     -0.1971
    139  CA        29.9020    9.6200   26.8280 C.3   109  ASP109      0.1709
    140  C         31.0850    9.6060   25.8730 C.2   109  ASP109      0.2293
    141  O         32.0360    8.8510   26.0790 O.2   109  ASP109     -0.2864
    142  CB        29.5560   11.0360   27.3070 C.3   109  ASP109      0.1436
    143  CG        30.6880   11.6940   28.0530 C.2   109  ASP109      0.3671
    144  OD1       30.4000   12.5850   28.8740 O.co2 109  ASP109     -0.2456
    145  OD2       31.8590   11.3220   27.8200 O.co2 109  ASP109     -0.2456
    146  N         34.9320   10.4830   27.1430 N.3   112  ASN112     -0.1240
    147  CA        35.7090    9.4320   27.7930 C.3   112  ASN112      0.1653
    148  C         36.3590    8.5030   26.7750 C.2   112  ASN112      0.2266
    149  O         37.4670    8.0010   26.9890 O.2   112  ASN112     -0.2867
    150  CB        34.8270    8.6370   28.7660 C.3   112  ASN112      0.1155
    151  CG        34.0290    9.5380   29.7110 C.2   112  ASN112      0.2627
    152  OD1       32.8530    9.2810   29.9880 O.2   112  ASN112     -0.2716
    153  ND2       34.6620   10.6020   30.2000 N.am  112  ASN112     -0.0877
    154  N         29.8640   15.3200   25.0300 N.3   151  SER151     -0.1217
    155  CA        29.2100   15.0680   26.3160 C.3   151  SER151      0.1889
    156  C         27.6950   14.8350   26.2090 C.2   151  SER151      0.2288
    157  O         27.0820   14.3430   27.1560 O.2   151  SER151     -0.2866
    158  CB        29.5070   16.2040   27.3070 C.3   151  SER151      0.2089
    159  OG        28.8630   17.4020   26.9140 O.3   151  SER151     -0.2183
    160  N         26.1340    9.5970   24.3080 N.3   154  ALA154     -0.1245
    161  CA        26.4110    8.4740   25.1870 C.3   154  ALA154      0.1562
    162  C         26.4980    7.1840   24.3970 C.2   154  ALA154      0.2260
    163  O         25.7620    6.9680   23.4320 O.2   154  ALA154     -0.2867
    164  CB        25.3620    8.3780   26.2560 C.3   154  ALA154      0.0290
    165  N         21.6170   12.7100   23.4280 N.3   164  LEU164     -0.1231
    166  CA        20.9130   13.2770   24.5900 C.3   164  LEU164      0.1693
    167  C         20.7270   14.7950   24.4760 C.2   164  LEU164      0.2592
    168  O         21.4380   15.4530   23.7130 O.2   164  LEU164     -0.2718
    169  CB        21.6680   12.9520   25.8950 C.3   164  LEU164      0.0284
    170  CG        22.4940   11.6640   26.0470 C.3   164  LEU164      0.0019
    171  CD1       23.3390   11.7010   27.3260 C.3   164  LEU164      0.0001
    172  CD2       21.6530   10.3880   26.0100 C.3   164  LEU164      0.0001
    173  N         19.7570   15.3340   25.2230 N.am  165  ASP165     -0.1974
    174  CA        19.5800   16.7900   25.4430 C.3   165  ASP165      0.1709
    175  C         19.1300   17.6700   24.2600 C.2   165  ASP165      0.2293
    176  O         19.4850   18.8470   24.1950 O.2   165  ASP165     -0.2864
    177  CB        20.8520   17.3920   26.0690 C.3   165  ASP165      0.1436
    178  CG        21.0800   16.9380   27.5070 C.2   165  ASP165      0.3671
    179  OD1       22.2200   17.0850   27.9990 O.co2 165  ASP165     -0.2456
    180  OD2       20.1260   16.4470   28.1550 O.co2 165  ASP165     -0.2456
@<TRIPOS>BOND
     1    65    66    1
     2   165   166    1
     3   163   162    2
     4    68    67    2
     5   168   167    2
     6    66    67    1
     7    66    69    1
     8   176   175    2
     9   175   174    1
    10   160   161    1
    11   162   161    1
    12   167   166    1
    13   167   173   am
    14    60    59    2
    15   166   169    1
    16    71    69    1
    17    57    58    1
    18    59    58    1
    19    69    70    1
    20   154   155    1
    21   161   164    1
    22   173   174    1
    23    58    61    1
    24   174   177    1
    25   128   127    1
    26   140   141    2
    27   140   139    1
    28   169   170    1
    29   172   170    1
    30   170   171    1
    31   177   178    1
    32   156   155    1
    33   156   157    2
    34   155   158    1
    35    73    74    1
    36    70    72    1
    37   111   109   ar
    38   111   112   ar
    39    64    62    1
    40    61    62    1
    41   148   149    2
    42   148   147    1
    43   139   142    1
    44   139   138    1
    45   127   126    1
    46   159   158    1
    47   109   108   ar
    48    51    50    2
    49   112   110   ar
    50    62    63    1
    51   146   147    1
    52   136   135    2
    53   142   143    1
    54    76    75    2
    55   178   179   ar
    56   178   180   ar
    57    48    49    1
    58    50    49    1
    59    49    52    1
    60    74    77    1
    61    74    75    1
    62   147   150    1
    63   145   143   ar
    64    77    78    1
    65   108   110   ar
    66   108   107    1
    67   126   125    1
    68   138   135   am
    69   135   134    1
    70   143   144   ar
    71   101   100    1
    72   107   104    1
    73   125   122    1
    74   137   134    1
    75   150   151    1
    76    80    78    1
    77    52    53    1
    78   134   133    1
    79    53    54    1
    80    78    79    1
    81   133   131   am
    82   122   123    1
    83   122   121    1
    84   129   130    1
    85   129   123   am
    86   151   152    2
    87   151   153   am
    88   100   102    1
    89   100    97    1
    90   103   104    1
    91   103    98   am
    92   104   105    1
    93    56    54   ar
    94    54    55   ar
    95   130   131    1
    96   106   105    2
    97   123   124    2
    98   116   115    2
    99   131   132    2
   100   105   113   am
   101   121   115   am
   102    26    23    1
   103    97    98    1
   104    97    96    1
   105    98    99    2
   106   115   114    1
   107    92    91    2
   108   113   114    1
   109    96    91   am
   110   114   117    1
   111    91    90    1
   112    23    22    1
   113    23    24    1
   114    47    46    1
   115    88    86    1
   116    22    20   am
   117    87    86    1
   118    24    25    2
   119    86    85    1
   120    85    82    1
   121    46    45    1
   122   117   118    1
   123    89    90    1
   124    89    83   am
   125    90    93    1
   126    20    19    1
   127    20    21    2
   128    38    35    1
   129    19    18    1
   130   118   119    1
   131   118   120    1
   132    93    94    1
   133    93    95    1
   134    82    83    1
   135    82    81    1
   136    83    84    2
   137    34    35    1
   138    37    36    2
   139    15    14    2
   140    45    44    1
   141    35    36    1
   142    18    14   am
   143    14    13    1
   144    43    44    1
   145    43    40    1
   146    33    31    1
   147    32    31    1
   148    39    40    1
   149    31    28    1
   150    40    41    1
   151    13    16    1
   152    13    12    1
   153    16    17    1
   154     6     5    1
   155    42    41    2
   156    12    10   am
   157    28    27    1
   158    28    29    1
   159    10     9    1
   160    10    11    2
   161     9     8    2
   162     5     7    1
   163     5     2    1
   164     8     3    1
   165    29    30    2
   166     3     4    2
   167     3     2    1
   168     2     1    1
