@<TRIPOS>MOLECULE
tmp/3fmaB00.pdb
 119 118 0 0 0
SMALL
GASTEIGER

@<TRIPOS>ATOM
      1  N        -32.4100  -33.8210   22.8130 N.3     8  TYR8       -0.1241
      2  CA       -33.8630  -33.6800   22.7000 C.3     8  TYR8        0.1605
      3  C        -34.4600  -34.6420   21.6500 C.2     8  TYR8        0.2264
      4  O        -33.7930  -35.0710   20.7030 O.2     8  TYR8       -0.2867
      5  CB       -34.2950  -32.2160   22.4690 C.3     8  TYR8        0.0534
      6  CG       -33.9160  -31.6380   21.1190 C.ar    8  TYR8       -0.0201
      7  CD1      -34.7340  -31.8390   19.9920 C.ar    8  TYR8       -0.0009
      8  CD2      -32.7440  -30.8790   20.9680 C.ar    8  TYR8       -0.0009
      9  CE1      -34.3920  -31.3120   18.7560 C.ar    8  TYR8        0.0417
     10  CE2      -32.3980  -30.3390   19.7250 C.ar    8  TYR8        0.0417
     11  CZ       -33.2270  -30.5640   18.6320 C.ar    8  TYR8        0.1957
     12  OH       -32.8900  -30.0430   17.4090 O.3     8  TYR8       -0.2866
     13  N        -37.2910  -35.2160   18.7670 N.3    10  ASP10      -0.1225
     14  CA       -38.1920  -34.4870   17.8740 C.3    10  ASP10       0.1805
     15  C        -39.5240  -35.2350   17.7110 C.2    10  ASP10       0.2598
     16  O        -39.7580  -36.2600   18.3610 O.2    10  ASP10      -0.2718
     17  CB       -37.5250  -34.1530   16.5230 C.3    10  ASP10       0.1424
     18  CG       -37.2680  -35.3790   15.6370 C.2    10  ASP10       0.3668
     19  OD1      -37.8440  -36.4900   15.8100 O.co2  10  ASP10      -0.2456
     20  OD2      -36.4460  -35.2090   14.7200 O.co2  10  ASP10      -0.2456
     21  N        -40.3740  -34.7140   16.8310 N.am   11  THR11      -0.1953
     22  CA       -41.6970  -35.2480   16.5550 C.3    11  THR11       0.1897
     23  C        -41.6450  -36.6480   15.9130 C.2    11  THR11       0.2313
     24  O        -42.5920  -37.4090   16.0960 O.2    11  THR11      -0.2863
     25  CB       -42.5110  -34.2480   15.6890 C.3    11  THR11       0.1794
     26  OG1      -42.0970  -32.9130   16.0000 O.3    11  THR11      -0.2208
     27  CG2      -44.0050  -34.3610   15.9490 C.3    11  THR11       0.0378
     28  N        -31.6660  -35.8520   19.0660 N.3    16  HIS16      -0.1241
     29  CA       -30.7340  -34.8390   18.5830 C.3    16  HIS16       0.1621
     30  C        -29.8080  -34.3710   19.6630 C.2    16  HIS16       0.2264
     31  O        -30.2230  -34.1760   20.8170 O.2    16  HIS16      -0.2867
     32  CB       -31.4930  -33.6460   18.0460 C.3    16  HIS16       0.0745
     33  CG       -32.2460  -33.9520   16.7980 C.ar   16  HIS16       0.0817
     34  ND1      -31.6970  -33.7930   15.5450 N.ar   16  HIS16      -0.2268
     35  CD2      -33.5040  -34.4100   16.6100 C.ar   16  HIS16       0.1154
     36  CE1      -32.5870  -34.1380   14.6360 C.ar   16  HIS16       0.1986
     37  NE2      -33.6910  -34.5180   15.2550 N.ar   16  HIS16      -0.2212
     38  N        -25.9880  -31.1540   22.5420 N.3    19  PHE19      -0.1241
     39  CA       -25.7220  -29.7570   22.2500 C.3    19  PHE19       0.1605
     40  C        -25.4720  -29.0160   23.5590 C.2    19  PHE19       0.2264
     41  O        -26.1070  -29.3120   24.5920 O.2    19  PHE19      -0.2867
     42  CB       -26.9050  -29.1090   21.5400 C.3    19  PHE19       0.0534
     43  CG       -27.3160  -29.7690   20.2440 C.ar   19  PHE19      -0.0203
     44  CD1      -26.4030  -29.9510   19.1990 C.ar   19  PHE19      -0.0042
     45  CD2      -28.6390  -30.1890   20.0590 C.ar   19  PHE19      -0.0042
     46  CE1      -26.7970  -30.5580   17.9780 C.ar   19  PHE19      -0.0003
     47  CE2      -29.0440  -30.7810   18.8560 C.ar   19  PHE19      -0.0003
     48  CZ       -28.1160  -30.9680   17.8060 C.ar   19  PHE19      -0.0000
     49  N        -29.5370  -20.2460   22.7530 N.3    24  GLN24      -0.1231
     50  CA       -29.8240  -19.5830   21.4710 C.3    24  GLN24       0.1698
     51  C        -31.1640  -20.0210   20.8800 C.2    24  GLN24       0.2592
     52  O        -31.9960  -19.1800   20.5860 O.2    24  GLN24      -0.2718
     53  CB       -28.7050  -19.8160   20.4490 C.3    24  GLN24       0.0381
     54  CG       -27.3980  -19.1240   20.7420 C.3    24  GLN24       0.0905
     55  CD       -27.5930  -17.6360   20.8720 C.2    24  GLN24       0.2608
     56  OE1      -27.8250  -16.9240   19.8720 O.2    24  GLN24      -0.2717
     57  NE2      -27.5080  -17.1420   22.1090 N.am   24  GLN24      -0.0878
     58  N        -31.3770  -21.3290   20.7370 N.am   25  TRP25      -0.1976
     59  CA       -32.6300  -21.8530   20.1670 C.3    25  TRP25       0.1640
     60  C        -33.8910  -21.5240   20.9720 C.2    25  TRP25       0.2290
     61  O        -34.9500  -21.2910   20.3670 O.2    25  TRP25      -0.2864
     62  CB       -32.5540  -23.3550   19.9020 C.3    25  TRP25       0.0576
     63  CG       -31.6670  -23.7170   18.7470 C.ar   25  TRP25       0.0006
     64  CD1      -31.5570  -23.0580   17.5500 C.ar   25  TRP25       0.0946
     65  CD2      -30.7770  -24.8390   18.6700 C.ar   25  TRP25       0.0152
     66  NE1      -30.6490  -23.6990   16.7400 N.ar   25  TRP25      -0.2442
     67  CE2      -30.1520  -24.7920   17.4030 C.ar   25  TRP25       0.0810
     68  CE3      -30.4440  -25.8810   19.5530 C.ar   25  TRP25       0.0012
     69  CZ2      -29.2120  -25.7450   16.9900 C.ar   25  TRP25       0.0191
     70  CZ3      -29.5040  -26.8330   19.1420 C.ar   25  TRP25       0.0001
     71  CH2      -28.8990  -26.7490   17.8670 C.ar   25  TRP25       0.0015
     72  N        -34.2520  -18.7490   22.9880 N.3    27  ILE27      -0.1231
     73  CA       -34.4120  -17.3150   22.7120 C.3    27  ILE27       0.1692
     74  C        -35.0340  -17.0970   21.3180 C.2    27  ILE27       0.2592
     75  O        -35.8710  -16.2020   21.1490 O.2    27  ILE27      -0.2718
     76  CB       -33.0650  -16.5450   22.8760 C.3    27  ILE27       0.0266
     77  CG1      -32.5370  -16.6630   24.3080 C.3    27  ILE27       0.0019
     78  CG2      -33.2060  -15.0650   22.4960 C.3    27  ILE27       0.0020
     79  CD1      -31.0300  -16.4090   24.4560 C.3    27  ILE27       0.0001
     80  N        -34.6350  -17.9100   20.3390 N.am   28  GLY28      -0.1957
     81  CA       -35.2310  -17.8830   19.0000 C.3    28  GLY28       0.1869
     82  C        -36.6770  -18.3760   18.9350 C.2    28  GLY28       0.2309
     83  O        -37.3120  -18.2840   17.8800 O.2    28  GLY28      -0.2863
     84  N        -37.8820  -21.5080   19.3330 N.3    30  TYR30      -0.1227
     85  CA       -37.9840  -22.7590   18.5900 C.3    30  TYR30       0.1736
     86  C        -38.4540  -23.9550   19.4080 C.2    30  TYR30       0.2595
     87  O        -38.9310  -24.9450   18.8430 O.2    30  TYR30      -0.2718
     88  CB       -36.6250  -23.1050   17.9860 C.3    30  TYR30       0.0548
     89  CG       -36.2080  -22.2320   16.8420 C.ar   30  TYR30      -0.0200
     90  CD1      -36.8310  -22.3430   15.5930 C.ar   30  TYR30      -0.0009
     91  CD2      -35.1780  -21.2940   16.9950 C.ar   30  TYR30      -0.0009
     92  CE1      -36.4460  -21.5310   14.5170 C.ar   30  TYR30       0.0417
     93  CE2      -34.7800  -20.4660   15.9090 C.ar   30  TYR30       0.0417
     94  CZ       -35.4230  -20.5980   14.6800 C.ar   30  TYR30       0.1957
     95  OH       -35.0510  -19.8110   13.6120 O.3    30  TYR30      -0.2866
     96  N        -38.3120  -23.8700   20.7250 N.am   31  PHE31      -0.1962
     97  CA       -38.6650  -24.9790   21.5890 C.3    31  PHE31       0.1771
     98  C        -40.0690  -24.8480   22.1580 C.2    31  PHE31       0.2619
     99  O        -40.3790  -23.8870   22.8660 O.2    31  PHE31      -0.2715
    100  CB       -37.6590  -25.1270   22.7410 C.3    31  PHE31       0.0574
    101  CG       -36.2650  -25.5110   22.3170 C.ar   31  PHE31      -0.0200
    102  CD1      -36.0080  -26.1770   21.0980 C.ar   31  PHE31      -0.0042
    103  CD2      -35.1910  -25.2230   23.1550 C.ar   31  PHE31      -0.0042
    104  CE1      -34.6940  -26.5350   20.7320 C.ar   31  PHE31      -0.0003
    105  CE2      -33.8750  -25.5740   22.7970 C.ar   31  PHE31      -0.0003
    106  CZ       -33.6270  -26.2310   21.5930 C.ar   31  PHE31      -0.0000
    107  N        -40.9110  -25.8270   21.8370 N.am   32  ALA32      -0.1977
    108  CA       -42.2220  -25.9520   22.4590 C.3    32  ALA32       0.1597
    109  C        -42.0430  -26.4230   23.9140 C.2    32  ALA32       0.2287
    110  O        -41.0710  -27.1240   24.2390 O.2    32  ALA32      -0.2864
    111  CB       -43.0880  -26.9080   21.6760 C.3    32  ALA32       0.0319
    112  N        -41.6250  -30.1790   24.4510 N.3    35  LEU35      -0.1245
    113  CA       -40.4110  -30.8090   23.9160 C.3    35  LEU35       0.1561
    114  C        -39.6600  -31.5830   24.9850 C.2    35  LEU35       0.2260
    115  O        -39.2990  -31.0310   26.0320 O.2    35  LEU35      -0.2867
    116  CB       -39.4700  -29.7720   23.2890 C.3    35  LEU35       0.0270
    117  CG       -38.1590  -30.2240   22.6250 C.3    35  LEU35       0.0019
    118  CD1      -38.4100  -30.8640   21.2560 C.3    35  LEU35       0.0001
    119  CD2      -37.1790  -29.0650   22.4970 C.3    35  LEU35       0.0001
@<TRIPOS>BOND
     1    95    94    1
     2    92    94   ar
     3    92    90   ar
     4    36    37   ar
     5    36    34   ar
     6    94    93   ar
     7    20    18   ar
     8    37    35   ar
     9    34    33   ar
    10    90    89   ar
    11    18    19   ar
    12    18    17    1
    13    25    27    1
    14    25    26    1
    15    25    22    1
    16    93    91   ar
    17    23    24    2
    18    23    22    1
    19    17    14    1
    20    22    21    1
    21    35    33   ar
    22    66    67   ar
    23    66    64   ar
    24    33    32    1
    25    21    15   am
    26    89    91   ar
    27    89    88    1
    28    69    67   ar
    29    69    71   ar
    30    67    65   ar
    31    12    11    1
    32    64    63   ar
    33    15    14    1
    34    15    16    2
    35    48    46   ar
    36    48    47   ar
    37    71    70   ar
    38    14    13    1
    39    83    82    2
    40    46    44   ar
    41    88    85    1
    42    32    29    1
    43    29    28    1
    44    29    30    1
    45    85    84    1
    46    85    86    1
    47    11     9   ar
    48    11    10   ar
    49    65    63   ar
    50    65    68   ar
    51    63    62    1
    52     9     7   ar
    53    87    86    2
    54    47    45   ar
    55    82    81    1
    56    81    80    1
    57    70    68   ar
    58    44    43   ar
    59    86    96   am
    60    30    31    2
    61    10     8   ar
    62    56    55    2
    63    62    59    1
    64     7     6   ar
    65    45    43   ar
    66    59    58    1
    67    59    60    1
    68    43    42    1
    69    80    74   am
    70    61    60    2
    71    53    54    1
    72    53    50    1
    73    52    51    2
    74     4     3    2
    75    96    97    1
    76   104   102   ar
    77   104   106   ar
    78    58    51   am
    79    54    55    1
    80    55    57   am
    81    51    50    1
    82     8     6   ar
    83   102   101   ar
    84     6     5    1
    85    75    74    2
    86   118   117    1
    87    74    73    1
    88    50    49    1
    89    42    39    1
    90    97    98    1
    91    97   100    1
    92   106   105   ar
    93     3     2    1
    94   111   108    1
    95   107    98   am
    96   107   108    1
    97    98    99    2
    98    39    38    1
    99    39    40    1
   100   101   100    1
   101   101   103   ar
   102   108   109    1
   103     5     2    1
   104    78    76    1
   105   119   117    1
   106   117   116    1
   107     2     1    1
   108    73    76    1
   109    73    72    1
   110   105   103   ar
   111    76    77    1
   112   116   113    1
   113    40    41    2
   114   109   110    2
   115   113   112    1
   116   113   114    1
   117    77    79    1
   118   114   115    2
