@<TRIPOS>MOLECULE
tmp/3fmaC00.pdb
 102 102 0 0 0
SMALL
GASTEIGER

@<TRIPOS>ATOM
      1  N        -14.1880  -39.1540   27.6330 N.3    10  TYR10      -0.1241
      2  CA       -12.9220  -39.8690   27.7470 C.3    10  TYR10       0.1605
      3  C        -13.0540  -41.0670   28.6900 C.2    10  TYR10       0.2264
      4  O        -13.9580  -41.1260   29.5510 O.2    10  TYR10      -0.2867
      5  CB       -11.7590  -38.9450   28.1380 C.3    10  TYR10       0.0534
      6  CG       -11.8720  -38.3080   29.4910 C.ar   10  TYR10      -0.0201
      7  CD1      -11.4960  -39.0060   30.6450 C.ar   10  TYR10      -0.0009
      8  CD2      -12.3460  -36.9860   29.6280 C.ar   10  TYR10      -0.0009
      9  CE1      -11.6000  -38.4230   31.9040 C.ar   10  TYR10       0.0417
     10  CE2      -12.4500  -36.3850   30.8810 C.ar   10  TYR10       0.0417
     11  CZ       -12.0710  -37.1120   32.0130 C.ar   10  TYR10       0.1957
     12  OH       -12.1590  -36.5470   33.2660 O.3    10  TYR10      -0.2866
     13  N        -11.0350  -43.1710   31.5410 N.3    12  ASP12      -0.1225
     14  CA        -9.9120  -43.1180   32.4680 C.3    12  ASP12       0.1805
     15  C         -9.2470  -44.4940   32.5230 C.2    12  ASP12       0.2598
     16  O         -9.7740  -45.4680   31.9690 O.2    12  ASP12      -0.2718
     17  CB       -10.3360  -42.5890   33.8490 C.3    12  ASP12       0.1424
     18  CG       -11.1790  -43.5700   34.6590 C.2    12  ASP12       0.3668
     19  OD1      -11.2670  -44.7720   34.3340 O.co2  12  ASP12      -0.2456
     20  OD2      -11.7690  -43.1210   35.6670 O.co2  12  ASP12      -0.2456
     21  N         -8.1020  -44.5710   33.1970 N.am   13  THR13      -0.1939
     22  CA        -7.3150  -45.8110   33.2900 C.3    13  THR13       0.2028
     23  C         -8.0400  -46.9450   34.0290 C.2    13  THR13       0.2642
     24  O         -7.6120  -48.0870   33.9210 O.2    13  THR13      -0.2714
     25  CB        -5.8880  -45.5900   33.8850 C.3    13  THR13       0.1808
     26  OG1       -5.9930  -45.1900   35.2570 O.3    13  THR13      -0.2208
     27  CG2       -5.0850  -44.5550   33.0680 C.3    13  THR13       0.0379
     28  N         -9.1180  -46.6490   34.7560 N.am   14  GLN14      -0.1976
     29  CA        -9.9630  -47.7090   35.3460 C.3    14  GLN14       0.1601
     30  C        -11.0880  -48.1280   34.3870 C.2    14  GLN14       0.2287
     31  O        -11.9690  -48.8980   34.7660 O.2    14  GLN14      -0.2864
     32  CB       -10.6110  -47.3000   36.6860 C.3    14  GLN14       0.0394
     33  CG        -9.7650  -46.5300   37.6970 C.3    14  GLN14       0.0908
     34  CD        -8.4120  -47.1590   37.9450 C.2    14  GLN14       0.2608
     35  OE1       -7.3740  -46.5630   37.6330 O.2    14  GLN14      -0.2717
     36  NE2       -8.4110  -48.3760   38.4950 N.am   14  GLN14      -0.0878
     37  N        -16.0440  -40.7000   31.3720 N.3    18  HIS18      -0.1241
     38  CA       -16.4020  -39.3510   31.8310 C.3    18  HIS18       0.1621
     39  C        -16.8720  -38.4440   30.6960 C.2    18  HIS18       0.2264
     40  O        -16.3870  -38.5280   29.5590 O.2    18  HIS18      -0.2867
     41  CB       -15.2230  -38.7170   32.5460 C.3    18  HIS18       0.0745
     42  CG       -14.6950  -39.5390   33.6780 C.ar   18  HIS18       0.0817
     43  ND1      -15.0660  -39.3220   34.9880 N.ar   18  HIS18      -0.2268
     44  CD2      -13.8240  -40.5770   33.6960 C.ar   18  HIS18       0.1154
     45  CE1      -14.4440  -40.1930   35.7650 C.ar   18  HIS18       0.1986
     46  NE2      -13.6850  -40.9660   35.0050 N.ar   18  HIS18      -0.2212
     47  N        -18.2320  -33.4580   28.0590 N.3    21  PHE21      -0.1241
     48  CA       -17.6580  -32.1750   28.3920 C.3    21  PHE21       0.1605
     49  C        -17.4880  -31.3840   27.0870 C.2    21  PHE21       0.2264
     50  O        -17.2090  -31.9570   26.0080 O.2    21  PHE21      -0.2867
     51  CB       -16.3210  -32.3580   29.1080 C.3    21  PHE21       0.0534
     52  CG       -16.4010  -33.1650   30.3980 C.ar   21  PHE21      -0.0203
     53  CD1      -17.2310  -32.7620   31.4580 C.ar   21  PHE21      -0.0042
     54  CD2      -15.6310  -34.3180   30.5620 C.ar   21  PHE21      -0.0042
     55  CE1      -17.3030  -33.5070   32.6690 C.ar   21  PHE21      -0.0003
     56  CE2      -15.6890  -35.0670   31.7560 C.ar   21  PHE21      -0.0003
     57  CZ       -16.5280  -34.6650   32.8110 C.ar   21  PHE21      -0.0000
     58  N         -8.3480  -28.2320   30.1890 N.3    27  TRP27      -0.1241
     59  CA        -7.6430  -29.3810   30.7580 C.3    27  TRP27       0.1605
     60  C         -6.4220  -29.7730   29.9170 C.2    27  TRP27       0.2264
     61  O         -5.3960  -30.1610   30.4750 O.2    27  TRP27      -0.2867
     62  CB        -8.5610  -30.5840   30.9580 C.3    27  TRP27       0.0550
     63  CG        -9.4860  -30.5060   32.1310 C.ar   27  TRP27       0.0003
     64  CD1       -9.2280  -29.9490   33.3560 C.ar   27  TRP27       0.0946
     65  CD2      -10.8180  -31.0310   32.2030 C.ar   27  TRP27       0.0152
     66  NE1      -10.3220  -30.0870   34.1780 N.ar   27  TRP27      -0.2442
     67  CE2      -11.3130  -30.7440   33.4950 C.ar   27  TRP27       0.0810
     68  CE3      -11.6470  -31.7080   31.2960 C.ar   27  TRP27       0.0012
     69  CZ2      -12.6030  -31.1160   33.9060 C.ar   27  TRP27       0.0191
     70  CZ3      -12.9310  -32.0780   31.7020 C.ar   27  TRP27       0.0001
     71  CH2      -13.3930  -31.7810   32.9970 C.ar   27  TRP27       0.0015
     72  N         -3.2130  -31.8850   31.6260 N.3    32  TYR32      -0.1227
     73  CA        -3.7460  -33.0020   32.4060 C.3    32  TYR32       0.1736
     74  C         -3.9620  -34.2800   31.5930 C.2    32  TYR32       0.2595
     75  O         -4.1410  -35.3660   32.1550 O.2    32  TYR32      -0.2718
     76  CB        -5.0570  -32.5790   33.0530 C.3    32  TYR32       0.0548
     77  CG        -4.9310  -31.5980   34.2040 C.ar   32  TYR32      -0.0200
     78  CD1       -4.7180  -32.0470   35.5160 C.ar   32  TYR32      -0.0009
     79  CD2       -5.0390  -30.2210   33.9890 C.ar   32  TYR32      -0.0009
     80  CE1       -4.6090  -31.1430   36.5980 C.ar   32  TYR32       0.0417
     81  CE2       -4.9280  -29.3030   35.0640 C.ar   32  TYR32       0.0417
     82  CZ        -4.7140  -29.7740   36.3620 C.ar   32  TYR32       0.1957
     83  OH        -4.6090  -28.8850   37.4110 O.3    32  TYR32      -0.2866
     84  N         -3.9370  -34.1400   30.2720 N.am   33  PHE33      -0.1976
     85  CA        -4.1920  -35.2330   29.3560 C.3    33  PHE33       0.1639
     86  C         -2.9330  -35.9110   28.8220 C.2    33  PHE33       0.2290
     87  O         -2.0810  -35.2610   28.2090 O.2    33  PHE33      -0.2864
     88  CB        -4.9770  -34.7200   28.1480 C.3    33  PHE33       0.0560
     89  CG        -6.3880  -34.2920   28.4310 C.ar   33  PHE33      -0.0200
     90  CD1       -7.1080  -34.7800   29.5280 C.ar   33  PHE33      -0.0042
     91  CD2       -7.0140  -33.4060   27.5520 C.ar   33  PHE33      -0.0042
     92  CE1       -8.4270  -34.3820   29.7660 C.ar   33  PHE33      -0.0003
     93  CE2       -8.3350  -32.9930   27.7670 C.ar   33  PHE33      -0.0003
     94  CZ        -9.0440  -33.4870   28.8780 C.ar   33  PHE33      -0.0000
     95  N         -4.4910  -41.0690   26.0960 N.3    37  LEU37      -0.1245
     96  CA        -5.8850  -40.9720   26.5410 C.3    37  LEU37       0.1561
     97  C         -6.9220  -41.1230   25.4220 C.2    37  LEU37       0.2260
     98  O         -6.9350  -40.3440   24.4580 O.2    37  LEU37      -0.2867
     99  CB        -6.1240  -39.6480   27.2690 C.3    37  LEU37       0.0270
    100  CG        -7.5270  -39.3440   27.8070 C.3    37  LEU37       0.0019
    101  CD1       -7.8270  -40.0910   29.1150 C.3    37  LEU37       0.0001
    102  CD2       -7.6910  -37.8580   28.0120 C.3    37  LEU37       0.0001
@<TRIPOS>BOND
     1    98    97    2
     2    97    96    1
     3    50    49    2
     4    95    96    1
     5    96    99    1
     6    49    48    1
     7    99   100    1
     8    91    93   ar
     9    91    89   ar
    10     1     2    1
    11     2     5    1
    12     2     3    1
    13    93    94   ar
    14   100   102    1
    15   100   101    1
    16    47    48    1
    17     5     6    1
    18    88    89    1
    19    88    85    1
    20    87    86    2
    21    48    51    1
    22    89    90   ar
    23     3     4    2
    24    86    85    1
    25    94    92   ar
    26    51    52    1
    27    85    84    1
    28     6     8   ar
    29     6     7   ar
    30    90    92   ar
    31    40    39    2
    32     8    10   ar
    33    60    61    2
    34    60    59    1
    35    58    59    1
    36    84    74   am
    37    52    54   ar
    38    52    53   ar
    39    54    56   ar
    40     7     9   ar
    41    39    38    1
    42    59    62    1
    43    10    11   ar
    44    62    63    1
    45    68    70   ar
    46    68    65   ar
    47    37    38    1
    48    53    55   ar
    49    13    14    1
    50    74    75    2
    51    74    73    1
    52    72    73    1
    53    70    71   ar
    54    56    57   ar
    55    38    41    1
    56     9    11   ar
    57    16    15    2
    58    11    12    1
    59    63    65   ar
    60    63    64   ar
    61    65    67   ar
    62    73    76    1
    63    14    15    1
    64    14    17    1
    65    15    21   am
    66    41    42    1
    67    55    57   ar
    68    71    69   ar
    69    76    77    1
    70    27    25    1
    71    21    22    1
    72    22    25    1
    73    22    23    1
    74    64    66   ar
    75    67    69   ar
    76    67    66   ar
    77    42    44   ar
    78    42    43   ar
    79    44    46   ar
    80    17    18    1
    81    25    26    1
    82    24    23    2
    83    79    77   ar
    84    79    81   ar
    85    23    28   am
    86    77    78   ar
    87    19    18   ar
    88    30    31    2
    89    30    29    1
    90    18    20   ar
    91    28    29    1
    92    43    45   ar
    93    46    45   ar
    94    81    82   ar
    95    29    32    1
    96    78    80   ar
    97    82    80   ar
    98    82    83    1
    99    32    33    1
   100    35    34    2
   101    33    34    1
   102    34    36   am
