@<TRIPOS>MOLECULE
tmp/3fmaA00.pdb
 102 102 0 0 0
SMALL
GASTEIGER

@<TRIPOS>ATOM
      1  N        -36.6440  -48.1710   27.2450 N.3     8  TYR8       -0.1241
      2  CA       -37.9290  -47.4890   27.3660 C.3     8  TYR8        0.1605
      3  C        -37.8330  -46.3860   28.4110 C.2     8  TYR8        0.2264
      4  O        -36.9760  -46.4180   29.2990 O.2     8  TYR8       -0.2867
      5  CB       -39.0860  -48.4660   27.6590 C.3     8  TYR8        0.0534
      6  CG       -38.9830  -49.1750   28.9740 C.ar    8  TYR8       -0.0201
      7  CD1      -39.4180  -48.5500   30.1650 C.ar    8  TYR8       -0.0009
      8  CD2      -38.4580  -50.4810   29.0460 C.ar    8  TYR8       -0.0009
      9  CE1      -39.3250  -49.2020   31.4060 C.ar    8  TYR8        0.0417
     10  CE2      -38.3600  -51.1580   30.2940 C.ar    8  TYR8        0.0417
     11  CZ       -38.8000  -50.5020   31.4610 C.ar    8  TYR8        0.1957
     12  OH       -38.7160  -51.1240   32.6880 O.3     8  TYR8       -0.2866
     13  N        -39.8480  -44.4510   31.3730 N.3    10  ASP10      -0.1225
     14  CA       -40.9860  -44.5020   32.2750 C.3    10  ASP10       0.1805
     15  C        -41.6710  -43.1380   32.3960 C.2    10  ASP10       0.2598
     16  O        -41.2420  -42.1560   31.7850 O.2    10  ASP10      -0.2718
     17  CB       -40.5930  -45.0810   33.6430 C.3    10  ASP10       0.1424
     18  CG       -39.7240  -44.1600   34.4920 C.2    10  ASP10       0.3668
     19  OD1      -39.7290  -42.9180   34.3850 O.co2  10  ASP10      -0.2456
     20  OD2      -39.0040  -44.7260   35.3260 O.co2  10  ASP10      -0.2456
     21  N        -42.7210  -43.0770   33.2060 N.am   11  THR11      -0.1939
     22  CA       -43.5030  -41.8480   33.3590 C.3    11  THR11       0.2028
     23  C        -42.7720  -40.7380   34.1600 C.2    11  THR11       0.2642
     24  O        -43.1820  -39.5770   34.1040 O.2    11  THR11      -0.2714
     25  CB       -44.9330  -42.1480   33.9150 C.3    11  THR11       0.1808
     26  OG1      -44.8790  -42.3510   35.3320 O.3    11  THR11      -0.2208
     27  CG2      -45.5750  -43.3900   33.2150 C.3    11  THR11       0.0379
     28  N        -41.7030  -41.0880   34.8820 N.am   12  GLN12      -0.1976
     29  CA       -40.8510  -40.1090   35.5830 C.3    12  GLN12       0.1601
     30  C        -39.7180  -39.6570   34.6570 C.2    12  GLN12       0.2287
     31  O        -38.8450  -38.8720   35.0490 O.2    12  GLN12      -0.2864
     32  CB       -40.2680  -40.6470   36.9030 C.3    12  GLN12       0.0394
     33  CG       -41.2270  -41.3220   37.8910 C.3    12  GLN12       0.0908
     34  CD       -42.6050  -40.6480   38.0250 C.2    12  GLN12       0.2608
     35  OE1      -43.6350  -41.3240   37.8770 O.2    12  GLN12      -0.2717
     36  NE2      -42.6360  -39.3210   38.3020 N.am   12  GLN12      -0.0878
     37  N        -34.7930  -46.9150   31.0550 N.3    16  HIS16      -0.1241
     38  CA       -34.4800  -48.2640   31.5010 C.3    16  HIS16       0.1621
     39  C        -34.0330  -49.1070   30.3220 C.2    16  HIS16       0.2264
     40  O        -34.5100  -48.9260   29.1860 O.2    16  HIS16      -0.2867
     41  CB       -35.7070  -48.9110   32.1110 C.3    16  HIS16       0.0745
     42  CG       -36.2660  -48.1660   33.2750 C.ar   16  HIS16       0.0817
     43  ND1      -35.9050  -48.4460   34.5740 N.ar   16  HIS16      -0.2268
     44  CD2      -37.1600  -47.1510   33.3380 C.ar   16  HIS16       0.1154
     45  CE1      -36.5510  -47.6290   35.3870 C.ar   16  HIS16       0.1986
     46  NE2      -37.3190  -46.8340   34.6640 N.ar   16  HIS16      -0.2212
     47  N        -32.7480  -53.8810   27.3560 N.3    19  PHE19      -0.1241
     48  CA       -33.3290  -55.2040   27.6080 C.3    19  PHE19       0.1605
     49  C        -33.5090  -55.9320   26.2700 C.2    19  PHE19       0.2264
     50  O        -33.8270  -55.3130   25.2300 O.2    19  PHE19      -0.2867
     51  CB       -34.6590  -55.1440   28.3910 C.3    19  PHE19       0.0534
     52  CG       -34.5600  -54.4340   29.7190 C.ar   19  PHE19      -0.0203
     53  CD1      -33.7170  -54.9110   30.7320 C.ar   19  PHE19      -0.0042
     54  CD2      -35.3180  -53.2770   29.9640 C.ar   19  PHE19      -0.0042
     55  CE1      -33.6230  -54.2500   31.9700 C.ar   19  PHE19      -0.0003
     56  CE2      -35.2390  -52.5970   31.2000 C.ar   19  PHE19      -0.0003
     57  CZ       -34.3850  -53.0860   32.2030 C.ar   19  PHE19      -0.0000
     58  N        -42.5710  -59.2980   29.0600 N.3    25  TRP25      -0.1241
     59  CA       -43.2830  -58.2020   29.7060 C.3    25  TRP25       0.1605
     60  C        -44.5150  -57.7460   28.9310 C.2    25  TRP25       0.2264
     61  O        -45.5500  -57.4590   29.5500 O.2    25  TRP25      -0.2867
     62  CB       -42.3700  -57.0190   29.9160 C.3    25  TRP25       0.0550
     63  CG       -41.4310  -57.1390   31.0480 C.ar   25  TRP25       0.0003
     64  CD1      -41.6500  -57.7530   32.2570 C.ar   25  TRP25       0.0946
     65  CD2      -40.1110  -56.5900   31.1040 C.ar   25  TRP25       0.0152
     66  NE1      -40.5340  -57.6340   33.0550 N.ar   25  TRP25      -0.2442
     67  CE2      -39.5740  -56.9220   32.3750 C.ar   25  TRP25       0.0810
     68  CE3      -39.3210  -55.8610   30.2000 C.ar   25  TRP25       0.0012
     69  CZ2      -38.2760  -56.5430   32.7680 C.ar   25  TRP25       0.0191
     70  CZ3      -38.0330  -55.4810   30.5880 C.ar   25  TRP25       0.0001
     71  CH2      -37.5230  -55.8300   31.8670 C.ar   25  TRP25       0.0015
     72  N        -47.7810  -55.6250   30.7070 N.3    30  TYR30      -0.1227
     73  CA       -47.1870  -54.5850   31.5420 C.3    30  TYR30       0.1736
     74  C        -46.9980  -53.2490   30.8600 C.2    30  TYR30       0.2595
     75  O        -46.8800  -52.2130   31.5270 O.2    30  TYR30      -0.2718
     76  CB       -45.8400  -55.0630   32.0630 C.3    30  TYR30       0.0548
     77  CG       -45.9710  -56.1090   33.1320 C.ar   30  TYR30      -0.0200
     78  CD1      -46.3650  -55.7530   34.4350 C.ar   30  TYR30      -0.0009
     79  CD2      -45.7080  -57.4540   32.8520 C.ar   30  TYR30      -0.0009
     80  CE1      -46.4970  -56.7050   35.4330 C.ar   30  TYR30       0.0417
     81  CE2      -45.8370  -58.4260   33.8510 C.ar   30  TYR30       0.0417
     82  CZ       -46.2320  -58.0390   35.1330 C.ar   30  TYR30       0.1957
     83  OH       -46.3610  -58.9810   36.1280 O.3    30  TYR30      -0.2866
     84  N        -46.9710  -53.2930   29.5340 N.am   31  PHE31      -0.1976
     85  CA       -46.7060  -52.1350   28.7160 C.3    31  PHE31       0.1639
     86  C        -47.9620  -51.4500   28.2290 C.2    31  PHE31       0.2290
     87  O        -48.8450  -52.0980   27.6620 O.2    31  PHE31      -0.2864
     88  CB       -45.8830  -52.5480   27.4950 C.3    31  PHE31       0.0560
     89  CG       -44.4840  -53.0130   27.8100 C.ar   31  PHE31      -0.0200
     90  CD1      -43.7630  -52.4870   28.8920 C.ar   31  PHE31      -0.0042
     91  CD2      -43.8700  -53.9730   26.9890 C.ar   31  PHE31      -0.0042
     92  CE1      -42.4550  -52.9210   29.1620 C.ar   31  PHE31      -0.0003
     93  CE2      -42.5650  -54.4130   27.2510 C.ar   31  PHE31      -0.0003
     94  CZ       -41.8600  -53.8790   28.3420 C.ar   31  PHE31      -0.0000
     95  N        -46.3700  -46.0940   26.0200 N.3    35  LEU35      -0.1245
     96  CA       -44.9710  -46.2270   26.4390 C.3    35  LEU35       0.1561
     97  C        -44.0010  -45.9830   25.2930 C.2    35  LEU35       0.2260
     98  O        -44.0760  -46.6470   24.2580 O.2    35  LEU35      -0.2867
     99  CB       -44.6930  -47.6040   27.0290 C.3    35  LEU35       0.0270
    100  CG       -43.2530  -47.9490   27.4360 C.3    35  LEU35       0.0019
    101  CD1      -42.8430  -47.2540   28.7400 C.3    35  LEU35       0.0001
    102  CD2      -43.1390  -49.4400   27.5810 C.3    35  LEU35       0.0001
@<TRIPOS>BOND
     1    98    97    2
     2    50    49    2
     3    97    96    1
     4    95    96    1
     5    49    48    1
     6    96    99    1
     7    91    93   ar
     8    91    89   ar
     9    99   100    1
    10     1     2    1
    11    93    94   ar
    12    47    48    1
    13     2     5    1
    14     2     3    1
    15   100   102    1
    16   100   101    1
    17    88    89    1
    18    88    85    1
    19    48    51    1
    20     5     6    1
    21    87    86    2
    22    89    90   ar
    23    86    85    1
    24    94    92   ar
    25    51    52    1
    26     3     4    2
    27    85    84    1
    28    90    92   ar
    29    60    61    2
    30    60    59    1
    31     6     8   ar
    32     6     7   ar
    33     8    10   ar
    34    58    59    1
    35    40    39    2
    36    84    74   am
    37    59    62    1
    38    52    54   ar
    39    52    53   ar
    40    62    63    1
    41    54    56   ar
    42     7     9   ar
    43    68    70   ar
    44    68    65   ar
    45    10    11   ar
    46    39    38    1
    47    70    71   ar
    48    72    73    1
    49    53    55   ar
    50    74    75    2
    51    74    73    1
    52    63    65   ar
    53    63    64   ar
    54    37    38    1
    55    65    67   ar
    56    56    57   ar
    57    13    14    1
    58     9    11   ar
    59    11    12    1
    60    38    41    1
    61    73    76    1
    62    16    15    2
    63    71    69   ar
    64    55    57   ar
    65    76    77    1
    66    41    42    1
    67    64    66   ar
    68    14    15    1
    69    14    17    1
    70    67    69   ar
    71    67    66   ar
    72    15    21   am
    73    79    77   ar
    74    79    81   ar
    75    77    78   ar
    76    21    22    1
    77    27    25    1
    78    42    44   ar
    79    42    43   ar
    80    44    46   ar
    81    22    25    1
    82    22    23    1
    83    17    18    1
    84    81    82   ar
    85    25    26    1
    86    24    23    2
    87    23    28   am
    88    19    18   ar
    89    78    80   ar
    90    18    20   ar
    91    43    45   ar
    92    30    31    2
    93    30    29    1
    94    46    45   ar
    95    28    29    1
    96    82    80   ar
    97    82    83    1
    98    29    32    1
    99    32    33    1
   100    35    34    2
   101    33    34    1
   102    34    36   am
