@<TRIPOS>MOLECULE
tmp/3fmdA00.pdb
 203 197 0 0 0
SMALL
GASTEIGER

@<TRIPOS>ATOM
      1  N        -20.5630  -11.8350   13.8450 N.3    21  ILE21      -0.1231
      2  CA       -19.8180  -11.1320   14.9290 C.3    21  ILE21       0.1692
      3  C        -19.1950   -9.7720   14.5860 C.2    21  ILE21       0.2593
      4  O        -18.8840   -8.9720   15.4690 O.2    21  ILE21      -0.2718
      5  CB       -18.7940  -12.0860   15.5830 C.3    21  ILE21       0.0266
      6  CG1      -17.7000  -12.5320   14.5820 C.3    21  ILE21       0.0019
      7  CG2      -19.5600  -13.2950   16.1520 C.3    21  ILE21       0.0020
      8  CD1      -16.4910  -13.1270   15.2510 C.3    21  ILE21       0.0001
      9  N        -19.0670   -9.4570   13.3080 N.am   22  GLY22      -0.1942
     10  CA       -18.5960   -8.1440   12.9390 C.3    22  GLY22       0.2014
     11  C        -18.8590   -7.8560   11.4780 C.2    22  GLY22       0.2638
     12  O        -19.3310   -8.7180   10.7410 O.2    22  GLY22      -0.2714
     13  N        -18.4950   -6.6410   11.0810 N.am   23  GLU23      -0.1977
     14  CA       -18.7030   -6.1560    9.7330 C.3    23  GLU23       0.1602
     15  C        -17.7880   -5.0090    9.3840 C.2    23  GLU23       0.2287
     16  O        -17.0780   -4.4550   10.2280 O.2    23  GLU23      -0.2864
     17  CB       -20.1460   -5.7010    9.5670 C.3    23  GLU23       0.0415
     18  CG       -20.5440   -4.4960   10.4260 C.3    23  GLU23       0.1163
     19  CD       -21.9960   -4.0370   10.2130 C.2    23  GLU23       0.3649
     20  OE1      -22.8710   -4.8930    9.9480 O.co2  23  GLU23      -0.2457
     21  OE2      -22.2680   -2.8040   10.3280 O.co2  23  GLU23      -0.2457
     22  N        -15.7470   -3.8980    3.8420 N.3    26  PHE26      -0.1241
     23  CA       -15.2720   -5.1360    3.2300 C.3    26  PHE26       0.1605
     24  C        -16.3120   -6.2270    3.1090 C.2    26  PHE26       0.2264
     25  O        -16.2070   -7.0620    2.2270 O.2    26  PHE26      -0.2867
     26  CB       -14.0680   -5.7300    3.9990 C.3    26  PHE26       0.0534
     27  CG       -14.4100   -6.2340    5.3670 C.ar   26  PHE26      -0.0203
     28  CD1      -14.1120   -5.4720    6.4890 C.ar   26  PHE26      -0.0042
     29  CD2      -15.0500   -7.4520    5.5400 C.ar   26  PHE26      -0.0042
     30  CE1      -14.4430   -5.9400    7.7720 C.ar   26  PHE26      -0.0003
     31  CE2      -15.3920   -7.9070    6.8180 C.ar   26  PHE26      -0.0003
     32  CZ       -15.0950   -7.1380    7.9250 C.ar   26  PHE26      -0.0000
     33  N        -18.3080  -10.8160    9.0500 N.3    29  VAL29      -0.1245
     34  CA       -17.5210  -11.8400    9.8090 C.3    29  VAL29       0.1561
     35  C        -18.5200  -12.6370   10.5950 C.2    29  VAL29       0.2260
     36  O        -19.4140  -12.0570   11.2650 O.2    29  VAL29      -0.2867
     37  CB       -16.4410  -11.2210   10.7250 C.3    29  VAL29       0.0252
     38  CG1      -15.5230  -12.2860   11.2870 C.3    29  VAL29       0.0019
     39  CG2      -15.6460  -10.2110    9.9530 C.3    29  VAL29       0.0019
     40  N        -13.3800  -17.5000   13.2210 N.3    40  ALA40      -0.1245
     41  CA       -13.9530  -16.2630   12.6640 C.3    40  ALA40       0.1562
     42  C        -13.7740  -16.3400   11.1630 C.2    40  ALA40       0.2260
     43  O        -12.6640  -16.6340   10.7000 O.2    40  ALA40      -0.2867
     44  CB       -13.3000  -14.9970   13.2880 C.3    40  ALA40       0.0290
     45  N        -14.3220  -14.4140    7.6150 N.3    42  LYS42      -0.1245
     46  CA       -14.4500  -13.1380    6.9340 C.3    42  LYS42       0.1561
     47  C        -14.8070  -13.4160    5.5010 C.2    42  LYS42       0.2260
     48  O        -14.0770  -14.1440    4.8250 O.2    42  LYS42      -0.2867
     49  CB       -13.1220  -12.3680    7.0130 C.3    42  LYS42       0.0271
     50  CG       -13.2040  -10.8920    6.5620 C.3    42  LYS42       0.0035
     51  CD       -11.8500  -10.1900    6.7000 C.3    42  LYS42       0.0206
     52  CE       -11.8280   -8.7170    6.1730 C.3    42  LYS42       0.1093
     53  NZ       -10.4970   -8.0090    6.3480 N.3    42  LYS42      -0.1314
     54  N         -3.0890  -12.6510   13.8860 N.3    88  ILE88      -0.1245
     55  CA        -4.1920  -13.5860   13.9180 C.3    88  ILE88       0.1561
     56  C         -3.7900  -14.8220   13.1220 C.2    88  ILE88       0.2260
     57  O         -3.1970  -14.7330   12.0330 O.2    88  ILE88      -0.2867
     58  CB        -5.4940  -12.9490   13.4190 C.3    88  ILE88       0.0252
     59  CG1       -6.6980  -13.8490   13.7420 C.3    88  ILE88       0.0019
     60  CG2       -5.3860  -12.5410   11.9450 C.3    88  ILE88       0.0019
     61  CD1       -7.2280  -13.6910   15.1710 C.3    88  ILE88       0.0001
     62  N        -10.1800  -17.4710   10.0220 N.3   136  PHE136     -0.1227
     63  CA        -9.2150  -17.1860   11.0610 C.3   136  PHE136      0.1736
     64  C         -9.5180  -17.9530   12.3230 C.2   136  PHE136      0.2595
     65  O        -10.6810  -18.1790   12.7200 O.2   136  PHE136     -0.2718
     66  CB        -9.2050  -15.6960   11.4460 C.3   136  PHE136      0.0547
     67  CG        -8.7970  -14.7940   10.3310 C.ar  136  PHE136     -0.0202
     68  CD1       -7.4590  -14.6250   10.0040 C.ar  136  PHE136     -0.0042
     69  CD2       -9.7450  -14.1000    9.6140 C.ar  136  PHE136     -0.0042
     70  CE1       -7.0830  -13.7870    8.9980 C.ar  136  PHE136     -0.0003
     71  CE2       -9.3620  -13.2670    8.5910 C.ar  136  PHE136     -0.0003
     72  CZ        -8.0320  -13.1100    8.2810 C.ar  136  PHE136     -0.0000
     73  N         -8.4400  -18.3200   12.9890 N.am  137  GLU137     -0.1965
     74  CA        -8.4980  -18.7150   14.3820 C.3   137  GLU137      0.1733
     75  C         -9.1590  -17.5620   15.1490 C.2   137  GLU137      0.2616
     76  O         -8.9170  -16.4050   14.8510 O.2   137  GLU137     -0.2715
     77  CB        -7.0500  -18.9820   14.7940 C.3   137  GLU137      0.0429
     78  CG        -6.7580  -19.2170   16.2190 C.3   137  GLU137      0.1163
     79  CD        -5.4700  -20.0280   16.3680 C.2   137  GLU137      0.3649
     80  OE1       -4.5630  -19.8930   15.5170 O.co2 137  GLU137     -0.2457
     81  OE2       -5.3900  -20.8180   17.3200 O.co2 137  GLU137     -0.2457
     82  N        -10.0390  -17.8820   16.0870 N.am  138  PHE138     -0.1960
     83  CA       -10.7800  -16.8550   16.8630 C.3   138  PHE138      0.1771
     84  C         -9.8730  -16.0710   17.8400 C.2   138  PHE138      0.2620
     85  O         -9.1610  -16.6650   18.6560 O.2   138  PHE138     -0.2715
     86  CB       -11.9570  -17.4830   17.6160 C.3   138  PHE138      0.0574
     87  CG       -12.8290  -16.4750   18.3550 C.ar  138  PHE138     -0.0200
     88  CD1      -13.8060  -15.7510   17.6780 C.ar  138  PHE138     -0.0042
     89  CD2      -12.6760  -16.2610   19.7220 C.ar  138  PHE138     -0.0042
     90  CE1      -14.6200  -14.8330   18.3460 C.ar  138  PHE138     -0.0003
     91  CE2      -13.5000  -15.3340   20.4050 C.ar  138  PHE138     -0.0003
     92  CZ       -14.4690  -14.6230   19.6980 C.ar  138  PHE138     -0.0000
     93  N         -9.9130  -14.7390   17.7590 N.am  139  GLY139     -0.1940
     94  CA        -8.9280  -13.9100   18.3970 C.3   139  GLY139      0.2014
     95  C         -9.4380  -13.1590   19.5900 C.2   139  GLY139      0.2639
     96  O         -8.6650  -12.5040   20.2890 O.2   139  GLY139     -0.2714
     97  N        -10.7400  -13.2210   19.8000 N.am  140  GLY140     -0.1939
     98  CA       -11.3950  -12.5030   20.8840 C.3   140  GLY140      0.2014
     99  C        -12.1200  -11.2320   20.4410 C.2   140  GLY140      0.2639
    100  O        -12.6980  -11.1590   19.3410 O.2   140  GLY140     -0.2714
    101  N        -12.0630  -10.2360   21.3250 N.am  141  ILE141     -0.1963
    102  CA       -12.9010   -9.0220   21.2940 C.3   141  ILE141      0.1727
    103  C        -11.9450   -7.8450   21.1500 C.2   141  ILE141      0.2616
    104  O        -10.8880   -7.8250   21.7860 O.2   141  ILE141     -0.2715
    105  CB       -13.6850   -8.8610   22.6110 C.3   141  ILE141      0.0290
    106  CG1      -14.4940  -10.1380   22.9090 C.3   141  ILE141      0.0022
    107  CG2      -14.6450   -7.6410   22.5650 C.3   141  ILE141      0.0023
    108  CD1      -15.4980  -10.5180   21.7640 C.3   141  ILE141      0.0001
    109  N        -12.2720   -6.9110   20.2830 N.am  142  ASP142     -0.1971
    110  CA       -11.3650   -5.7980   20.0030 C.3   142  ASP142      0.1709
    111  C        -11.2160   -4.8670   21.2030 C.2   142  ASP142      0.2293
    112  O        -12.1000   -4.7830   22.0450 O.2   142  ASP142     -0.2864
    113  CB       -11.7890   -5.0410   18.7510 C.3   142  ASP142      0.1436
    114  CG       -13.1080   -4.3440   18.9020 C.2   142  ASP142      0.3671
    115  OD1      -13.1490   -3.2510   19.5160 O.co2 142  ASP142     -0.2456
    116  OD2      -14.1020   -4.8860   18.4070 O.co2 142  ASP142     -0.2456
    117  N        -11.5120   -1.6750   21.3790 N.3   144  GLU144     -0.1231
    118  CA       -12.5260   -0.6300   21.5710 C.3   144  GLU144      0.1699
    119  C        -13.6650   -1.2150   22.3930 C.2   144  GLU144      0.2592
    120  O        -14.1680   -0.5620   23.3100 O.2   144  GLU144     -0.2718
    121  CB       -13.0640   -0.0520   20.2610 C.3   144  GLU144      0.0402
    122  CG       -14.2050    0.9630   20.4410 C.3   144  GLU144      0.1161
    123  CD       -14.7280    1.5050   19.1170 C.2   144  GLU144      0.3649
    124  OE1      -15.0650    0.7050   18.2540 O.co2 144  GLU144     -0.2457
    125  OE2      -14.8110    2.7330   18.9470 O.co2 144  GLU144     -0.2457
    126  N        -14.0800   -2.4370   22.0580 N.am  145  GLN145     -0.1979
    127  CA       -15.1300   -3.0980   22.8180 C.3   145  GLN145      0.1601
    128  C        -14.7280   -3.4280   24.2690 C.2   145  GLN145      0.2287
    129  O        -15.5940   -3.5370   25.1550 O.2   145  GLN145     -0.2864
    130  CB       -15.4970   -4.4320   22.1550 C.3   145  GLN145      0.0394
    131  CG       -16.3370   -4.3830   20.9090 C.3   145  GLN145      0.0908
    132  CD       -16.9880   -5.7350   20.6460 C.2   145  GLN145      0.2608
    133  OE1      -17.6660   -6.2750   21.5130 O.2   145  GLN145     -0.2717
    134  NE2      -16.7640   -6.2910   19.4690 N.am  145  GLN145     -0.0878
    135  N         -5.7160    0.6260   14.2390 N.3   182  HIS182     -0.1226
    136  CA        -6.6260    1.3410   15.1080 C.3   182  HIS182      0.1752
    137  C         -7.1300    0.3290   16.1530 C.2   182  HIS182      0.2596
    138  O         -6.8420   -0.9070   16.0550 O.2   182  HIS182     -0.2718
    139  CB        -7.7170    2.0420   14.2750 C.3   182  HIS182      0.0759
    140  CG        -8.5840    1.1080   13.5170 C.ar  182  HIS182      0.0818
    141  ND1       -9.3370    0.1480   14.1500 N.ar  182  HIS182     -0.2268
    142  CD2       -8.7760    0.9320   12.1860 C.ar  182  HIS182      0.1154
    143  CE1       -9.9720   -0.5700   13.2420 C.ar  182  HIS182      0.1986
    144  NE2       -9.6490   -0.1170   12.0450 N.ar  182  HIS182     -0.2212
    145  N         -7.8480    0.8050   17.1730 N.am  183  TRP183     -0.1962
    146  CA        -8.2190   -0.0930   18.2840 C.3   183  TRP183      0.1771
    147  C         -9.3060   -1.1110   17.9740 C.2   183  TRP183      0.2620
    148  O         -9.5350   -2.0130   18.7730 O.2   183  TRP183     -0.2715
    149  CB        -8.5340    0.6790   19.5650 C.3   183  TRP183      0.0590
    150  CG        -9.7250    1.6370   19.5390 C.ar  183  TRP183      0.0006
    151  CD1      -10.4300    2.1030   18.4520 C.ar  183  TRP183      0.0946
    152  CD2      -10.2660    2.3100   20.6730 C.ar  183  TRP183      0.0152
    153  NE1      -11.4110    2.9770   18.8620 N.ar  183  TRP183     -0.2442
    154  CE2      -11.3350    3.1100   20.2200 C.ar  183  TRP183      0.0810
    155  CE3       -9.9910    2.2610   22.0440 C.ar  183  TRP183      0.0012
    156  CZ2      -12.0960    3.8950   21.0870 C.ar  183  TRP183      0.0191
    157  CZ3      -10.7620    3.0390   22.9020 C.ar  183  TRP183      0.0001
    158  CH2      -11.7940    3.8340   22.4120 C.ar  183  TRP183      0.0015
    159  N         -9.9710   -0.9930   16.8250 N.am  184  GLY184     -0.1940
    160  CA       -10.7360   -2.1310   16.3190 C.3   184  GLY184      0.2014
    161  C         -9.9670   -3.3460   15.7840 C.2   184  GLY184      0.2638
    162  O        -10.5760   -4.4010   15.5850 O.2   184  GLY184     -0.2714
    163  N         -8.6500   -3.1850   15.5580 N.am  185  ASN185     -0.1972
    164  CA        -7.7590   -4.2240   15.0330 C.3   185  ASN185      0.1688
    165  C         -6.7820   -4.8560   16.0050 C.2   185  ASN185      0.2292
    166  O         -5.8070   -5.4960   15.6040 O.2   185  ASN185     -0.2864
    167  CB        -6.9980   -3.6780   13.8460 C.3   185  ASN185      0.1181
    168  CG        -7.9140   -3.3460   12.6960 C.2   185  ASN185      0.2629
    169  OD1       -9.0140   -3.8870   12.6170 O.2   185  ASN185     -0.2716
    170  ND2       -7.4740   -2.4480   11.8000 N.am  185  ASN185     -0.0877
    171  N         -7.3000   -7.4400   18.9620 N.3   187  LEU187     -0.1245
    172  CA        -8.1790   -8.3550   19.6760 C.3   187  LEU187      0.1561
    173  C         -7.5410   -8.9320   20.9250 C.2   187  LEU187      0.2260
    174  O         -6.3300   -9.2040   20.9610 O.2   187  LEU187     -0.2867
    175  CB        -8.5850   -9.5340   18.7890 C.3   187  LEU187      0.0270
    176  CG        -9.1390   -9.2100   17.3900 C.3   187  LEU187      0.0019
    177  CD1       -9.6630  -10.4840   16.7610 C.3   187  LEU187      0.0001
    178  CD2      -10.2350   -8.1780   17.5000 C.3   187  LEU187      0.0001
    179  N         -5.0470   -7.9230   13.6740 N.3   217  ILE217     -0.1231
    180  CA        -5.8630   -8.3080   12.5380 C.3   217  ILE217      0.1692
    181  C         -5.9330   -7.1360   11.5700 C.2   217  ILE217      0.2592
    182  O         -5.4570   -6.0460   11.9020 O.2   217  ILE217     -0.2718
    183  CB        -7.3300   -8.6620   12.9450 C.3   217  ILE217      0.0266
    184  CG1       -8.0930   -7.4310   13.5220 C.3   217  ILE217      0.0019
    185  CG2       -7.3670   -9.7800   14.0820 C.3   217  ILE217      0.0020
    186  CD1       -9.6680   -7.6170   13.5880 C.3   217  ILE217      0.0001
    187  N         -6.5380   -7.4010   10.4030 N.am  218  ASP218     -0.1974
    188  CA        -6.8620   -6.4090    9.3250 C.3   218  ASP218      0.1709
    189  C         -5.6440   -5.8450    8.5910 C.2   218  ASP218      0.2293
    190  O         -5.0140   -4.8640    9.0250 O.2   218  ASP218     -0.2864
    191  CB        -7.7430   -5.2790    9.8600 C.3   218  ASP218      0.1436
    192  CG        -8.5040   -4.5690    8.7430 C.2   218  ASP218      0.3671
    193  OD1       -8.2710   -4.8580    7.5490 O.co2 218  ASP218     -0.2456
    194  OD2       -9.3310   -3.7170    9.0610 O.co2 218  ASP218     -0.2456
    195  N         -6.5520    9.0460   15.4840 N.3   249  GLN249     -0.1245
    196  CA        -6.4310    8.0420   14.4410 C.3   249  GLN249      0.1566
    197  C         -6.1830    8.7070   13.1070 C.2   249  GLN249      0.2260
    198  O         -5.3400    8.2620   12.3130 O.2   249  GLN249     -0.2867
    199  CB        -7.7230    7.2130   14.3380 C.3   249  GLN249      0.0367
    200  CG        -7.7610    6.1740   13.1940 C.3   249  GLN249      0.0905
    201  CD        -9.0980    5.4370   13.0660 C.2   249  GLN249      0.2608
    202  OE1       -9.9510    5.5170   13.9490 O.2   249  GLN249     -0.2717
    203  NE2       -9.2940    4.7420   11.9320 N.am  249  GLN249     -0.0878
@<TRIPOS>BOND
     1    25    24    2
     2    24    23    1
     3    23    22    1
     4    23    26    1
     5    26    27    1
     6    48    47    2
     7    27    29   ar
     8    27    28   ar
     9    47    46    1
    10    29    31   ar
    11    52    53    1
    12    52    51    1
    13    28    30   ar
    14    50    51    1
    15    50    49    1
    16    31    32   ar
    17    46    49    1
    18    46    45    1
    19   193   192   ar
    20    30    32   ar
    21    72    71   ar
    22    72    70   ar
    23   189   190    2
    24   189   188    1
    25    71    69   ar
    26   192   194   ar
    27   192   191    1
    28    70    68   ar
    29    33    34    1
    30   188   191    1
    31   188   187    1
    32    15    14    1
    33    15    16    2
    34    17    14    1
    35    17    18    1
    36    69    67   ar
    37    14    13    1
    38    34    35    1
    39    34    37    1
    40    20    19   ar
    41    39    37    1
    42    68    67   ar
    43    62    63    1
    44    19    21   ar
    45    19    18    1
    46    67    66    1
    47   187   181   am
    48    35    36    2
    49    43    42    2
    50    37    38    1
    51    12    11    2
    52    63    66    1
    53    63    64    1
    54    13    11   am
    55    42    41    1
    56    11    10    1
    57   181   182    2
    58   181   180    1
    59   170   168   am
    60   203   201   am
    61    60    58    1
    62    57    56    2
    63   144   142   ar
    64   144   143   ar
    65   142   140   ar
    66   198   197    2
    67    64    65    2
    68    64    73   am
    69   180   183    1
    70   180   179    1
    71   169   168    2
    72    41    40    1
    73    41    44    1
    74   168   167    1
    75    10     9    1
    76   183   184    1
    77   183   185    1
    78    73    74    1
    79   201   200    1
    80   201   202    2
    81   197   196    1
    82    56    55    1
    83   200   199    1
    84   143   141   ar
    85     9     3   am
    86    58    59    1
    87    58    55    1
    88   140   141   ar
    89   140   139    1
    90   184   186    1
    91    59    61    1
    92     1     2    1
    93   167   164    1
    94    54    55    1
    95   135   136    1
    96   139   136    1
    97   199   196    1
    98    74    77    1
    99    74    75    1
   100   196   195    1
   101     6     8    1
   102     6     5    1
   103     3     2    1
   104     3     4    2
   105    77    78    1
   106    76    75    2
   107     2     5    1
   108   164   163    1
   109   164   165    1
   110   136   137    1
   111    75    82   am
   112    80    79   ar
   113   163   161   am
   114     5     7    1
   115   162   161    2
   116   166   165    2
   117   161   160    1
   118   138   137    2
   119    82    83    1
   120   137   145   am
   121    78    79    1
   122   160   159    1
   123    79    81   ar
   124   177   176    1
   125   159   147   am
   126    83    86    1
   127    83    84    1
   128   145   146    1
   129   176   178    1
   130   176   175    1
   131    86    87    1
   132    88    90   ar
   133    88    87   ar
   134    93    84   am
   135    93    94    1
   136    84    85    2
   137   147   146    1
   138   147   148    2
   139   124   123   ar
   140   146   149    1
   141    90    92   ar
   142    87    89   ar
   143    94    95    1
   144   116   114   ar
   145   151   153   ar
   146   151   150   ar
   147   113   114    1
   148   113   110    1
   149   175   172    1
   150   153   154   ar
   151   114   115   ar
   152   125   123   ar
   153   171   172    1
   154   123   122    1
   155   100    99    2
   156   134   132   am
   157   150   149    1
   158   150   152   ar
   159    95    97   am
   160    95    96    2
   161   172   173    1
   162    92    91   ar
   163    89    91   ar
   164    97    98    1
   165   110   109    1
   166   110   111    1
   167   154   152   ar
   168   154   156   ar
   169   121   122    1
   170   121   118    1
   171   109   103   am
   172    99    98    1
   173    99   101   am
   174   132   131    1
   175   132   133    2
   176   152   155   ar
   177   131   130    1
   178   173   174    2
   179   156   158   ar
   180   103   102    1
   181   103   104    2
   182   111   112    2
   183   102   101    1
   184   102   105    1
   185   117   118    1
   186   118   119    1
   187   108   106    1
   188   155   157   ar
   189   126   119   am
   190   126   127    1
   191   130   127    1
   192   119   120    2
   193   158   157   ar
   194   107   105    1
   195   105   106    1
   196   127   128    1
   197   128   129    2
