@<TRIPOS>MOLECULE
tmp/3fmfA01.pdb
 122 114 0 0 0
SMALL
GASTEIGER

@<TRIPOS>ATOM
      1  N         -3.1090   29.2480  -25.8000 N.3    15  THR15      -0.1218
      2  CA        -3.2380   30.6230  -25.3150 C.3    15  THR15       0.1862
      3  C         -4.4420   31.2920  -25.9680 C.2    15  THR15       0.2287
      4  O         -4.8430   30.9260  -27.0800 O.2    15  THR15      -0.2866
      5  CB        -1.9630   31.4550  -25.6010 C.3    15  THR15       0.1770
      6  OG1       -1.7500   31.5490  -27.0130 O.3    15  THR15      -0.2211
      7  CG2       -0.7470   30.8050  -24.9590 C.3    15  THR15       0.0375
      8  N         -9.6100   31.0450  -20.8980 N.3    19  LYS19      -0.1245
      9  CA        -9.5610   30.4710  -19.5420 C.3    19  LYS19       0.1561
     10  C        -10.0630   31.4060  -18.4460 C.2    19  LYS19       0.2260
     11  O        -10.6400   30.9590  -17.4600 O.2    19  LYS19      -0.2867
     12  CB        -8.1460   30.0040  -19.1780 C.3    19  LYS19       0.0271
     13  CG        -7.6340   28.8020  -19.9730 C.3    19  LYS19       0.0035
     14  CD        -6.3770   28.2110  -19.3380 C.3    19  LYS19       0.0206
     15  CE        -5.3370   29.2700  -19.0530 C.3    19  LYS19       0.1093
     16  NZ        -4.7770   29.8340  -20.2820 N.3    19  LYS19      -0.1314
     17  N         -4.4750   31.9620   -9.3050 N.3    41  LYS41      -0.1245
     18  CA        -3.5800   32.0340  -10.4530 C.3    41  LYS41       0.1561
     19  C         -2.1550   32.0940   -9.9270 C.2    41  LYS41       0.2260
     20  O         -1.6330   33.1700   -9.6560 O.2    41  LYS41      -0.2867
     21  CB        -3.8930   33.2610  -11.3170 C.3    41  LYS41       0.0271
     22  CG        -2.9290   33.4510  -12.5080 C.3    41  LYS41       0.0035
     23  CD        -3.5050   32.9060  -13.8170 C.3    41  LYS41       0.0206
     24  CE        -2.7090   33.4530  -15.0090 C.3    41  LYS41       0.1093
     25  NZ        -3.1660   32.9340  -16.3300 N.3    41  LYS41      -0.1314
     26  N          0.7500   31.5170  -11.2520 N.3    43  VAL43      -0.1231
     27  CA         1.7500   32.1170  -12.1390 C.3    43  VAL43       0.1692
     28  C          1.0850   33.0030  -13.1980 C.2    43  VAL43       0.2592
     29  O          0.3080   32.5250  -14.0370 O.2    43  VAL43      -0.2718
     30  CB         2.6220   31.0570  -12.8470 C.3    43  VAL43       0.0266
     31  CG1        3.6240   31.7410  -13.8040 C.3    43  VAL43       0.0020
     32  CG2        3.3480   30.1550  -11.8300 C.3    43  VAL43       0.0020
     33  N          1.3910   34.2960  -13.1380 N.am   44  GLN44      -0.1966
     34  CA         0.8400   35.2860  -14.0600 C.3    44  GLN44       0.1733
     35  C          1.9680   35.9620  -14.8220 C.2    44  GLN44       0.2617
     36  O          2.8670   36.5260  -14.2170 O.2    44  GLN44      -0.2715
     37  CB         0.0740   36.3580  -13.2790 C.3    44  GLN44       0.0408
     38  CG        -0.4410   37.5050  -14.1350 C.3    44  GLN44       0.0908
     39  CD        -1.7750   37.1940  -14.8050 C.2    44  GLN44       0.2608
     40  OE1       -2.8040   37.0520  -14.1390 O.2    44  GLN44      -0.2717
     41  NE2       -1.7620   37.0950  -16.1210 N.am   44  GLN44      -0.0878
     42  N          1.9520   35.8930  -16.1480 N.am   45  THR45      -0.1951
     43  CA         2.9140   36.6840  -16.9210 C.3    45  THR45       0.1897
     44  C          2.1900   37.8000  -17.6770 C.2    45  THR45       0.2313
     45  O          0.9740   37.8210  -17.7220 O.2    45  THR45      -0.2863
     46  CB         3.7830   35.8140  -17.8640 C.3    45  THR45       0.1794
     47  OG1        3.0570   35.4930  -19.0560 O.3    45  THR45      -0.2208
     48  CG2        4.2070   34.5160  -17.1660 C.3    45  THR45       0.0378
     49  N          2.1040   44.3920  -19.4040 N.3    49  ARG49      -0.1245
     50  CA         1.1740   44.7760  -20.4700 C.3    49  ARG49       0.1563
     51  C         -0.2340   44.9540  -19.9250 C.2    49  ARG49       0.2260
     52  O         -1.1840   45.1610  -20.6810 O.2    49  ARG49      -0.2867
     53  CB         1.1710   43.7850  -21.6480 C.3    49  ARG49       0.0307
     54  CG         1.3020   42.3340  -21.2780 C.3    49  ARG49       0.0489
     55  CD         0.1180   41.5090  -21.7880 C.3    49  ARG49       0.2205
     56  NE         0.2060   41.1540  -23.2010 N.pl3  49  ARG49      -0.0865
     57  CZ        -0.4650   40.1510  -23.7620 C.cat  49  ARG49       0.5346
     58  NH1       -1.2690   39.3920  -23.0290 N.pl3  49  ARG49       0.1354
     59  NH2       -0.3200   39.8980  -25.0600 N.pl3  49  ARG49       0.1354
     60  N         -1.9270   42.6700  -18.0300 N.3    51  ASP51      -0.1239
     61  CA        -2.6470   41.4230  -17.7540 C.3    51  ASP51       0.1674
     62  C         -2.7710   41.1500  -16.2640 C.2    51  ASP51       0.2266
     63  O         -1.7930   41.2550  -15.5160 O.2    51  ASP51      -0.2867
     64  CB        -1.9760   40.2190  -18.4180 C.3    51  ASP51       0.1410
     65  CG        -1.9500   40.3170  -19.9220 C.2    51  ASP51       0.3668
     66  OD1       -1.3450   39.4250  -20.5490 O.co2  51  ASP51      -0.2456
     67  OD2       -2.5230   41.2790  -20.4770 O.co2  51  ASP51      -0.2456
     68  N         -5.3960   38.3520  -14.5610 N.3    53  ASP53      -0.1239
     69  CA        -6.5390   37.4720  -14.7030 C.3    53  ASP53       0.1674
     70  C         -7.4130   37.4360  -13.4450 C.2    53  ASP53       0.2266
     71  O         -8.6350   37.3520  -13.5390 O.2    53  ASP53      -0.2867
     72  CB        -6.0560   36.0790  -15.1100 C.3    53  ASP53       0.1410
     73  CG        -5.4690   36.0630  -16.5180 C.2    53  ASP53       0.3668
     74  OD1       -4.6840   35.1460  -16.8400 O.co2  53  ASP53      -0.2456
     75  OD2       -5.7890   36.9840  -17.3040 O.co2  53  ASP53      -0.2456
     76  N          4.8040   39.2910  -21.4290 N.3    75  PRO75      -0.2102
     77  CA         3.8110   38.3230  -21.9020 C.3    75  PRO75       0.1504
     78  C          4.4410   37.1350  -22.6410 C.2    75  PRO75       0.2576
     79  O          4.2470   36.9550  -23.8410 O.2    75  PRO75      -0.2718
     80  CB         2.9230   39.1510  -22.8400 C.3    75  PRO75       0.0282
     81  CG         3.7750   40.2340  -23.3140 C.3    75  PRO75       0.0208
     82  CD         4.7990   40.5220  -22.2340 C.3    75  PRO75       0.0893
     83  N          5.1920   36.3270  -21.9090 N.am   76  MET76      -0.1966
     84  CA         5.7750   35.1220  -22.4680 C.3    76  MET76       0.1736
     85  C          5.5540   33.9280  -21.5440 C.2    76  MET76       0.2616
     86  O          4.8400   34.0280  -20.5360 O.2    76  MET76      -0.2715
     87  CB         7.2670   35.3210  -22.8040 C.3    76  MET76       0.0427
     88  CG         8.0720   36.2530  -21.9170 C.3    76  MET76       0.0599
     89  SD         9.4950   37.0860  -22.7180 S.3    76  MET76      -0.1393
     90  CE        10.1620   35.7810  -23.7640 C.3    76  MET76       0.0692
     91  N          6.1460   32.7970  -21.9110 N.am   77  ALA77      -0.1964
     92  CA         6.2100   31.6540  -21.0330 C.3    77  ALA77       0.1713
     93  C          6.8750   32.0790  -19.7040 C.2    77  ALA77       0.2458
     94  O          7.8640   32.8200  -19.7070 O.2    77  ALA77      -0.2730
     95  CB         6.9920   30.5390  -21.7000 C.3    77  ALA77       0.0333
     96  N          6.3110   31.6290  -18.5670 N.am   78  PRO78      -0.2727
     97  CA         6.8640   31.8930  -17.2330 C.3    78  PRO78       0.1402
     98  C          8.3910   31.7930  -17.1770 C.2    78  PRO78       0.2269
     99  O          9.0440   32.7250  -16.7050 O.2    78  PRO78      -0.2865
    100  CB         6.2150   30.8070  -16.3640 C.3    78  PRO78       0.0296
    101  CG         4.9040   30.5320  -17.0250 C.3    78  PRO78       0.0237
    102  CD         5.0560   30.8540  -18.4980 C.3    78  PRO78       0.0939
    103  N         -1.2420   29.0900  -16.7640 N.3   114  ALA114     -0.1231
    104  CA        -0.6880   30.0870  -17.6710 C.3   114  ALA114      0.1694
    105  C         -0.4710   29.3560  -18.9950 C.2   114  ALA114      0.2593
    106  O          0.2380   28.3650  -19.0470 O.2   114  ALA114     -0.2718
    107  CB         0.6410   30.6330  -17.1260 C.3   114  ALA114      0.0304
    108  N         -1.1300   29.8030  -20.0510 N.am  115  GLY115     -0.1942
    109  CA        -1.1040   29.0670  -21.3140 C.3   115  GLY115      0.2014
    110  C         -1.7240   27.6870  -21.1720 C.2   115  GLY115      0.2639
    111  O         -2.6250   27.4860  -20.3450 O.2   115  GLY115     -0.2714
    112  N         -1.2320   26.7340  -21.9700 N.am  116  GLY116     -0.1954
    113  CA        -1.7570   25.3760  -21.9830 C.3   116  GLY116      0.1869
    114  C         -1.1900   24.4720  -20.8980 C.2   116  GLY116      0.2309
    115  O         -0.4240   24.9060  -20.0310 O.2   116  GLY116     -0.2863
    116  N          2.8420   23.9610  -20.0670 N.3   119  VAL119     -0.1245
    117  CA         3.7040   25.0950  -19.7870 C.3   119  VAL119      0.1561
    118  C          4.3800   24.8770  -18.4090 C.2   119  VAL119      0.2260
    119  O          3.7230   24.4760  -17.4240 O.2   119  VAL119     -0.2867
    120  CB         2.9340   26.4370  -19.8260 C.3   119  VAL119      0.0252
    121  CG1        3.8250   27.5830  -19.3830 C.3   119  VAL119      0.0019
    122  CG2        2.3560   26.7150  -21.2360 C.3   119  VAL119      0.0019
@<TRIPOS>BOND
     1     4     3    2
     2     6     5    1
     3     3     2    1
     4     1     2    1
     5     5     2    1
     6     5     7    1
     7    59    57    1
     8    79    78    2
     9    90    89    1
    10    57    56    2
    11    57    58    1
    12    81    80    1
    13    81    82    1
    14    56    55    1
    15    80    77    1
    16    87    84    1
    17    87    88    1
    18    89    88    1
    19    78    83   am
    20    78    77    1
    21    84    83    1
    22    84    85    1
    23    82    76    1
    24   113   112    1
    25   113   114    1
    26   112   110   am
    27    91    85   am
    28    91    92    1
    29    77    76    1
    30    55    54    1
    31    95    92    1
    32    53    54    1
    33    53    50    1
    34    85    86    2
    35   109   110    1
    36   109   108    1
    37   122   120    1
    38   110   111    2
    39    92    93    1
    40     8     9    1
    41   114   115    2
    42    52    51    2
    43    66    65   ar
    44    67    65   ar
    45    50    51    1
    46    50    49    1
    47    16    15    1
    48   116   117    1
    49   108   105   am
    50    13    14    1
    51    13    12    1
    52    65    64    1
    53   120   117    1
    54   120   121    1
    55   117   118    1
    56    94    93    2
    57    93    96   am
    58     9    12    1
    59     9    10    1
    60    14    15    1
    61    47    46    1
    62   106   105    2
    63   105   104    1
    64    96   102    1
    65    96    97    1
    66   102   101    1
    67    10    11    2
    68    64    61    1
    69   118   119    2
    70    60    61    1
    71    46    48    1
    72    46    43    1
    73    61    62    1
    74    45    44    2
    75    44    43    1
    76   104   107    1
    77   104   103    1
    78    75    73   ar
    79    97    98    1
    80    97   100    1
    81    98    99    2
    82   101   100    1
    83    43    42    1
    84    74    73   ar
    85    73    72    1
    86    25    24    1
    87    62    63    2
    88    42    35   am
    89    41    39   am
    90    72    69    1
    91    24    23    1
    92    35    36    2
    93    35    34    1
    94    39    40    2
    95    39    38    1
    96    69    68    1
    97    69    70    1
    98    38    37    1
    99    34    37    1
   100    34    33    1
   101    29    28    2
   102    23    22    1
   103    31    30    1
   104    71    70    2
   105    28    33   am
   106    28    27    1
   107    30    27    1
   108    30    32    1
   109    22    21    1
   110    27    26    1
   111    21    18    1
   112    18    19    1
   113    18    17    1
   114    19    20    2
