@<TRIPOS>MOLECULE
tmp/3fmiA01.pdb
 115 107 0 0 0
SMALL
GASTEIGER

@<TRIPOS>ATOM
      1  N         -2.9950   29.2170  -25.7990 N.3    16  THR16      -0.1218
      2  CA        -3.0940   30.5320  -25.2000 C.3    16  THR16       0.1862
      3  C         -4.1870   31.3030  -25.9620 C.2    16  THR16       0.2287
      4  O         -4.4370   31.0270  -27.1270 O.2    16  THR16      -0.2866
      5  CB        -1.6880   31.2340  -25.1870 C.3    16  THR16       0.1770
      6  OG1       -1.7340   32.4400  -24.4080 O.3    16  THR16      -0.2211
      7  CG2       -1.1540   31.4990  -26.6160 C.3    16  THR16       0.0375
      8  N         -9.5530   31.0200  -21.3740 N.3    20  LYS20      -0.1245
      9  CA        -9.5220   30.3730  -20.0480 C.3    20  LYS20       0.1561
     10  C        -10.0280   31.2660  -18.9410 C.2    20  LYS20       0.2260
     11  O        -10.7440   30.8130  -18.0640 O.2    20  LYS20      -0.2867
     12  CB        -8.1040   29.9860  -19.5980 C.3    20  LYS20       0.0271
     13  CG        -7.3860   28.9830  -20.3820 C.3    20  LYS20       0.0035
     14  CD        -6.4200   28.2310  -19.4680 C.3    20  LYS20       0.0206
     15  CE        -5.4720   29.1460  -18.7380 C.3    20  LYS20       0.1093
     16  NZ        -4.6520   29.8820  -19.6860 N.3    20  LYS20      -0.1314
     17  N         -4.3460   31.9700   -9.2710 N.3    42  LYS42      -0.1245
     18  CA        -3.4650   32.0640  -10.4260 C.3    42  LYS42       0.1561
     19  C         -2.0130   32.0920   -9.9310 C.2    42  LYS42       0.2260
     20  O         -1.4690   33.1530   -9.6520 O.2    42  LYS42      -0.2867
     21  CB        -3.8080   33.3220  -11.2290 C.3    42  LYS42       0.0271
     22  CG        -2.9050   33.6070  -12.4240 C.3    42  LYS42       0.0035
     23  CD        -3.5800   33.2830  -13.7440 C.3    42  LYS42       0.0206
     24  CE        -2.5700   33.4340  -14.9130 C.3    42  LYS42       0.1093
     25  NZ        -3.1240   32.9620  -16.2250 N.3    42  LYS42      -0.1314
     26  N          1.5200   34.3820  -13.1500 N.3    45  GLN45      -0.1231
     27  CA         0.9810   35.3710  -14.0740 C.3    45  GLN45       0.1698
     28  C          2.1280   36.0560  -14.8150 C.2    45  GLN45       0.2592
     29  O          3.0040   36.6250  -14.1840 O.2    45  GLN45      -0.2718
     30  CB         0.1760   36.4330  -13.3150 C.3    45  GLN45       0.0381
     31  CG        -0.2520   37.5870  -14.1950 C.3    45  GLN45       0.0905
     32  CD        -1.4590   37.2630  -15.0770 C.2    45  GLN45       0.2608
     33  OE1       -2.5580   37.0540  -14.5760 O.2    45  GLN45      -0.2717
     34  NE2       -1.2610   37.2480  -16.3830 N.am   45  GLN45      -0.0878
     35  N          2.1310   36.0000  -16.1420 N.am   46  THR46      -0.1953
     36  CA         3.1250   36.7550  -16.9210 C.3    46  THR46       0.1897
     37  C          2.4350   37.9080  -17.6730 C.2    46  THR46       0.2313
     38  O          1.2150   37.9990  -17.6900 O.2    46  THR46      -0.2863
     39  CB         3.9180   35.8520  -17.9130 C.3    46  THR46       0.1794
     40  OG1        3.1440   35.6550  -19.1050 O.3    46  THR46      -0.2208
     41  CG2        4.2850   34.4750  -17.2650 C.3    46  THR46       0.0378
     42  N          2.4770   44.4920  -19.4200 N.3    50  ARG50      -0.1245
     43  CA         1.5580   44.8740  -20.4730 C.3    50  ARG50       0.1563
     44  C          0.1240   45.0390  -19.9490 C.2    50  ARG50       0.2260
     45  O         -0.7960   45.3260  -20.7010 O.2    50  ARG50      -0.2867
     46  CB         1.6670   43.9340  -21.6920 C.3    50  ARG50       0.0307
     47  CG         0.9430   42.6290  -21.5720 C.3    50  ARG50       0.0489
     48  CD        -0.0470   42.4390  -22.7310 C.3    50  ARG50       0.2205
     49  NE         0.5280   41.7830  -23.9030 N.pl3  50  ARG50      -0.0865
     50  CZ         0.2620   40.5300  -24.2650 C.cat  50  ARG50       0.5346
     51  NH1       -0.5650   39.7880  -23.5370 N.pl3  50  ARG50       0.1354
     52  NH2        0.8360   40.0140  -25.3530 N.pl3  50  ARG50       0.1354
     53  N         -1.4730   42.6040  -18.2260 N.3    52  ASP52      -0.1239
     54  CA        -2.1120   41.2880  -18.0540 C.3    52  ASP52       0.1674
     55  C         -2.3540   41.0200  -16.5800 C.2    52  ASP52       0.2266
     56  O         -1.4320   41.0670  -15.7800 O.2    52  ASP52      -0.2867
     57  CB        -1.2530   40.1610  -18.6300 C.3    52  ASP52       0.1410
     58  CG        -1.0930   40.2410  -20.1380 C.2    52  ASP52       0.3668
     59  OD1       -0.4900   39.3060  -20.7070 O.co2  52  ASP52      -0.2456
     60  OD2       -1.5540   41.2300  -20.7530 O.co2  52  ASP52      -0.2456
     61  N         -4.9830   38.2350  -14.8220 N.3    54  ASP54      -0.1239
     62  CA        -6.1540   37.3800  -14.9300 C.3    54  ASP54       0.1674
     63  C         -7.0420   37.3970  -13.7020 C.2    54  ASP54       0.2266
     64  O         -8.2650   37.3440  -13.8230 O.2    54  ASP54      -0.2867
     65  CB        -5.7660   35.9720  -15.3410 C.3    54  ASP54       0.1410
     66  CG        -5.2730   35.9200  -16.7790 C.2    54  ASP54       0.3668
     67  OD1       -4.5710   34.9580  -17.1290 O.co2  54  ASP54      -0.2456
     68  OD2       -5.5710   36.8550  -17.5610 O.co2  54  ASP54      -0.2456
     69  N          5.3360   39.4600  -21.4670 N.3    76  PRO76      -0.2102
     70  CA         4.2810   38.5520  -21.9040 C.3    76  PRO76       0.1504
     71  C          4.8680   37.3340  -22.6070 C.2    76  PRO76       0.2576
     72  O          4.6720   37.1570  -23.7900 O.2    76  PRO76      -0.2718
     73  CB         3.4560   39.4050  -22.8760 C.3    76  PRO76       0.0282
     74  CG         4.4080   40.4380  -23.3850 C.3    76  PRO76       0.0208
     75  CD         5.5310   40.5960  -22.3890 C.3    76  PRO76       0.0893
     76  N          5.6140   36.5210  -21.8620 N.am   77  MET77      -0.1966
     77  CA         6.2330   35.3120  -22.3870 C.3    77  MET77       0.1736
     78  C          5.8110   34.0700  -21.5670 C.2    77  MET77       0.2616
     79  O          5.0600   34.1770  -20.5860 O.2    77  MET77      -0.2715
     80  CB         7.7550   35.4710  -22.3650 C.3    77  MET77       0.0427
     81  CG         8.2140   36.7950  -22.9170 C.3    77  MET77       0.0599
     82  SD         9.9240   37.1970  -22.5810 S.3    77  MET77      -0.1393
     83  CE        10.7720   36.0090  -23.6080 C.3    77  MET77       0.0692
     84  N          6.2730   32.8960  -21.9850 N.am   78  ALA78      -0.1964
     85  CA         6.2060   31.7160  -21.1260 C.3    78  ALA78       0.1713
     86  C          6.8760   32.0370  -19.7800 C.2    78  ALA78       0.2458
     87  O          7.8970   32.7360  -19.7530 O.2    78  ALA78      -0.2730
     88  CB         6.9010   30.5710  -21.7810 C.3    78  ALA78       0.0333
     89  N          6.2870   31.5570  -18.6650 N.am   79  PRO79      -0.2727
     90  CA         6.8480   31.7800  -17.3330 C.3    79  PRO79       0.1402
     91  C          8.3790   31.6640  -17.2670 C.2    79  PRO79       0.2269
     92  O          9.0270   32.5560  -16.7270 O.2    79  PRO79      -0.2865
     93  CB         6.1600   30.7040  -16.4850 C.3    79  PRO79       0.0296
     94  CG         4.8130   30.5570  -17.1210 C.3    79  PRO79       0.0237
     95  CD         4.9910   30.8430  -18.6020 C.3    79  PRO79       0.0939
     96  N         -0.9300   29.1910  -16.6970 N.3   115  ALA115     -0.1231
     97  CA        -0.4260   30.1460  -17.6410 C.3   115  ALA115      0.1694
     98  C         -0.3560   29.3980  -18.9610 C.2   115  ALA115      0.2593
     99  O          0.2830   28.3610  -19.0470 O.2   115  ALA115     -0.2718
    100  CB         0.9710   30.6500  -17.2080 C.3   115  ALA115      0.0304
    101  N         -1.0520   29.8980  -19.9740 N.am  116  GLY116     -0.1942
    102  CA        -1.1490   29.2100  -21.2390 C.3   116  GLY116      0.2014
    103  C         -1.7560   27.8200  -21.1040 C.2   116  GLY116      0.2639
    104  O         -2.6670   27.5950  -20.2870 O.2   116  GLY116     -0.2714
    105  N         -1.2350   26.8920  -21.9060 N.am  117  GLY117     -0.1954
    106  CA        -1.7230   25.5130  -21.9590 C.3   117  GLY117      0.1869
    107  C         -1.1410   24.5670  -20.9280 C.2   117  GLY117      0.2309
    108  O         -0.3080   24.9540  -20.1250 O.2   117  GLY117     -0.2863
    109  N          2.7810   23.9960  -20.1180 N.3   120  VAL120     -0.1245
    110  CA         3.6080   25.1540  -19.8170 C.3   120  VAL120      0.1561
    111  C          4.3320   24.8980  -18.4810 C.2   120  VAL120      0.2260
    112  O          3.7290   24.4010  -17.5190 O.2   120  VAL120     -0.2867
    113  CB         2.7920   26.4940  -19.8440 C.3   120  VAL120      0.0252
    114  CG1        3.6050   27.6520  -19.3680 C.3   120  VAL120      0.0019
    115  CG2        2.3290   26.8060  -21.2640 C.3   120  VAL120      0.0019
@<TRIPOS>BOND
     1     4     3    2
     2     7     5    1
     3     3     2    1
     4     1     2    1
     5    52    50    1
     6     2     5    1
     7     5     6    1
     8    50    49    2
     9    50    51    1
    10    49    48    1
    11    72    71    2
    12    83    82    1
    13    74    73    1
    14    74    75    1
    15    81    82    1
    16    81    80    1
    17    73    70    1
    18    48    47    1
    19    71    70    1
    20    71    76   am
    21    75    69    1
    22    77    80    1
    23    77    76    1
    24    77    78    1
    25    84    78   am
    26    84    85    1
    27   106   105    1
    28   106   107    1
    29   105   103   am
    30    70    69    1
    31    88    85    1
    32    46    47    1
    33    46    43    1
    34    78    79    2
    35     8     9    1
    36   115   113    1
    37   102   103    1
    38   102   101    1
    39    85    86    1
    40   103   104    2
    41   107   108    2
    42    60    58   ar
    43    59    58   ar
    44    45    44    2
    45    43    44    1
    46    43    42    1
    47    13    12    1
    48    13    14    1
    49    58    57    1
    50   109   110    1
    51     9    12    1
    52     9    10    1
    53   101    98   am
    54   113   110    1
    55   113   114    1
    56   110   111    1
    57    86    87    2
    58    86    89   am
    59    16    15    1
    60    14    15    1
    61    40    39    1
    62    99    98    2
    63    98    97    1
    64    10    11    2
    65    89    95    1
    66    89    90    1
    67    57    54    1
    68    95    94    1
    69   111   112    2
    70    53    54    1
    71    54    55    1
    72    39    41    1
    73    39    36    1
    74    38    37    2
    75    37    36    1
    76    97   100    1
    77    97    96    1
    78    68    66   ar
    79    90    91    1
    80    90    93    1
    81    91    92    2
    82    67    66   ar
    83    94    93    1
    84    36    35    1
    85    66    65    1
    86    55    56    2
    87    34    32   am
    88    25    24    1
    89    35    28   am
    90    65    62    1
    91    32    33    2
    92    32    31    1
    93    62    61    1
    94    62    63    1
    95    24    23    1
    96    28    29    2
    97    28    27    1
    98    31    30    1
    99    27    30    1
   100    27    26    1
   101    64    63    2
   102    23    22    1
   103    22    21    1
   104    21    18    1
   105    18    19    1
   106    18    17    1
   107    19    20    2
