@<TRIPOS>MOLECULE
tmp/3fmjA00.pdb
 137 128 0 0 0
SMALL
GASTEIGER

@<TRIPOS>ATOM
      1  N         23.8550   10.3160   40.5010 N.3    27  VAL27      -0.1245
      2  CA        24.8800   10.3570   39.4500 C.3    27  VAL27       0.1561
      3  C         25.0760   11.7580   38.8630 C.2    27  VAL27       0.2260
      4  O         26.0330   11.9970   38.1220 O.2    27  VAL27      -0.2867
      5  CB        24.6210    9.3300   38.2950 C.3    27  VAL27       0.0252
      6  CG1       24.8680    7.9000   38.7690 C.3    27  VAL27       0.0019
      7  CG2       23.2190    9.4750   37.7210 C.3    27  VAL27       0.0019
      8  N         18.1820   22.3990   36.5850 N.3    29  TYR29      -0.1241
      9  CA        17.2600   21.5950   35.7260 C.3    29  TYR29       0.1605
     10  C         16.6030   20.4580   36.5130 C.2    29  TYR29       0.2264
     11  O         15.4010   20.2010   36.3740 O.2    29  TYR29      -0.2867
     12  CB        18.0010   21.0610   34.4850 C.3    29  TYR29       0.0534
     13  CG        18.9560   19.9040   34.7310 C.ar   29  TYR29      -0.0201
     14  CD1       20.2090   20.1090   35.3100 C.ar   29  TYR29      -0.0009
     15  CD2       18.6040   18.6030   34.3700 C.ar   29  TYR29      -0.0009
     16  CE1       21.0830   19.0410   35.5360 C.ar   29  TYR29       0.0417
     17  CE2       19.4670   17.5330   34.5900 C.ar   29  TYR29       0.0417
     18  CZ        20.7010   17.7560   35.1710 C.ar   29  TYR29       0.1957
     19  OH        21.5470   16.6930   35.3820 O.3    29  TYR29      -0.2866
     20  N         19.6750   13.5730   38.8760 N.3    32  VAL32      -0.1245
     21  CA        19.5640   12.2330   38.3130 C.3    32  VAL32       0.1561
     22  C         20.1370   11.1840   39.2710 C.2    32  VAL32       0.2260
     23  O         21.2080   11.3790   39.8560 O.2    32  VAL32      -0.2867
     24  CB        20.2700   12.1400   36.9270 C.3    32  VAL32       0.0252
     25  CG1       20.1030   10.7490   36.3120 C.3    32  VAL32       0.0019
     26  CG2       19.7360   13.2110   35.9650 C.3    32  VAL32       0.0019
     27  N         18.3590    5.4760   34.4640 N.3    45  ALA45      -0.1245
     28  CA        18.5570    6.7920   35.0480 C.3    45  ALA45       0.1562
     29  C         17.1840    7.3650   35.3800 C.2    45  ALA45       0.2260
     30  O         16.2850    7.3490   34.5460 O.2    45  ALA45      -0.2867
     31  CB        19.2960    7.6980   34.0880 C.3    45  ALA45       0.0290
     32  N         15.3650   10.8120   36.7060 N.3    47  LYS47      -0.1245
     33  CA        15.5610   12.2470   36.8580 C.3    47  LYS47       0.1561
     34  C         14.3690   12.8950   37.5460 C.2    47  LYS47       0.2260
     35  O         13.2430   12.8130   37.0590 O.2    47  LYS47      -0.2867
     36  CB        15.8000   12.8740   35.4820 C.3    47  LYS47       0.0271
     37  CG        16.0210   14.3740   35.4300 C.3    47  LYS47       0.0035
     38  CD        16.3740   14.7460   33.9810 C.3    47  LYS47       0.0206
     39  CE        16.0050   16.1700   33.6190 C.3    47  LYS47       0.1093
     40  NZ        16.3630   16.4850   32.1980 N.3    47  LYS47      -0.1314
     41  N         10.0440   19.4090   27.5730 N.3    65  GLU65      -0.1245
     42  CA        10.8920   18.2220   27.7270 C.3    65  GLU65       0.1567
     43  C         10.0790   16.9310   27.6930 C.2    65  GLU65       0.2260
     44  O         10.4630   15.9700   27.0250 O.2    65  GLU65      -0.2867
     45  CB        11.7280   18.2800   29.0140 C.3    65  GLU65       0.0388
     46  CG        12.5940   17.0270   29.2070 C.3    65  GLU65       0.1160
     47  CD        13.5500   17.1170   30.3760 C.2    65  GLU65       0.3649
     48  OE1       13.3370   17.9650   31.2630 O.co2  65  GLU65      -0.2457
     49  OE2       14.5190   16.3230   30.4050 O.co2  65  GLU65      -0.2457
     50  N         10.4580   13.9470   24.8470 N.3    69  LEU69      -0.1245
     51  CA        10.8440   12.5790   25.2060 C.3    69  LEU69       0.1561
     52  C          9.7730   11.5300   24.9140 C.2    69  LEU69       0.2260
     53  O         10.0940   10.3970   24.5420 O.2    69  LEU69      -0.2867
     54  CB        11.2700   12.5140   26.6740 C.3    69  LEU69       0.0270
     55  CG        12.5160   13.3370   27.0180 C.3    69  LEU69       0.0019
     56  CD1       12.8780   13.1650   28.4740 C.3    69  LEU69       0.0001
     57  CD2       13.7030   12.9670   26.1220 C.3    69  LEU69       0.0001
     58  N         17.5740    9.1180   22.7180 N.3    78  ILE78      -0.1245
     59  CA        17.0070    8.8920   24.0480 C.3    78  ILE78       0.1561
     60  C         15.5140    8.5420   23.9350 C.2    78  ILE78       0.2260
     61  O         14.7670    9.1860   23.1890 O.2    78  ILE78      -0.2867
     62  CB        17.2510   10.1200   25.0000 C.3    78  ILE78       0.0252
     63  CG1       16.7020    9.8510   26.4120 C.3    78  ILE78       0.0019
     64  CG2       16.7020   11.4260   24.3910 C.3    78  ILE78       0.0019
     65  CD1       16.8510   11.0220   27.3990 C.3    78  ILE78       0.0001
     66  N         11.9080    7.4400   26.3260 N.3    80  LEU80      -0.1245
     67  CA        11.3150    7.5510   27.6480 C.3    80  LEU80       0.1561
     68  C         10.7750    6.1930   28.0780 C.2    80  LEU80       0.2260
     69  O          9.7970    5.6950   27.5190 O.2    80  LEU80      -0.2867
     70  CB        10.2060    8.6090   27.6540 C.3    80  LEU80       0.0270
     71  CG         9.7120    9.0870   29.0220 C.3    80  LEU80       0.0019
     72  CD1       10.8210    9.7990   29.7990 C.3    80  LEU80       0.0001
     73  CD2        8.5090    9.9900   28.8510 C.3    80  LEU80       0.0001
     74  N         11.3500   11.4700   35.4680 N.3    98  LEU98      -0.1231
     75  CA        11.5400   10.9050   34.1310 C.3    98  LEU98       0.1693
     76  C         12.5380    9.7510   34.1890 C.2    98  LEU98       0.2592
     77  O         13.5260    9.8170   34.9310 O.2    98  LEU98      -0.2718
     78  CB        12.0400   11.9900   33.1620 C.3    98  LEU98       0.0284
     79  CG        11.2060   13.2770   33.0740 C.3    98  LEU98       0.0019
     80  CD1       12.0230   14.4180   32.4800 C.3    98  LEU98       0.0001
     81  CD2        9.9370   13.0420   32.2830 C.3    98  LEU98       0.0001
     82  N         12.2850    8.7050   33.4030 N.am   99  VAL99      -0.1966
     83  CA        13.1110    7.4910   33.4330 C.3    99  VAL99       0.1727
     84  C         13.5560    7.0960   32.0220 C.2    99  VAL99       0.2617
     85  O         12.7390    7.0350   31.1100 O.2    99  VAL99      -0.2715
     86  CB        12.3570    6.2850   34.0800 C.3    99  VAL99       0.0290
     87  CG1       13.2500    5.0480   34.1470 C.3    99  VAL99       0.0023
     88  CG2       11.8140    6.6320   35.4800 C.3    99  VAL99       0.0023
     89  N         14.8520    6.8260   31.8710 N.am  100  THR100     -0.1937
     90  CA        15.4420    6.3410   30.6160 C.3   100  THR100      0.2028
     91  C         16.5730    5.3430   30.9110 C.2   100  THR100      0.2642
     92  O         16.9170    5.1020   32.0810 O.2   100  THR100     -0.2714
     93  CB        15.9550    7.5170   29.7230 C.3   100  THR100      0.1808
     94  OG1       16.2350    7.0440   28.3980 O.3   100  THR100     -0.2208
     95  CG2       17.2170    8.1530   30.3090 C.3   100  THR100      0.0379
     96  N         17.1240    4.7450   29.8580 N.am  101  HIS101     -0.1959
     97  CA        18.2870    3.8610   29.9720 C.3   101  HIS101      0.1787
     98  C         19.4680    4.6290   30.5580 C.2   101  HIS101      0.2620
     99  O         19.7740    5.7410   30.1190 O.2   101  HIS101     -0.2715
    100  CB        18.6920    3.3080   28.6020 C.3   101  HIS101      0.0785
    101  CG        17.6270    2.5000   27.9310 C.ar  101  HIS101      0.0821
    102  ND1       16.7060    3.0540   27.0670 N.ar  101  HIS101     -0.2267
    103  CD2       17.3380    1.1790   27.9940 C.ar  101  HIS101      0.1154
    104  CE1       15.8950    2.1080   26.6270 C.ar  101  HIS101      0.1986
    105  NE2       16.2560    0.9610   27.1770 N.ar  101  HIS101     -0.2212
    106  N         20.1280    4.0310   31.5430 N.am  102  LEU102     -0.1963
    107  CA        21.2920    4.6480   32.1590 C.3   102  LEU102      0.1728
    108  C         22.4400    4.7860   31.1570 C.2   102  LEU102      0.2616
    109  O         22.8460    3.8070   30.5180 O.2   102  LEU102     -0.2715
    110  CB        21.7330    3.8480   33.3910 C.3   102  LEU102      0.0311
    111  CG        22.9050    4.3530   34.2430 C.3   102  LEU102      0.0022
    112  CD1       22.5970    5.6940   34.9100 C.3   102  LEU102      0.0001
    113  CD2       23.2710    3.3020   35.2790 C.3   102  LEU102      0.0001
    114  N         22.9390    6.0090   31.0070 N.am  103  MET103     -0.1977
    115  CA        24.1410    6.2470   30.2110 C.3   103  MET103      0.1605
    116  C         25.3530    5.8210   31.0340 C.2   103  MET103      0.2287
    117  O         25.5610    6.3120   32.1420 O.2   103  MET103     -0.2864
    118  CB        24.2440    7.7200   29.7850 C.3   103  MET103      0.0413
    119  CG        25.6680    8.1910   29.4600 C.3   103  MET103      0.0598
    120  SD        25.7620    9.8080   28.6640 S.3   103  MET103     -0.1393
    121  CE        25.0960   10.8780   29.9460 C.3   103  MET103      0.0692
    122  N         21.4000   12.2510   23.3530 N.3   161  LEU161     -0.1231
    123  CA        20.6760   12.6780   24.5510 C.3   161  LEU161      0.1693
    124  C         20.6860   14.2010   24.6920 C.2   161  LEU161      0.2592
    125  O         21.2810   14.9110   23.8750 O.2   161  LEU161     -0.2718
    126  CB        21.2850   12.0490   25.8220 C.3   161  LEU161      0.0284
    127  CG        21.8500   10.6230   25.8990 C.3   161  LEU161      0.0019
    128  CD1       22.3660   10.3670   27.2950 C.3   161  LEU161      0.0001
    129  CD2       20.8450    9.5470   25.5100 C.3   161  LEU161      0.0001
    130  N         20.0070   14.6830   25.7320 N.am  162  ASP162     -0.1974
    131  CA        20.1200   16.0630   26.2170 C.3   162  ASP162      0.1709
    132  C         19.9050   17.1320   25.1420 C.2   162  ASP162      0.2293
    133  O         20.7810   17.9650   24.8930 O.2   162  ASP162     -0.2864
    134  CB        21.4740   16.2590   26.9240 C.3   162  ASP162      0.1436
    135  CG        21.4520   17.3860   27.9470 C.2   162  ASP162      0.3671
    136  OD1       20.4120   17.5840   28.6180 O.co2 162  ASP162     -0.2456
    137  OD2       22.4920   18.0660   28.0920 O.co2 162  ASP162     -0.2456
@<TRIPOS>BOND
     1    58    59    1
     2    61    60    2
     3   122   123    1
     4   125   124    2
     5    60    59    1
     6    59    62    1
     7    64    62    1
     8    53    52    2
     9   123   124    1
    10   123   126    1
    11   124   130   am
    12    50    51    1
    13   133   132    2
    14    52    51    1
    15    62    63    1
    16   132   131    1
    17    51    54    1
    18   129   127    1
    19   130   131    1
    20   126   127    1
    21   127   128    1
    22    57    55    1
    23   131   134    1
    24    66    67    1
    25    63    65    1
    26   104   102   ar
    27   104   105   ar
    28    54    55    1
    29   134   135    1
    30    55    56    1
    31    44    43    2
    32   102   101   ar
    33   105   103   ar
    34    69    68    2
    35    41    42    1
    36    67    70    1
    37    67    68    1
    38    70    71    1
    39    43    42    1
    40    42    45    1
    41   101   103   ar
    42   101   100    1
    43   135   137   ar
    44   135   136   ar
    45    94    93    1
    46   100    97    1
    47   120   119    1
    48   120   121    1
    49    73    71    1
    50    45    46    1
    51    71    72    1
    52    46    47    1
    53   119   118    1
    54    93    95    1
    55    93    90    1
    56   118   115    1
    57    96    97    1
    58    96    91   am
    59    97    98    1
    60    99    98    2
    61   115   114    1
    62   115   116    1
    63    47    49   ar
    64    47    48   ar
    65   109   108    2
    66    98   106   am
    67    90    91    1
    68    90    89    1
    69    91    92    2
    70   114   108   am
    71   116   117    2
    72    85    84    2
    73   108   107    1
    74   106   107    1
    75    89    84   am
    76    84    83    1
    77   107   110    1
    78    40    39    1
    79    81    79    1
    80    80    79    1
    81    79    78    1
    82    78    75    1
    83   110   111    1
    84    82    83    1
    85    82    76   am
    86    83    86    1
    87    39    38    1
    88    38    37    1
    89    86    87    1
    90    86    88    1
    91    31    28    1
    92    75    76    1
    93    75    74    1
    94    76    77    2
    95   111   112    1
    96   111   113    1
    97    15    17   ar
    98    15    13   ar
    99    27    28    1
   100    12    13    1
   101    12     9    1
   102    30    29    2
   103    17    18   ar
   104    13    14   ar
   105    28    29    1
   106    18    19    1
   107    18    16   ar
   108    14    16   ar
   109    37    36    1
   110    36    33    1
   111     9    10    1
   112     9     8    1
   113    26    24    1
   114    25    24    1
   115    11    10    2
   116    32    33    1
   117    33    34    1
   118    24    21    1
   119    35    34    2
   120     7     5    1
   121     4     3    2
   122     5     6    1
   123     5     2    1
   124    21    20    1
   125    21    22    1
   126     3     2    1
   127    22    23    2
   128     2     1    1
