@<TRIPOS>MOLECULE
tmp/3fmkA00.pdb
 176 166 0 0 0
SMALL
GASTEIGER

@<TRIPOS>ATOM
      1  N         24.0790    9.9700   39.7760 N.3    27  VAL27      -0.1231
      2  CA        24.9430    9.9720   38.5990 C.3    27  VAL27       0.1692
      3  C         25.5800   11.3520   38.4480 C.2    27  VAL27       0.2593
      4  O         26.7660   11.4720   38.1240 O.2    27  VAL27      -0.2718
      5  CB        24.1500    9.5990   37.3140 C.3    27  VAL27       0.0266
      6  CG1       24.9230    9.9680   36.0540 C.3    27  VAL27       0.0020
      7  CG2       23.8120    8.1200   37.3090 C.3    27  VAL27       0.0020
      8  N         24.7820   12.3860   38.6940 N.am   28  GLY28      -0.1942
      9  CA        25.2340   13.7660   38.5820 C.3    28  GLY28       0.2014
     10  C         24.1410   14.6740   38.0550 C.2    28  GLY28       0.2640
     11  O         22.9480   14.3860   38.2070 O.2    28  GLY28      -0.2714
     12  N         24.5550   15.7730   37.4330 N.am   29  SER29      -0.1935
     13  CA        23.6250   16.7610   36.9070 C.3    29  SER29       0.2055
     14  C         23.0770   16.3570   35.5460 C.2    29  SER29       0.2644
     15  O         23.7680   15.7290   34.7400 O.2    29  SER29      -0.2714
     16  CB        24.3000   18.1300   36.8030 C.3    29  SER29       0.2130
     17  OG        24.7100   18.5910   38.0790 O.3    29  SER29      -0.2179
     18  N         21.8200   16.7170   35.3130 N.am   30  GLY30      -0.1939
     19  CA        21.2090   16.6310   33.9960 C.3    30  GLY30       0.2014
     20  C         20.6580   17.9960   33.6380 C.2    30  GLY30       0.2638
     21  O         20.8110   18.9540   34.4030 O.2    30  GLY30      -0.2714
     22  N         20.0180   18.0890   32.4780 N.am   31  ALA31      -0.1977
     23  CA        19.3870   19.3360   32.0580 C.3    31  ALA31       0.1597
     24  C         18.1950   19.6500   32.9590 C.2    31  ALA31       0.2287
     25  O         17.1990   18.9220   32.9630 O.2    31  ALA31      -0.2864
     26  CB        18.9640   19.2600   30.5930 C.3    31  ALA31       0.0319
     27  N         20.1820   13.5610   38.2770 N.3    35  VAL35      -0.1245
     28  CA        19.9820   12.2410   37.6860 C.3    35  VAL35       0.1561
     29  C         20.5050   11.1320   38.5980 C.2    35  VAL35       0.2260
     30  O         21.5820   11.2530   39.1890 O.2    35  VAL35      -0.2867
     31  CB        20.6560   12.1490   36.2900 C.3    35  VAL35       0.0252
     32  CG1       20.4400   10.7800   35.6530 C.3    35  VAL35       0.0019
     33  CG2       20.1320   13.2450   35.3690 C.3    35  VAL35       0.0019
     34  N         18.2240    5.6650   33.8210 N.3    48  ALA48      -0.1245
     35  CA        18.5400    6.9620   34.3980 C.3    48  ALA48       0.1562
     36  C         17.2370    7.6840   34.6990 C.2    48  ALA48       0.2260
     37  O         16.3950    7.8600   33.8140 O.2    48  ALA48      -0.2867
     38  CB        19.4040    7.7790   33.4500 C.3    48  ALA48       0.0290
     39  N         15.6450   11.1760   36.0370 N.3    50  LYS50      -0.1245
     40  CA        15.8950   12.5890   36.2850 C.3    50  LYS50       0.1561
     41  C         14.7160   13.2240   37.0070 C.2    50  LYS50       0.2260
     42  O         13.5870   13.1780   36.5250 O.2    50  LYS50      -0.2867
     43  CB        16.2020   13.3430   34.9860 C.3    50  LYS50       0.0271
     44  CG        16.4720   14.8380   35.1990 C.3    50  LYS50       0.0035
     45  CD        17.1290   15.5020   33.9990 C.3    50  LYS50       0.0206
     46  CE        16.1650   15.6730   32.8410 C.3    50  LYS50       0.1093
     47  NZ        16.7910   16.4580   31.7400 N.3    50  LYS50      -0.1314
     48  N         10.3520   19.9000   27.4800 N.3    68  GLU68      -0.1245
     49  CA        11.1810   18.6990   27.5910 C.3    68  GLU68       0.1567
     50  C         10.3390   17.4240   27.5480 C.2    68  GLU68       0.2260
     51  O         10.7020   16.4580   26.8770 O.2    68  GLU68      -0.2867
     52  CB        12.0610   18.7090   28.8410 C.3    68  GLU68       0.0388
     53  CG        13.0180   17.5260   28.8340 C.3    68  GLU68       0.1160
     54  CD        14.0250   17.5190   29.9580 C.2    68  GLU68       0.3649
     55  OE1       13.8940   18.3130   30.9170 O.co2  68  GLU68      -0.2457
     56  OE2       14.9520   16.6920   29.8700 O.co2  68  GLU68      -0.2457
     57  N         10.7010   14.5130   24.7140 N.3    72  LEU72      -0.1245
     58  CA        11.0550   13.1480   25.0940 C.3    72  LEU72       0.1561
     59  C          9.9690   12.1400   24.7310 C.2    72  LEU72       0.2260
     60  O         10.2780   11.0270   24.3190 O.2    72  LEU72      -0.2867
     61  CB        11.3960   13.0620   26.5800 C.3    72  LEU72       0.0270
     62  CG        12.7040   13.7390   27.0070 C.3    72  LEU72       0.0019
     63  CD1       12.7720   13.8340   28.5190 C.3    72  LEU72       0.0001
     64  CD2       13.9290   13.0120   26.4500 C.3    72  LEU72       0.0001
     65  N         17.8660    9.7130   22.7450 N.3    81  ILE81      -0.1231
     66  CA        17.3340    9.4930   24.0940 C.3    81  ILE81       0.1692
     67  C         15.8170    9.6710   24.0780 C.2    81  ILE81       0.2593
     68  O         15.3050   10.7210   23.6710 O.2    81  ILE81      -0.2718
     69  CB        18.0000   10.4320   25.1430 C.3    81  ILE81       0.0266
     70  CG1       19.4480   10.0010   25.4170 C.3    81  ILE81       0.0019
     71  CG2       17.1760   10.5040   26.4510 C.3    81  ILE81       0.0020
     72  CD1       19.6000    8.7150   26.2360 C.3    81  ILE81       0.0001
     73  N         15.1140    8.6230   24.5000 N.am   82  GLY82      -0.1942
     74  CA        13.6570    8.6210   24.5360 C.3    82  GLY82       0.2014
     75  C         13.1340    8.3980   25.9390 C.2    82  GLY82       0.2638
     76  O         13.9080    8.2940   26.8930 O.2    82  GLY82      -0.2714
     77  N         11.8170    8.3080   26.0660 N.am   83  LEU83      -0.1977
     78  CA        11.1910    8.2000   27.3750 C.3    83  LEU83       0.1596
     79  C         10.7070    6.7780   27.6440 C.2    83  LEU83       0.2287
     80  O          9.7800    6.2960   26.9910 O.2    83  LEU83      -0.2864
     81  CB        10.0360    9.2000   27.4800 C.3    83  LEU83       0.0297
     82  CG         9.5690    9.6550   28.8630 C.3    83  LEU83       0.0022
     83  CD1       10.6760   10.3650   29.6510 C.3    83  LEU83       0.0001
     84  CD2        8.3560   10.5630   28.7120 C.3    83  LEU83       0.0001
     85  N         11.5870   11.7990   35.0280 N.3   101  LEU101     -0.1231
     86  CA        11.7310   11.2930   33.6660 C.3   101  LEU101      0.1693
     87  C         12.7000   10.1230   33.6490 C.2   101  LEU101      0.2592
     88  O         13.7680   10.1990   34.2480 O.2   101  LEU101     -0.2718
     89  CB        12.2540   12.4000   32.7470 C.3   101  LEU101      0.0284
     90  CG        11.4580   13.7060   32.7340 C.3   101  LEU101      0.0019
     91  CD1       12.3190   14.8500   32.2000 C.3   101  LEU101      0.0001
     92  CD2       10.1740   13.5540   31.9260 C.3   101  LEU101      0.0001
     93  N         12.3280    9.0520   32.9510 N.am  102  VAL102     -0.1966
     94  CA        13.1260    7.8220   32.9350 C.3   102  VAL102      0.1727
     95  C         13.5790    7.4620   31.5210 C.2   102  VAL102      0.2617
     96  O         12.7630    7.4150   30.6010 O.2   102  VAL102     -0.2715
     97  CB        12.3420    6.6180   33.5340 C.3   102  VAL102      0.0290
     98  CG1       13.2360    5.3880   33.6380 C.3   102  VAL102      0.0023
     99  CG2       11.7690    6.9650   34.9050 C.3   102  VAL102      0.0023
    100  N         14.8770    7.2040   31.3670 N.am  103  THR103     -0.1937
    101  CA        15.4450    6.7320   30.1010 C.3   103  THR103      0.2028
    102  C         16.5100    5.6610   30.3560 C.2   103  THR103      0.2642
    103  O         16.7610    5.2950   31.5060 O.2   103  THR103     -0.2714
    104  CB        16.0180    7.9010   29.2530 C.3   103  THR103      0.1808
    105  OG1       16.2390    7.4540   27.9100 O.3   103  THR103     -0.2208
    106  CG2       17.3380    8.4410   29.8440 C.3   103  THR103      0.0379
    107  N         17.1160    5.1480   29.2870 N.am  104  HIS104     -0.1959
    108  CA        18.2130    4.1880   29.4060 C.3   104  HIS104      0.1787
    109  C         19.4080    4.7910   30.1270 C.2   104  HIS104      0.2620
    110  O         19.7830    5.9360   29.8660 O.2   104  HIS104     -0.2715
    111  CB        18.6670    3.7180   28.0250 C.3   104  HIS104      0.0785
    112  CG        17.6110    2.9910   27.2590 C.ar  104  HIS104      0.0821
    113  ND1       16.7630    3.6270   26.3790 N.ar  104  HIS104     -0.2267
    114  CD2       17.2630    1.6830   27.2430 C.ar  104  HIS104      0.1154
    115  CE1       15.9390    2.7390   25.8510 C.ar  104  HIS104      0.1986
    116  NE2       16.2220    1.5530   26.3570 N.ar  104  HIS104     -0.2212
    117  N         20.0050    4.0100   31.0260 N.am  105  LEU105     -0.1963
    118  CA        21.2850    4.3770   31.6200 C.3   105  LEU105      0.1728
    119  C         22.4010    4.0710   30.6290 C.2   105  LEU105      0.2616
    120  O         22.5820    2.9260   30.2080 O.2   105  LEU105     -0.2715
    121  CB        21.5250    3.6360   32.9380 C.3   105  LEU105      0.0311
    122  CG        22.7970    4.0100   33.7120 C.3   105  LEU105      0.0022
    123  CD1       22.7240    5.4350   34.2630 C.3   105  LEU105      0.0001
    124  CD2       23.0460    3.0120   34.8350 C.3   105  LEU105      0.0001
    125  N         23.1400    5.1080   30.2550 N.am  106  MET106     -0.1963
    126  CA        24.2360    4.9580   29.3060 C.3   106  MET106      0.1736
    127  C         25.5760    4.9020   30.0360 C.2   106  MET106      0.2617
    128  O         25.6890    5.3670   31.1710 O.2   106  MET106     -0.2715
    129  CB        24.1990    6.0890   28.2780 C.3   106  MET106      0.0427
    130  CG        22.8700    6.1850   27.5170 C.3   106  MET106      0.0599
    131  SD        22.4640    4.7210   26.5460 S.3   106  MET106     -0.1393
    132  CE        23.6690    4.8390   25.2230 C.3   106  MET106      0.0692
    133  N         26.5810    4.3230   29.3820 N.am  107  GLY107     -0.1940
    134  CA        27.8800    4.0700   30.0110 C.3   107  GLY107      0.2014
    135  C         28.6910    5.3160   30.3090 C.2   107  GLY107      0.2639
    136  O         29.1830    5.4990   31.4260 O.2   107  GLY107     -0.2714
    137  N         28.8310    6.1740   29.3040 N.am  108  ALA108     -0.1963
    138  CA        29.6210    7.3950   29.4260 C.3   108  ALA108      0.1728
    139  C         29.2310    8.3550   28.3170 C.2   108  ALA108      0.2616
    140  O         28.6140    7.9460   27.3300 O.2   108  ALA108     -0.2715
    141  CB        31.1100    7.0750   29.3420 C.3   108  ALA108      0.0334
    142  N         29.5690    9.6320   28.4830 N.am  109  ASP109     -0.1971
    143  CA        29.4360   10.5690   27.3740 C.3   109  ASP109      0.1709
    144  C         30.6730   10.4550   26.4860 C.2   109  ASP109      0.2293
    145  O         31.7100    9.9420   26.9220 O.2   109  ASP109     -0.2864
    146  CB        29.1490   12.0090   27.8400 C.3   109  ASP109      0.1436
    147  CG        30.3300   12.6680   28.5420 C.2   109  ASP109      0.3671
    148  OD1       30.1000   13.3250   29.5800 O.co2 109  ASP109     -0.2456
    149  OD2       31.4740   12.5610   28.0590 O.co2 109  ASP109     -0.2456
    150  N         29.7650   15.9630   25.0370 N.3   151  SER151     -0.1217
    151  CA        29.1390   15.7290   26.3480 C.3   151  SER151      0.1889
    152  C         27.6400   15.4130   26.2720 C.2   151  SER151      0.2288
    153  O         27.0610   14.8970   27.2360 O.2   151  SER151     -0.2866
    154  CB        29.3970   16.9040   27.2980 C.3   151  SER151      0.2089
    155  OG        28.8030   18.0950   26.8180 O.3   151  SER151     -0.2183
    156  N         25.7210   10.1770   24.3610 N.3   154  ALA154     -0.1245
    157  CA        25.8190    9.0840   25.3200 C.3   154  ALA154      0.1562
    158  C         26.1630    7.7860   24.6010 C.2   154  ALA154      0.2260
    159  O         25.5780    7.4640   23.5660 O.2   154  ALA154     -0.2867
    160  CB        24.5170    8.9520   26.0760 C.3   154  ALA154      0.0290
    161  N         21.5390   13.1400   23.3820 N.3   164  LEU164     -0.1231
    162  CA        20.9370   13.6320   24.6210 C.3   164  LEU164      0.1693
    163  C         20.6970   15.1470   24.5780 C.2   164  LEU164      0.2592
    164  O         21.4410   15.8760   23.9230 O.2   164  LEU164     -0.2718
    165  CB        21.8640   13.2740   25.7910 C.3   164  LEU164      0.0284
    166  CG        21.5430   13.6190   27.2460 C.3   164  LEU164      0.0019
    167  CD1       20.4450   12.7220   27.7910 C.3   164  LEU164      0.0001
    168  CD2       22.7990   13.4690   28.0760 C.3   164  LEU164      0.0001
    169  N         19.6500   15.6040   25.2730 N.am  165  ASP165     -0.1974
    170  CA        19.3850   17.0400   25.5110 C.3   165  ASP165      0.1709
    171  C         19.1150   17.9090   24.2630 C.2   165  ASP165      0.2293
    172  O         19.5360   19.0680   24.1920 O.2   165  ASP165     -0.2864
    173  CB        20.4950   17.6580   26.3810 C.3   165  ASP165      0.1436
    174  CG        20.5030   17.1200   27.8070 C.2   165  ASP165      0.3671
    175  OD1       19.4760   16.5680   28.2580 O.co2 165  ASP165     -0.2456
    176  OD2       21.5460   17.2570   28.4830 O.co2 165  ASP165     -0.2456
@<TRIPOS>BOND
     1    65    66    1
     2   161   162    1
     3   159   158    2
     4    68    67    2
     5   164   163    2
     6    67    66    1
     7    67    73   am
     8    66    69    1
     9   172   171    2
    10   171   170    1
    11    60    59    2
    12   156   157    1
    13    73    74    1
    14    74    75    1
    15   163   162    1
    16   163   169   am
    17   158   157    1
    18   162   165    1
    19    57    58    1
    20    59    58    1
    21   150   151    1
    22    58    61    1
    23    69    70    1
    24    69    71    1
    25   132   131    1
    26   169   170    1
    27   157   160    1
    28    70    72    1
    29   170   173    1
    30   165   166    1
    31   115   116   ar
    32   115   113   ar
    33    75    77   am
    34    75    76    2
    35    77    78    1
    36   152   151    1
    37   152   153    2
    38   151   154    1
    39   116   114   ar
    40   113   112   ar
    41   173   174    1
    42    64    62    1
    43   144   145    2
    44   144   143    1
    45   131   130    1
    46    61    62    1
    47   155   154    1
    48    51    50    2
    49    80    79    2
    50    62    63    1
    51   114   112   ar
    52   166   167    1
    53   166   168    1
    54   112   111    1
    55   140   139    2
    56   143   146    1
    57   143   142    1
    58    78    81    1
    59    78    79    1
    60    48    49    1
    61    81    82    1
    62   130   129    1
    63    50    49    1
    64    49    52    1
    65   174   175   ar
    66   174   176   ar
    67   146   147    1
    68   105   104    1
    69   111   108    1
    70   149   147   ar
    71   129   126    1
    72   139   142   am
    73   139   138    1
    74   147   148   ar
    75    84    82    1
    76    53    52    1
    77    53    54    1
    78    82    83    1
    79   104   106    1
    80   104   101    1
    81   107   108    1
    82   107   102   am
    83   137   138    1
    84   137   135   am
    85   126   127    1
    86   126   125    1
    87   141   138    1
    88   133   134    1
    89   133   127   am
    90   108   109    1
    91   110   109    2
    92    56    54   ar
    93    54    55   ar
    94   134   135    1
    95   127   128    2
    96   101   102    1
    97   101   100    1
    98   109   117   am
    99   120   119    2
   100   125   119   am
   101   135   136    2
   102   102   103    2
   103    26    23    1
   104    96    95    2
   105   119   118    1
   106   117   118    1
   107   100    95   am
   108    95    94    1
   109   118   121    1
   110    47    46    1
   111    92    90    1
   112    23    22    1
   113    23    24    1
   114    91    90    1
   115    22    20   am
   116    90    89    1
   117    89    86    1
   118    46    45    1
   119    94    93    1
   120    94    97    1
   121   121   122    1
   122    93    87   am
   123    24    25    2
   124    38    35    1
   125    97    98    1
   126    97    99    1
   127    20    19    1
   128    20    21    2
   129    87    86    1
   130    87    88    2
   131    86    85    1
   132   122   123    1
   133   122   124    1
   134    37    36    2
   135    34    35    1
   136    19    18    1
   137    45    44    1
   138    35    36    1
   139    15    14    2
   140    43    44    1
   141    43    40    1
   142    18    14   am
   143    33    31    1
   144    14    13    1
   145    32    31    1
   146    39    40    1
   147     6     5    1
   148    40    41    1
   149    31    28    1
   150    42    41    2
   151    16    13    1
   152    16    17    1
   153    13    12    1
   154     7     5    1
   155     5     2    1
   156    12    10   am
   157    28    27    1
   158    28    29    1
   159    10    11    2
   160    10     9    1
   161     4     3    2
   162     3     2    1
   163     3     8   am
   164     9     8    1
   165    29    30    2
   166     2     1    1
