@<TRIPOS>MOLECULE
tmp/3fmlA00.pdb
 161 149 0 0 0
SMALL
GASTEIGER

@<TRIPOS>ATOM
      1  N         23.9790   10.2810   40.6900 N.3    27  VAL27      -0.1245
      2  CA        25.0210   10.2730   39.6670 C.3    27  VAL27       0.1561
      3  C         25.2270   11.6620   39.0670 C.2    27  VAL27       0.2260
      4  O         26.3230   12.0030   38.6190 O.2    27  VAL27      -0.2867
      5  CB        24.7400    9.2420   38.5320 C.3    27  VAL27       0.0252
      6  CG1       24.9250    7.8150   39.0430 C.3    27  VAL27       0.0019
      7  CG2       23.3420    9.4360   37.9410 C.3    27  VAL27       0.0019
      8  N         19.9360   13.7170   39.2420 N.3    29  VAL29      -0.1245
      9  CA        19.7300   12.4450   38.5510 C.3    29  VAL29       0.1561
     10  C         20.2460   11.2700   39.3800 C.2    29  VAL29       0.2260
     11  O         21.3400   11.3310   39.9510 O.2    29  VAL29      -0.2867
     12  CB        20.4140   12.4490   37.1570 C.3    29  VAL29       0.0252
     13  CG1       20.2390   11.1000   36.4430 C.3    29  VAL29       0.0019
     14  CG2       19.8670   13.5860   36.2960 C.3    29  VAL29       0.0019
     15  N         18.2480    5.7950   34.4340 N.3    42  ALA42      -0.1245
     16  CA        18.5470    7.0700   35.0620 C.3    42  ALA42       0.1562
     17  C         17.2230    7.7540   35.3610 C.2    42  ALA42       0.2260
     18  O         16.3940    7.9320   34.4690 O.2    42  ALA42      -0.2867
     19  CB        19.3990    7.9300   34.1410 C.3    42  ALA42       0.0290
     20  N         15.4540   11.1560   36.6780 N.3    44  LYS44      -0.1245
     21  CA        15.6980   12.5820   36.8480 C.3    44  LYS44       0.1561
     22  C         14.4810   13.2480   37.4760 C.2    44  LYS44       0.2260
     23  O         13.3780   13.1940   36.9220 O.2    44  LYS44      -0.2867
     24  CB        16.0250   13.1990   35.4920 C.3    44  LYS44       0.0271
     25  CG        16.2840   14.6990   35.4680 C.3    44  LYS44       0.0035
     26  CD        16.5280   15.0920   34.0220 C.3    44  LYS44       0.0206
     27  CE        16.4790   16.5720   33.8090 C.3    44  LYS44       0.1093
     28  NZ        16.6130   16.8780   32.3540 N.3    44  LYS44      -0.1314
     29  N         10.4710   20.0130   27.6010 N.3    62  GLU62      -0.1245
     30  CA        11.2920   18.8150   27.7920 C.3    62  GLU62       0.1567
     31  C         10.4740   17.5220   27.7540 C.2    62  GLU62       0.2260
     32  O         10.8810   16.5420   27.1310 O.2    62  GLU62      -0.2867
     33  CB        12.1080   18.8800   29.0980 C.3    62  GLU62       0.0388
     34  CG        12.8950   17.5810   29.3370 C.3    62  GLU62       0.1160
     35  CD        13.9650   17.6680   30.4060 C.2    62  GLU62       0.3649
     36  OE1       13.8320   18.4790   31.3450 O.co2  62  GLU62      -0.2457
     37  OE2       14.9350   16.8930   30.3100 O.co2  62  GLU62      -0.2457
     38  N         10.8090   14.5960   24.8860 N.3    66  LEU66      -0.1245
     39  CA        11.1990   13.2430   25.2920 C.3    66  LEU66       0.1561
     40  C         10.1320   12.1930   24.9740 C.2    66  LEU66       0.2260
     41  O         10.4540   11.0700   24.5820 O.2    66  LEU66      -0.2867
     42  CB        11.5590   13.2120   26.7840 C.3    66  LEU66       0.0270
     43  CG        12.8810   13.8480   27.2260 C.3    66  LEU66       0.0019
     44  CD1       12.9130   13.9700   28.7500 C.3    66  LEU66       0.0001
     45  CD2       14.0890   13.0330   26.7290 C.3    66  LEU66       0.0001
     46  N         17.9430    9.5210   22.8080 N.3    75  ILE75      -0.1245
     47  CA        17.4400    9.2710   24.1590 C.3    75  ILE75       0.1561
     48  C         15.9150    9.1390   24.1380 C.2    75  ILE75       0.2260
     49  O         15.2170   10.0000   23.6000 O.2    75  ILE75      -0.2867
     50  CB        17.8900   10.3790   25.1640 C.3    75  ILE75       0.0252
     51  CG1       17.4130   10.0510   26.5810 C.3    75  ILE75       0.0019
     52  CG2       17.4000   11.7670   24.7280 C.3    75  ILE75       0.0019
     53  CD1       17.6960   11.1420   27.6010 C.3    75  ILE75       0.0001
     54  N         12.1370    8.0660   26.3570 N.3    77  LEU77      -0.1245
     55  CA        11.5130    8.0980   27.6650 C.3    77  LEU77       0.1561
     56  C         10.9460    6.7160   27.9900 C.2    77  LEU77       0.2260
     57  O         10.0230    6.2380   27.3270 O.2    77  LEU77      -0.2867
     58  CB        10.4270    9.1710   27.6980 C.3    77  LEU77       0.0270
     59  CG         9.9370    9.7080   29.0410 C.3    77  LEU77       0.0019
     60  CD1       11.0780   10.2430   29.9040 C.3    77  LEU77       0.0001
     61  CD2        8.8930   10.7870   28.7870 C.3    77  LEU77       0.0001
     62  N         11.5240   11.8410   35.3630 N.3    95  LEU95      -0.1231
     63  CA        11.7420   11.3290   34.0130 C.3    95  LEU95       0.1693
     64  C         12.6810   10.1410   34.0830 C.2    95  LEU95       0.2592
     65  O         13.6700   10.1710   34.8140 O.2    95  LEU95      -0.2718
     66  CB        12.3320   12.4220   33.1090 C.3    95  LEU95       0.0284
     67  CG        11.5640   13.7490   33.0540 C.3    95  LEU95       0.0019
     68  CD1       12.4100   14.8560   32.4520 C.3    95  LEU95       0.0001
     69  CD2       10.2500   13.5900   32.2920 C.3    95  LEU95       0.0001
     70  N         12.3690    9.0990   33.3220 N.am   96  VAL96      -0.1966
     71  CA        13.1370    7.8550   33.3700 C.3    96  VAL96       0.1727
     72  C         13.5910    7.4930   31.9670 C.2    96  VAL96       0.2617
     73  O         12.7840    7.4620   31.0360 O.2    96  VAL96      -0.2715
     74  CB        12.3200    6.6730   34.0030 C.3    96  VAL96       0.0290
     75  CG1       13.1800    5.4060   34.1250 C.3    96  VAL96       0.0023
     76  CG2       11.7660    7.0560   35.3710 C.3    96  VAL96       0.0023
     77  N         14.8900    7.2320   31.8290 N.am   97  THR97      -0.1937
     78  CA        15.4820    6.7940   30.5670 C.3    97  THR97       0.2028
     79  C         16.5820    5.7580   30.8430 C.2    97  THR97       0.2642
     80  O         16.8790    5.4660   32.0030 O.2    97  THR97      -0.2714
     81  CB        16.0410    7.9910   29.7480 C.3    97  THR97       0.1808
     82  OG1       16.3440    7.5530   28.4170 O.3    97  THR97      -0.2208
     83  CG2       17.3050    8.5700   30.3940 C.3    97  THR97       0.0379
     84  N         17.1690    5.1970   29.7890 N.am   98  HIS98      -0.1959
     85  CA        18.2680    4.2370   29.9490 C.3    98  HIS98       0.1787
     86  C         19.4590    4.8660   30.6570 C.2    98  HIS98       0.2620
     87  O         19.7770    6.0290   30.4290 O.2    98  HIS98      -0.2715
     88  CB        18.7350    3.7090   28.5930 C.3    98  HIS98       0.0785
     89  CG        17.6650    3.0170   27.8100 C.ar   98  HIS98       0.0821
     90  ND1       16.7880    3.6970   26.9910 N.ar   98  HIS98      -0.2267
     91  CD2       17.3290    1.7080   27.7220 C.ar   98  HIS98       0.1154
     92  CE1       15.9620    2.8330   26.4260 C.ar   98  HIS98       0.1986
     93  NE2       16.2690    1.6200   26.8550 N.ar   98  HIS98      -0.2212
     94  N         20.1080    4.0910   31.5220 N.am   99  LEU99      -0.1963
     95  CA        21.3650    4.5130   32.1200 C.3    99  LEU99       0.1728
     96  C         22.4770    4.2810   31.1090 C.2    99  LEU99       0.2616
     97  O         22.8630    3.1420   30.8380 O.2    99  LEU99      -0.2715
     98  CB        21.6490    3.7500   33.4190 C.3    99  LEU99       0.0311
     99  CG        22.9140    4.1610   34.1820 C.3    99  LEU99       0.0022
    100  CD1       22.8400    5.6140   34.6520 C.3    99  LEU99       0.0001
    101  CD2       23.1630    3.2300   35.3590 C.3    99  LEU99       0.0001
    102  N         22.9720    5.3660   30.5280 N.am  100  MET100     -0.1963
    103  CA        24.0570    5.2790   29.5630 C.3   100  MET100      0.1736
    104  C         25.3810    5.2680   30.3060 C.2   100  MET100      0.2617
    105  O         25.5290    5.9350   31.3310 O.2   100  MET100     -0.2715
    106  CB        23.9920    6.4370   28.5700 C.3   100  MET100      0.0427
    107  CG        22.7180    6.4640   27.7250 C.3   100  MET100      0.0599
    108  SD        22.4200    4.8860   26.9130 S.3   100  MET100     -0.1393
    109  CE        23.5100    5.0010   25.4850 C.3   100  MET100      0.0692
    110  N         26.3370    4.5070   29.7810 N.am  101  GLY101     -0.1940
    111  CA        27.6160    4.2950   30.4520 C.3   101  GLY101      0.2014
    112  C         28.4940    5.5280   30.4830 C.2   101  GLY101      0.2639
    113  O         28.7800    6.0720   31.5540 O.2   101  GLY101     -0.2714
    114  N         28.9180    5.9670   29.3010 N.am  102  ALA102     -0.1963
    115  CA        29.8670    7.0670   29.1830 C.3   102  ALA102      0.1728
    116  C         29.4890    7.9830   28.0250 C.2   102  ALA102      0.2616
    117  O         28.6720    7.6140   27.1780 O.2   102  ALA102     -0.2715
    118  CB        31.2780    6.5200   28.9900 C.3   102  ALA102      0.0334
    119  N         30.0810    9.1780   28.0040 N.am  103  ASP103     -0.1971
    120  CA        29.9080   10.1000   26.8890 C.3   103  ASP103      0.1709
    121  C         31.0630    9.9820   25.8880 C.2   103  ASP103      0.2293
    122  O         32.0250    9.2460   26.1220 O.2   103  ASP103     -0.2864
    123  CB        29.7170   11.5410   27.3870 C.3   103  ASP103      0.1436
    124  CG        30.9750   12.1330   28.0040 C.2   103  ASP103      0.3671
    125  OD1       30.8430   13.0680   28.8190 O.co2 103  ASP103     -0.2456
    126  OD2       32.0920   11.6780   27.6780 O.co2 103  ASP103     -0.2456
    127  N         34.8460   10.6420   27.0980 N.3   106  ASN106     -0.1240
    128  CA        35.4820    9.5170   27.7920 C.3   106  ASN106      0.1653
    129  C         36.1300    8.5210   26.8330 C.2   106  ASN106      0.2266
    130  O         37.0410    7.7830   27.2080 O.2   106  ASN106     -0.2867
    131  CB        34.4640    8.7870   28.6830 C.3   106  ASN106      0.1155
    132  CG        33.7310    9.7210   29.6490 C.2   106  ASN106      0.2627
    133  OD1       32.6000    9.4360   30.0520 O.2   106  ASN106     -0.2716
    134  ND2       34.3690   10.8350   30.0190 N.am  106  ASN106     -0.0877
    135  N         29.8980   15.6830   24.9710 N.3   145  SER145     -0.1217
    136  CA        29.2900   15.3790   26.2750 C.3   145  SER145      0.1889
    137  C         27.7840   15.0450   26.2360 C.2   145  SER145      0.2288
    138  O         27.2580   14.4780   27.1920 O.2   145  SER145     -0.2866
    139  CB        29.5760   16.5000   27.2860 C.3   145  SER145      0.2089
    140  OG        29.0840   17.7390   26.8140 O.3   145  SER145     -0.2183
    141  N         26.0330    9.8630   24.3260 N.3   148  ALA148     -0.1245
    142  CA        26.2860    8.7370   25.2120 C.3   148  ALA148      0.1562
    143  C         26.5000    7.4680   24.4110 C.2   148  ALA148      0.2260
    144  O         25.8320    7.2280   23.3990 O.2   148  ALA148     -0.2867
    145  CB        25.1380    8.5640   26.1690 C.3   148  ALA148      0.0290
    146  N         21.7530   12.8540   23.5020 N.3   158  LEU158     -0.1231
    147  CA        21.1140   13.3300   24.7380 C.3   158  LEU158      0.1693
    148  C         20.8920   14.8420   24.7490 C.2   158  LEU158      0.2592
    149  O         21.4160   15.5700   23.8980 O.2   158  LEU158     -0.2718
    150  CB        21.9500   12.9500   25.9740 C.3   158  LEU158      0.0284
    151  CG        22.6790   11.6030   26.0960 C.3   158  LEU158      0.0019
    152  CD1       23.4000   11.5270   27.4430 C.3   158  LEU158      0.0001
    153  CD2       21.7370   10.4120   25.9290 C.3   158  LEU158      0.0001
    154  N         20.1320   15.2970   25.7460 N.am  159  ASP159     -0.1974
    155  CA        19.8500   16.7200   25.9930 C.3   159  ASP159      0.1709
    156  C         18.7850   17.3300   25.0880 C.2   159  ASP159      0.2293
    157  O         17.5880   17.2160   25.3770 O.2   159  ASP159     -0.2864
    158  CB        21.1320   17.5670   25.9970 C.3   159  ASP159      0.1436
    159  CG        21.7820   17.6220   27.3610 C.2   159  ASP159      0.3671
    160  OD1       22.1480   16.5570   27.9000 O.co2 159  ASP159     -0.2456
    161  OD2       21.9230   18.7380   27.9000 O.co2 159  ASP159     -0.2456
@<TRIPOS>BOND
     1    46    47    1
     2   144   143    2
     3   146   147    1
     4    49    48    2
     5   149   148    2
     6    48    47    1
     7    47    50    1
     8   141   142    1
     9   143   142    1
    10    41    40    2
    11    52    50    1
    12   147   148    1
    13   147   150    1
    14   148   154   am
    15    38    39    1
    16   135   136    1
    17    40    39    1
    18   156   157    2
    19   156   155    1
    20    50    51    1
    21   142   145    1
    22    39    42    1
    23   109   108    1
    24   154   155    1
    25   121   122    2
    26   121   120    1
    27   153   151    1
    28   150   151    1
    29   155   158    1
    30   158   159    1
    31   151   152    1
    32   137   136    1
    33   137   138    2
    34   136   139    1
    35    54    55    1
    36    92    93   ar
    37    92    90   ar
    38    51    53    1
    39    45    43    1
    40    42    43    1
    41   140   139    1
    42   129   130    2
    43   129   128    1
    44    93    91   ar
    45   120   123    1
    46   120   119    1
    47   108   107    1
    48    90    89   ar
    49   127   128    1
    50    32    31    2
    51   117   116    2
    52    43    44    1
    53    57    56    2
    54   159   160   ar
    55   159   161   ar
    56   123   124    1
    57    29    30    1
    58    55    58    1
    59    55    56    1
    60   126   124   ar
    61    58    59    1
    62    91    89   ar
    63   107   106    1
    64    31    30    1
    65   128   131    1
    66    30    33    1
    67    89    88    1
    68   124   125   ar
    69   119   116   am
    70   116   115    1
    71    82    81    1
    72   106   103    1
    73    88    85    1
    74   131   132    1
    75    61    59    1
    76   118   115    1
    77    59    60    1
    78    33    34    1
    79   115   114    1
    80   114   112   am
    81    34    35    1
    82   103   104    1
    83   103   102    1
    84   132   134   am
    85   132   133    2
    86    81    83    1
    87    81    78    1
    88   110   104   am
    89   110   111    1
    90    84    85    1
    91    84    79   am
    92    85    86    1
    93   104   105    2
    94    37    35   ar
    95    35    36   ar
    96    87    86    2
    97   111   112    1
    98   112   113    2
    99   102    96   am
   100    78    79    1
   101    78    77    1
   102    86    94   am
   103    97    96    2
   104    79    80    2
   105    73    72    2
   106    96    95    1
   107    94    95    1
   108    77    72   am
   109    72    71    1
   110    95    98    1
   111    69    67    1
   112    28    27    1
   113    68    67    1
   114    67    66    1
   115    66    63    1
   116    70    71    1
   117    70    64   am
   118    71    74    1
   119    98    99    1
   120    27    26    1
   121    74    75    1
   122    74    76    1
   123    63    64    1
   124    63    62    1
   125    26    25    1
   126    64    65    2
   127    19    16    1
   128    99   100    1
   129    99   101    1
   130    15    16    1
   131    18    17    2
   132    16    17    1
   133    25    24    1
   134    24    21    1
   135    14    12    1
   136    13    12    1
   137    20    21    1
   138    21    22    1
   139    23    22    2
   140    12     9    1
   141     7     5    1
   142     5     6    1
   143     5     2    1
   144     9     8    1
   145     9    10    1
   146     4     3    2
   147     3     2    1
   148    10    11    2
   149     2     1    1
