@<TRIPOS>MOLECULE
tmp/3fmnA00.pdb
 165 154 0 0 0
SMALL
GASTEIGER

@<TRIPOS>ATOM
      1  N         24.3090   10.2060   39.6510 N.3    27  VAL27      -0.1245
      2  CA        25.3250   10.2330   38.5970 C.3    27  VAL27       0.1561
      3  C         25.5980   11.6550   38.1050 C.2    27  VAL27       0.2260
      4  O         26.6560   11.9290   37.5340 O.2    27  VAL27      -0.2867
      5  CB        24.9760    9.3110   37.3930 C.3    27  VAL27       0.0252
      6  CG1       25.2380    7.8470   37.7380 C.3    27  VAL27       0.0019
      7  CG2       23.5420    9.5210   36.9310 C.3    27  VAL27       0.0019
      8  N         20.0560   13.6800   38.3270 N.3    31  VAL31      -0.1245
      9  CA        19.9460   12.3790   37.6630 C.3    31  VAL31       0.1561
     10  C         20.4890   11.2450   38.5410 C.2    31  VAL31       0.2260
     11  O         21.5640   11.3670   39.1410 O.2    31  VAL31      -0.2867
     12  CB        20.6490   12.3810   36.2750 C.3    31  VAL31       0.0252
     13  CG1       20.5020   11.0320   35.5790 C.3    31  VAL31       0.0019
     14  CG2       20.0840   13.4900   35.3890 C.3    31  VAL31       0.0019
     15  N         18.3010    5.6480   33.7980 N.3    44  ALA44      -0.1245
     16  CA        18.6140    6.9550   34.3620 C.3    44  ALA44       0.1562
     17  C         17.3120    7.6750   34.6870 C.2    44  ALA44       0.2260
     18  O         16.4470    7.8280   33.8250 O.2    44  ALA44      -0.2867
     19  CB        19.4420    7.7710   33.3880 C.3    44  ALA44       0.0290
     20  N         15.5950   11.1590   36.0160 N.3    46  LYS46      -0.1245
     21  CA        15.8130   12.5930   36.1650 C.3    46  LYS46       0.1561
     22  C         14.6360   13.2380   36.8900 C.2    46  LYS46       0.2260
     23  O         13.5030   13.2080   36.4030 O.2    46  LYS46      -0.2867
     24  CB        16.0190   13.2300   34.7900 C.3    46  LYS46       0.0271
     25  CG        16.3950   14.7020   34.7820 C.3    46  LYS46       0.0035
     26  CD        16.4580   15.1820   33.3380 C.3    46  LYS46       0.0206
     27  CE        16.9970   16.5830   33.2190 C.3    46  LYS46       0.1093
     28  NZ        17.0890   16.9620   31.7780 N.3    46  LYS46      -0.1314
     29  N         10.1860   19.9400   27.5440 N.3    64  GLU64      -0.1245
     30  CA        11.0530   18.7690   27.6900 C.3    64  GLU64       0.1567
     31  C         10.2400   17.4750   27.6670 C.2    64  GLU64       0.2260
     32  O         10.6420   16.4990   27.0350 O.2    64  GLU64      -0.2867
     33  CB        11.9070   18.8420   28.9630 C.3    64  GLU64       0.0388
     34  CG        12.8130   17.6110   29.1220 C.3    64  GLU64       0.1160
     35  CD        13.9170   17.7630   30.1500 C.2    64  GLU64       0.3649
     36  OE1       13.8460   18.6770   30.9990 O.co2  64  GLU64      -0.2457
     37  OE2       14.8580   16.9400   30.1080 O.co2  64  GLU64      -0.2457
     38  N         10.6570   14.5490   24.7780 N.3    68  LEU68      -0.1245
     39  CA        10.9910   13.1870   25.1920 C.3    68  LEU68       0.1561
     40  C          9.9020   12.1670   24.8490 C.2    68  LEU68       0.2260
     41  O         10.2150   11.0570   24.4170 O.2    68  LEU68      -0.2867
     42  CB        11.3280   13.1410   26.6880 C.3    68  LEU68       0.0270
     43  CG        12.6640   13.7730   27.0950 C.3    68  LEU68       0.0019
     44  CD1       12.7410   13.9190   28.6060 C.3    68  LEU68       0.0001
     45  CD2       13.8590   12.9660   26.5660 C.3    68  LEU68       0.0001
     46  N         17.7020    9.6600   22.7140 N.3    77  ILE77      -0.1231
     47  CA        17.1700    9.4060   24.0580 C.3    77  ILE77       0.1692
     48  C         15.6460    9.5360   24.0710 C.2    77  ILE77       0.2593
     49  O         15.0880   10.5730   23.6780 O.2    77  ILE77      -0.2718
     50  CB        17.8220   10.3260   25.1350 C.3    77  ILE77       0.0266
     51  CG1       19.2520    9.8660   25.4340 C.3    77  ILE77       0.0019
     52  CG2       17.0040   10.3640   26.4320 C.3    77  ILE77       0.0020
     53  CD1       19.3800    8.5200   26.1680 C.3    77  ILE77       0.0001
     54  N         14.9880    8.4680   24.5090 N.am   78  GLY78      -0.1942
     55  CA        13.5310    8.4260   24.5880 C.3    78  GLY78       0.2014
     56  C         13.0340    8.1560   25.9950 C.2    78  GLY78       0.2638
     57  O         13.8180    7.8990   26.9070 O.2    78  GLY78      -0.2714
     58  N         11.7190    8.2100   26.1630 N.am   79  LEU79      -0.1977
     59  CA        11.1080    8.0530   27.4720 C.3    79  LEU79       0.1596
     60  C         10.6760    6.6050   27.7030 C.2    79  LEU79       0.2287
     61  O          9.8280    6.0660   26.9780 O.2    79  LEU79      -0.2864
     62  CB         9.9260    9.0140   27.6040 C.3    79  LEU79       0.0297
     63  CG         9.5500    9.6130   28.9600 C.3    79  LEU79       0.0022
     64  CD1       10.7320   10.2910   29.6690 C.3    79  LEU79       0.0001
     65  CD2        8.4060   10.5960   28.7530 C.3    79  LEU79       0.0001
     66  N         11.5290   11.7000   35.0760 N.3    97  LEU97      -0.1231
     67  CA        11.7040   11.1870   33.7180 C.3    97  LEU97       0.1693
     68  C         12.6930   10.0220   33.7080 C.2    97  LEU97       0.2592
     69  O         13.7650   10.1110   34.3070 O.2    97  LEU97      -0.2718
     70  CB        12.1980   12.3150   32.7960 C.3    97  LEU97       0.0284
     71  CG        11.3930   13.6230   32.7960 C.3    97  LEU97       0.0019
     72  CD1       12.2480   14.7950   32.3270 C.3    97  LEU97       0.0001
     73  CD2       10.1300   13.4850   31.9450 C.3    97  LEU97       0.0001
     74  N         12.3310    8.9360   33.0270 N.am   98  VAL98      -0.1966
     75  CA        13.1570    7.7210   32.9890 C.3    98  VAL98       0.1727
     76  C         13.5770    7.3640   31.5560 C.2    98  VAL98       0.2617
     77  O         12.7410    7.3180   30.6560 O.2    98  VAL98      -0.2715
     78  CB        12.4150    6.4990   33.6210 C.3    98  VAL98       0.0290
     79  CG1       13.3490    5.2900   33.7360 C.3    98  VAL98       0.0023
     80  CG2       11.8300    6.8500   34.9970 C.3    98  VAL98       0.0023
     81  N         14.8720    7.0980   31.3640 N.am   99  THR99      -0.1937
     82  CA        15.4100    6.6400   30.0780 C.3    99  THR99       0.2028
     83  C         16.4970    5.5750   30.2960 C.2    99  THR99       0.2642
     84  O         16.7910    5.2150   31.4340 O.2    99  THR99      -0.2714
     85  CB        15.9740    7.8210   29.2310 C.3    99  THR99       0.1808
     86  OG1       16.1830    7.3850   27.8820 O.3    99  THR99      -0.2208
     87  CG2       17.3010    8.3340   29.8020 C.3    99  THR99       0.0379
     88  N         17.0770    5.0670   29.2090 N.am  100  HIS100     -0.1959
     89  CA        18.1880    4.1180   29.3000 C.3   100  HIS100      0.1787
     90  C         19.4020    4.7420   29.9730 C.2   100  HIS100      0.2620
     91  O         19.7410    5.8990   29.7040 O.2   100  HIS100     -0.2715
     92  CB        18.6060    3.6350   27.9090 C.3   100  HIS100      0.0785
     93  CG        17.5310    2.9080   27.1690 C.ar  100  HIS100      0.0821
     94  ND1       16.6550    3.5430   26.3160 N.ar  100  HIS100     -0.2267
     95  CD2       17.1940    1.5970   27.1470 C.ar  100  HIS100      0.1154
     96  CE1       15.8220    2.6560   25.8030 C.ar  100  HIS100      0.1986
     97  NE2       16.1310    1.4670   26.2870 N.ar  100  HIS100     -0.2212
     98  N         20.0510    3.9710   30.8430 N.am  101  LEU101     -0.1963
     99  CA        21.3480    4.3530   31.3900 C.3   101  LEU101      0.1728
    100  C         22.4500    3.9880   30.4010 C.2   101  LEU101      0.2616
    101  O         22.6180    2.8180   30.0350 O.2   101  LEU101     -0.2715
    102  CB        21.6060    3.6800   32.7440 C.3   101  LEU101      0.0311
    103  CG        22.9160    4.0380   33.4610 C.3   101  LEU101      0.0022
    104  CD1       22.9280    5.4970   33.9100 C.3   101  LEU101      0.0001
    105  CD2       23.1580    3.1040   34.6430 C.3   101  LEU101      0.0001
    106  N         23.1820    5.0070   29.9640 N.am  102  MET102     -0.1963
    107  CA        24.3170    4.8310   29.0710 C.3   102  MET102      0.1736
    108  C         25.6000    4.9300   29.8880 C.2   102  MET102      0.2617
    109  O         25.6610    5.6800   30.8630 O.2   102  MET102     -0.2715
    110  CB        24.2920    5.8820   27.9630 C.3   102  MET102      0.0427
    111  CG        22.9770    5.9420   27.1730 C.3   102  MET102      0.0599
    112  SD        22.6030    4.4140   26.3040 S.3   102  MET102     -0.1393
    113  CE        23.8040    4.4470   24.9720 C.3   102  MET102      0.0692
    114  N         26.6120    4.1650   29.4900 N.am  103  GLY103     -0.1940
    115  CA        27.8310    4.0050   30.2850 C.3   103  GLY103      0.2014
    116  C         28.7690    5.1970   30.3130 C.2   103  GLY103      0.2639
    117  O         29.4250    5.4580   31.3260 O.2   103  GLY103     -0.2714
    118  N         28.8370    5.9230   29.2030 N.am  104  ALA104     -0.1963
    119  CA        29.7910    7.0220   29.0630 C.3   104  ALA104      0.1728
    120  C         29.3200    8.0270   28.0180 C.2   104  ALA104      0.2616
    121  O         28.3000    7.8120   27.3630 O.2   104  ALA104     -0.2715
    122  CB        31.1660    6.4730   28.6920 C.3   104  ALA104      0.0334
    123  N         30.0520    9.1330   27.8880 N.am  105  ASP105     -0.1971
    124  CA        29.8420   10.0630   26.7790 C.3   105  ASP105      0.1709
    125  C         31.0310   10.0210   25.8150 C.2   105  ASP105      0.2293
    126  O         32.0230    9.3260   26.0670 O.2   105  ASP105     -0.2864
    127  CB        29.5360   11.4890   27.2740 C.3   105  ASP105      0.1436
    128  CG        30.7000   12.1310   28.0140 C.2   105  ASP105      0.3671
    129  OD1       30.4410   12.9510   28.9180 O.co2 105  ASP105     -0.2456
    130  OD2       31.8670   11.8270   27.7000 O.co2 105  ASP105     -0.2456
    131  N         34.6670   10.7160   27.0140 N.3   108  ASN108     -0.1240
    132  CA        35.3290    9.5720   27.6410 C.3   108  ASN108      0.1653
    133  C         35.9450    8.6260   26.6120 C.2   108  ASN108      0.2266
    134  O         36.9630    7.9840   26.8800 O.2   108  ASN108     -0.2867
    135  CB        34.3520    8.7990   28.5380 C.3   108  ASN108      0.1155
    136  CG        33.5940    9.6980   29.5100 C.2   108  ASN108      0.2627
    137  OD1       32.3870    9.5270   29.7150 O.2   108  ASN108     -0.2716
    138  ND2       34.2950   10.6580   30.1120 N.am  108  ASN108     -0.0877
    139  N         29.7370   15.7640   24.9480 N.3   147  SER147     -0.1217
    140  CA        29.1460   15.5080   26.2710 C.3   147  SER147      0.1889
    141  C         27.6470   15.1690   26.2560 C.2   147  SER147      0.2288
    142  O         27.1260   14.6240   27.2370 O.2   147  SER147     -0.2866
    143  CB        29.4310   16.6640   27.2410 C.3   147  SER147      0.2089
    144  OG        28.8350   17.8680   26.8000 O.3   147  SER147     -0.2183
    145  N         25.8650   10.0040   24.2910 N.3   150  ALA150     -0.1245
    146  CA        26.0920    8.9000   25.2160 C.3   150  ALA150      0.1562
    147  C         26.2560    7.5920   24.4640 C.2   150  ALA150      0.2260
    148  O         25.5960    7.3480   23.4500 O.2   150  ALA150     -0.2867
    149  CB        24.9620    8.8090   26.2060 C.3   150  ALA150      0.0290
    150  N         21.5050   13.0170   23.5130 N.3   160  LEU160     -0.1231
    151  CA        20.9120   13.6300   24.7110 C.3   160  LEU160      0.1693
    152  C         20.6510   15.1290   24.5210 C.2   160  LEU160      0.2592
    153  O         21.3130   15.7740   23.7120 O.2   160  LEU160     -0.2718
    154  CB        21.8810   13.4860   25.8950 C.3   160  LEU160      0.0284
    155  CG        22.0450   12.2230   26.7460 C.3   160  LEU160      0.0019
    156  CD1       20.8930   12.0620   27.7490 C.3   160  LEU160      0.0001
    157  CD2       22.2340   10.9720   25.9030 C.3   160  LEU160      0.0001
    158  N         19.6980   15.6730   25.2850 N.am  161  ASP161     -0.1974
    159  CA        19.5140   17.1350   25.4430 C.3   161  ASP161      0.1709
    160  C         19.0750   17.9530   24.2140 C.2   161  ASP161      0.2293
    161  O         19.3630   19.1530   24.1370 O.2   161  ASP161     -0.2864
    162  CB        20.7860   17.7710   26.0320 C.3   161  ASP161      0.1436
    163  CG        21.0920   17.2890   27.4350 C.2   161  ASP161      0.3671
    164  OD1       22.2850   17.2670   27.7970 O.co2 161  ASP161     -0.2456
    165  OD2       20.1470   16.9420   28.1830 O.co2 161  ASP161     -0.2456
@<TRIPOS>BOND
     1    46    47    1
     2   148   147    2
     3   150   151    1
     4    49    48    2
     5   153   152    2
     6    47    48    1
     7    47    50    1
     8    48    54   am
     9   161   160    2
    10   160   159    1
    11   145   146    1
    12    41    40    2
    13   147   146    1
    14    54    55    1
    15   152   151    1
    16   152   158   am
    17    55    56    1
    18   151   154    1
    19    38    39    1
    20    40    39    1
    21   139   140    1
    22   113   112    1
    23    50    51    1
    24    50    52    1
    25    39    42    1
    26   146   149    1
    27   158   159    1
    28    51    53    1
    29   159   162    1
    30    96    97   ar
    31    96    94   ar
    32   125   126    2
    33   125   124    1
    34   154   155    1
    35   157   155    1
    36    56    58   am
    37    56    57    2
    38   162   163    1
    39    58    59    1
    40   141   140    1
    41   141   142    2
    42   140   143    1
    43    97    95   ar
    44   112   111    1
    45    94    93   ar
    46    45    43    1
    47   133   134    2
    48   133   132    1
    49    42    43    1
    50   155   156    1
    51   124   127    1
    52   124   123    1
    53   144   143    1
    54    61    60    2
    55   131   132    1
    56    32    31    2
    57    43    44    1
    58    95    93   ar
    59    93    92    1
    60   111   110    1
    61   127   128    1
    62   121   120    2
    63   163   164   ar
    64   163   165   ar
    65    59    62    1
    66    59    60    1
    67    29    30    1
    68    62    63    1
    69   132   135    1
    70    31    30    1
    71    30    33    1
    72   130   128   ar
    73    86    85    1
    74   123   120   am
    75    92    89    1
    76   110   107    1
    77   128   129   ar
    78   120   119    1
    79   135   136    1
    80   122   119    1
    81    65    63    1
    82    63    64    1
    83    33    34    1
    84   119   118    1
    85   107   108    1
    86   107   106    1
    87    34    35    1
    88   118   116   am
    89    88    89    1
    90    88    83   am
    91    85    87    1
    92    85    82    1
    93    89    90    1
    94   114   108   am
    95   114   115    1
    96   136   137    2
    97   136   138   am
    98    91    90    2
    99   108   109    2
   100   106   100   am
   101    90    98   am
   102   101   100    2
   103    82    83    1
   104    82    81    1
   105    37    35   ar
   106    35    36   ar
   107   115   116    1
   108    83    84    2
   109   116   117    2
   110   100    99    1
   111    77    76    2
   112    98    99    1
   113    81    76   am
   114    99   102    1
   115    76    75    1
   116    28    27    1
   117    73    71    1
   118    72    71    1
   119   102   103    1
   120    71    70    1
   121    70    67    1
   122    75    74    1
   123    75    78    1
   124    74    68   am
   125    27    26    1
   126    26    25    1
   127    19    16    1
   128   103   104    1
   129   103   105    1
   130    78    79    1
   131    78    80    1
   132    68    67    1
   133    68    69    2
   134    67    66    1
   135    15    16    1
   136    18    17    2
   137    16    17    1
   138    25    24    1
   139    24    21    1
   140    14    12    1
   141    13    12    1
   142    20    21    1
   143    21    22    1
   144    12     9    1
   145    23    22    2
   146     7     5    1
   147     5     6    1
   148     5     2    1
   149     4     3    2
   150     9     8    1
   151     9    10    1
   152     3     2    1
   153    10    11    2
   154     2     1    1
