@<TRIPOS>MOLECULE
tmp/3fmoB00.pdb
 135 131 0 0 0
SMALL
GASTEIGER

@<TRIPOS>ATOM
      1  N         52.2090  -19.9510   48.1090 N.3     1  ASN1       -0.1225
      2  CA        50.7570  -19.7810   48.3950 C.3     1  ASN1        0.1785
      3  C         50.3920  -18.3620   48.8910 C.2     1  ASN1        0.2597
      4  O         50.1390  -17.4920   48.0590 O.2     1  ASN1       -0.2718
      5  CB        50.2830  -20.8830   49.3440 C.3     1  ASN1        0.1169
      6  CG        50.2140  -22.2420   48.6550 C.2     1  ASN1        0.2627
      7  OD1       51.1500  -23.0460   48.7420 O.2     1  ASN1       -0.2716
      8  ND2       49.1120  -22.4930   47.9470 N.am    1  ASN1       -0.0877
      9  N         50.3630  -18.1020   50.2030 N.am    2  LEU2       -0.1980
     10  CA        50.0360  -16.7370   50.6870 C.3     2  LEU2        0.1596
     11  C         51.2600  -15.7670   50.6690 C.2     2  LEU2        0.2287
     12  O         52.3610  -16.1130   51.1180 O.2     2  LEU2       -0.2864
     13  CB        49.3760  -16.7810   52.0780 C.3     2  LEU2        0.0297
     14  CG        47.9520  -17.3400   52.1780 C.3     2  LEU2        0.0022
     15  CD1       47.4510  -17.2370   53.6070 C.3     2  LEU2        0.0001
     16  CD2       47.0000  -16.6310   51.2320 C.3     2  LEU2        0.0001
     17  N         38.3050  -19.8570   60.9350 N.3    26  PHE26      -0.1241
     18  CA        37.1920  -20.2130   60.0680 C.3    26  PHE26       0.1605
     19  C         36.0670  -20.8080   60.8930 C.2    26  PHE26       0.2264
     20  O         34.8930  -20.7260   60.5220 O.2    26  PHE26      -0.2867
     21  CB        37.6170  -21.2370   59.0130 C.3    26  PHE26       0.0534
     22  CG        38.6150  -20.7110   58.0160 C.ar   26  PHE26      -0.0203
     23  CD1       38.2310  -19.7910   57.0470 C.ar   26  PHE26      -0.0042
     24  CD2       39.9470  -21.1310   58.0480 C.ar   26  PHE26      -0.0042
     25  CE1       39.1530  -19.3030   56.1300 C.ar   26  PHE26      -0.0003
     26  CE2       40.8670  -20.6470   57.1340 C.ar   26  PHE26      -0.0003
     27  CZ        40.4660  -19.7320   56.1710 C.ar   26  PHE26      -0.0000
     28  N         41.5500  -28.3540   51.7330 N.3    42  MET42      -0.1230
     29  CA        42.5040  -27.4930   51.0380 C.3    42  MET42       0.1702
     30  C         43.7390  -27.1310   51.8390 C.2    42  MET42       0.2593
     31  O         44.6660  -26.5960   51.2560 O.2    42  MET42      -0.2718
     32  CB        41.8260  -26.2180   50.5370 C.3    42  MET42       0.0401
     33  CG        41.0020  -26.5430   49.3530 C.3    42  MET42       0.0596
     34  SD        40.1150  -25.1630   48.7560 S.3    42  MET42      -0.1393
     35  CE        41.3870  -24.4450   47.6900 C.3    42  MET42       0.0692
     36  N         43.7540  -27.3900   53.1440 N.am   43  GLY43      -0.1942
     37  CA        44.9550  -27.1550   53.9480 C.3    43  GLY43       0.2014
     38  C         44.9800  -25.8030   54.6250 C.2    43  GLY43       0.2639
     39  O         45.9310  -25.4500   55.2910 O.2    43  GLY43      -0.2714
     40  N         43.9110  -25.0420   54.4860 N.am   44  PHE44      -0.1959
     41  CA        43.8510  -23.7460   55.1270 C.3    44  PHE44       0.1771
     42  C         43.7380  -23.9360   56.5960 C.2    44  PHE44       0.2620
     43  O         43.1060  -24.8720   57.0430 O.2    44  PHE44      -0.2715
     44  CB        42.6320  -22.9560   54.6630 C.3    44  PHE44       0.0574
     45  CG        42.6710  -22.5670   53.2300 C.ar   44  PHE44      -0.0200
     46  CD1       43.7230  -22.9380   52.4040 C.ar   44  PHE44      -0.0042
     47  CD2       41.6120  -21.8640   52.6910 C.ar   44  PHE44      -0.0042
     48  CE1       43.7230  -22.5890   51.0690 C.ar   44  PHE44      -0.0003
     49  CE2       41.6010  -21.5270   51.3700 C.ar   44  PHE44      -0.0003
     50  CZ        42.6660  -21.8800   50.5490 C.ar   44  PHE44      -0.0000
     51  N         44.2770  -22.9870   57.3340 N.am   45  ASN45      -0.1958
     52  CA        44.3200  -23.0550   58.7730 C.3    45  ASN45       0.1819
     53  C         43.6430  -21.8350   59.4320 C.2    45  ASN45       0.2621
     54  O         42.6550  -21.9590   60.1520 O.2    45  ASN45      -0.2715
     55  CB        45.7970  -23.1340   59.1730 C.3    45  ASN45       0.1195
     56  CG        46.0390  -24.1410   60.2180 C.2    45  ASN45       0.2630
     57  OD1       46.3520  -23.7980   61.3580 O.2    45  ASN45      -0.2716
     58  ND2       45.8750  -25.4110   59.8590 N.am   45  ASN45      -0.0877
     59  N         44.2150  -20.6620   59.1760 N.am   46  ARG46      -0.1977
     60  CA        43.7320  -19.3870   59.6760 C.3    46  ARG46       0.1597
     61  C         43.2230  -18.6310   58.4510 C.2    46  ARG46       0.2287
     62  O         43.6930  -18.8730   57.3420 O.2    46  ARG46      -0.2864
     63  CB        44.8900  -18.5940   60.3410 C.3    46  ARG46       0.0334
     64  CG        45.5180  -19.2580   61.5790 C.3    46  ARG46       0.0492
     65  CD        44.4170  -19.6960   62.5810 C.3    46  ARG46       0.2205
     66  NE        44.8980  -20.2950   63.8400 N.pl3  46  ARG46      -0.0865
     67  CZ        45.4390  -19.6250   64.8710 C.cat  46  ARG46       0.5346
     68  NH1       45.6350  -18.3090   64.7980 N.pl3  46  ARG46       0.1354
     69  NH2       45.8140  -20.2800   65.9810 N.pl3  46  ARG46       0.1354
     70  N         43.5310  -15.5950   56.0790 N.3    48  SER48      -0.1217
     71  CA        44.5300  -14.6250   55.7320 C.3    48  SER48       0.1889
     72  C         44.0930  -13.2220   56.1490 C.2    48  SER48       0.2288
     73  O         42.9100  -12.9530   56.3750 O.2    48  SER48      -0.2866
     74  CB        44.7580  -14.6470   54.2340 C.3    48  SER48       0.2089
     75  OG        43.6470  -14.0900   53.5760 O.3    48  SER48      -0.2183
     76  N         41.3140  -11.9120   54.4010 N.3    51  GLN51      -0.1245
     77  CA        40.1390  -12.7070   54.7510 C.3    51  GLN51       0.1566
     78  C         39.5610  -12.3510   56.1260 C.2    51  GLN51       0.2260
     79  O         38.3470  -12.4090   56.3140 O.2    51  GLN51      -0.2867
     80  CB        40.4610  -14.2000   54.6790 C.3    51  GLN51       0.0367
     81  CG        40.5220  -14.7580   53.2540 C.3    51  GLN51       0.0905
     82  CD        41.4040  -15.9880   53.1590 C.2    51  GLN51       0.2608
     83  OE1       41.6470  -16.6610   54.1660 O.2    51  GLN51      -0.2717
     84  NE2       41.9170  -16.2730   51.9600 N.am   51  GLN51      -0.0878
     85  N         46.7990   -7.2110   46.9840 N.3    71  GLN71      -0.1231
     86  CA        47.7020   -7.7310   45.9640 C.3    71  GLN71       0.1698
     87  C         47.4560   -9.2070   45.6870 C.2    71  GLN71       0.2593
     88  O         46.6110   -9.8340   46.3220 O.2    71  GLN71      -0.2718
     89  CB        49.1850   -7.4690   46.3280 C.3    71  GLN71       0.0381
     90  CG        49.6290   -7.8480   47.7480 C.3    71  GLN71       0.0905
     91  CD        51.1530   -7.9170   47.9100 C.2    71  GLN71       0.2608
     92  OE1       51.8950   -8.0800   46.9350 O.2    71  GLN71      -0.2717
     93  NE2       51.6210   -7.8110   49.1530 N.am   71  GLN71      -0.0878
     94  N         48.1600   -9.7440   44.6970 N.am   72  SER72      -0.1938
     95  CA        48.1330  -11.1730   44.3800 C.3    72  SER72       0.2055
     96  C         48.6370  -12.0200   45.5100 C.2    72  SER72       0.2644
     97  O         49.6520  -11.7010   46.1150 O.2    72  SER72      -0.2714
     98  CB        49.0170  -11.4800   43.1790 C.3    72  SER72       0.2130
     99  OG        48.2850  -11.2890   42.0000 O.3    72  SER72      -0.2179
    100  N         47.9420  -13.1280   45.7450 N.am   73  GLY73      -0.1939
    101  CA        48.2990  -14.0620   46.8050 C.3    73  GLY73       0.2014
    102  C         47.8780  -13.6030   48.1900 C.2    73  GLY73       0.2640
    103  O         48.4860  -14.0020   49.1830 O.2    73  GLY73      -0.2714
    104  N         46.8590  -12.7500   48.2670 N.am   74  THR74      -0.1936
    105  CA        46.3780  -12.2790   49.5620 C.3    74  THR74       0.2028
    106  C         45.2690  -13.2050   50.0520 C.2    74  THR74       0.2643
    107  O         45.0810  -13.3390   51.2620 O.2    74  THR74      -0.2714
    108  CB        45.8290  -10.8210   49.5280 C.3    74  THR74       0.1808
    109  OG1       46.5510  -10.0200   48.5900 O.3    74  THR74      -0.2208
    110  CG2       45.9730  -10.1780   50.9020 C.3    74  THR74       0.0379
    111  N         44.5530  -13.8270   49.1020 N.am   75  GLY75      -0.1939
    112  CA        43.5100  -14.7960   49.3970 C.3    75  GLY75       0.2014
    113  C         42.1600  -14.3650   48.8790 C.2    75  GLY75       0.2639
    114  O         41.1350  -14.8950   49.3080 O.2    75  GLY75      -0.2714
    115  N         42.1580  -13.3840   47.9790 N.am   76  LYS76      -0.1963
    116  CA        40.9190  -12.8150   47.4050 C.3    76  LYS76       0.1728
    117  C         39.9930  -13.8950   46.8380 C.2    76  LYS76       0.2617
    118  O         38.8190  -14.0070   47.2390 O.2    76  LYS76      -0.2715
    119  CB        41.2780  -11.8180   46.2940 C.3    76  LYS76       0.0311
    120  CG        41.4290  -10.3570   46.7410 C.3    76  LYS76       0.0038
    121  CD        42.6480   -9.6160   46.1800 C.3    76  LYS76       0.0206
    122  CE        42.9170   -9.8100   44.7020 C.3    76  LYS76       0.1093
    123  NZ        44.4140   -9.8730   44.4730 N.3    76  LYS76      -0.1314
    124  N         40.5470  -14.7090   45.9350 N.am   77  THR77      -0.1937
    125  CA        39.7900  -15.7760   45.2700 C.3    77  THR77       0.2028
    126  C         39.1570  -16.6880   46.3100 C.2    77  THR77       0.2642
    127  O         37.9510  -16.9000   46.3290 O.2    77  THR77      -0.2714
    128  CB        40.7010  -16.6280   44.3810 C.3    77  THR77       0.1808
    129  OG1       41.5680  -15.7820   43.6180 O.3    77  THR77      -0.2208
    130  CG2       39.8950  -17.4870   43.4690 C.3    77  THR77       0.0379
    131  N         40.0000  -17.2220   47.1850 N.am   78  ALA78      -0.1977
    132  CA        39.5370  -18.0960   48.2220 C.3    78  ALA78       0.1597
    133  C         38.3640  -17.4160   48.9250 C.2    78  ALA78       0.2287
    134  O         37.3160  -18.0150   49.1390 O.2    78  ALA78      -0.2864
    135  CB        40.6660  -18.3880   49.1980 C.3    78  ALA78       0.0319
@<TRIPOS>BOND
     1    99    98    1
     2    98    95    1
     3   130   128    1
     4   129   128    1
     5    95    94    1
     6    95    96    1
     7   128   125    1
     8   123   122    1
     9    94    87   am
    10   122   121    1
    11   125   124    1
    12   125   126    1
    13    96   100   am
    14    96    97    2
    15    87    86    1
    16    87    88    2
    17   100   101    1
    18   124   117   am
    19    86    89    1
    20    86    85    1
    21   121   120    1
    22   119   120    1
    23   119   116    1
    24   126   127    2
    25   126   131   am
    26    89    90    1
    27   101   102    1
    28   117   118    2
    29   117   116    1
    30    92    91    2
    31   131   132    1
    32   116   115    1
    33    35    34    1
    34    90    91    1
    35    91    93   am
    36     8     6   am
    37   115   113   am
    38     4     3    2
    39     1     2    1
    40   102   104   am
    41   102   103    2
    42   132   133    1
    43   132   135    1
    44   104   105    1
    45     2     3    1
    46     2     5    1
    47   109   108    1
    48     6     7    2
    49     6     5    1
    50    34    33    1
    51   113   114    2
    52   113   112    1
    53     3     9   am
    54   133   134    2
    55   111   112    1
    56   111   106   am
    57    33    32    1
    58   108   105    1
    59   108   110    1
    60   105   106    1
    61   106   107    2
    62     9    10    1
    63    32    29    1
    64    50    48   ar
    65    50    49   ar
    66    11    10    1
    67    11    12    2
    68    10    13    1
    69    29    28    1
    70    29    30    1
    71    48    46   ar
    72    16    14    1
    73    31    30    2
    74    49    47   ar
    75    30    36   am
    76    84    82   am
    77    13    14    1
    78    14    15    1
    79    46    45   ar
    80    47    45   ar
    81    36    37    1
    82    82    81    1
    83    82    83    2
    84    45    44    1
    85    81    80    1
    86    75    74    1
    87    37    38    1
    88    74    71    1
    89    76    77    1
    90    40    38   am
    91    40    41    1
    92    38    39    2
    93    44    41    1
    94    80    77    1
    95    77    78    1
    96    41    42    1
    97    71    70    1
    98    71    72    1
    99    78    79    2
   100    25    27   ar
   101    25    23   ar
   102    72    73    2
   103    27    26   ar
   104    42    43    2
   105    42    51   am
   106    23    22   ar
   107    26    24   ar
   108    51    52    1
   109    62    61    2
   110    22    24   ar
   111    22    21    1
   112    61    60    1
   113    52    55    1
   114    52    53    1
   115    21    18    1
   116    55    56    1
   117    59    53   am
   118    59    60    1
   119    53    54    2
   120    60    63    1
   121    58    56   am
   122    18    19    1
   123    18    17    1
   124    56    57    2
   125    63    64    1
   126    20    19    2
   127    64    65    1
   128    65    66    1
   129    66    67    2
   130    68    67    1
   131    67    69    1
