@<TRIPOS>MOLECULE
tmp/3fmxA00.pdb
 219 211 0 0 0
SMALL
GASTEIGER

@<TRIPOS>ATOM
      1  N        -67.8440   27.1290    5.5920 N.3    12  ILE12      -0.1245
      2  CA       -67.9920   28.2830    6.4810 C.3    12  ILE12       0.1561
      3  C        -68.2290   27.8840    7.9350 C.2    12  ILE12       0.2260
      4  O        -68.2320   28.7300    8.8250 O.2    12  ILE12      -0.2867
      5  CB       -69.0750   29.2880    5.9730 C.3    12  ILE12       0.0252
      6  CG1      -70.4600   28.6200    5.9180 C.3    12  ILE12       0.0019
      7  CG2      -68.6380   29.9100    4.6220 C.3    12  ILE12       0.0019
      8  CD1      -71.5880   29.5300    5.4700 C.3    12  ILE12       0.0001
      9  N        -72.2040   22.7770   16.4550 N.3    71  PHE71      -0.1241
     10  CA       -71.9020   22.2590   15.1350 C.3    71  PHE71       0.1605
     11  C        -71.8810   23.3620   14.0890 C.2    71  PHE71       0.2264
     12  O        -72.6320   24.3370   14.1900 O.2    71  PHE71      -0.2867
     13  CB       -72.9080   21.1650   14.7550 C.3    71  PHE71       0.0534
     14  CG       -72.6400   20.5290   13.4160 C.ar   71  PHE71      -0.0203
     15  CD1      -71.6640   19.5430   13.2820 C.ar   71  PHE71      -0.0042
     16  CD2      -73.3580   20.9250   12.2880 C.ar   71  PHE71      -0.0042
     17  CE1      -71.4080   18.9640   12.0470 C.ar   71  PHE71      -0.0003
     18  CE2      -73.1130   20.3470   11.0510 C.ar   71  PHE71      -0.0003
     19  CZ       -72.1340   19.3670   10.9280 C.ar   71  PHE71      -0.0000
     20  N        -71.4410   23.1250    9.9330 N.3    73  ALA73      -0.1231
     21  CA       -72.2600   22.6930    8.8130 C.3    73  ALA73       0.1694
     22  C        -71.4840   21.5790    8.1500 C.2    73  ALA73       0.2592
     23  O        -70.2900   21.4340    8.4060 O.2    73  ALA73      -0.2718
     24  CB       -72.4600   23.8240    7.8530 C.3    73  ALA73       0.0304
     25  N        -72.1460   20.7880    7.3090 N.am   74  VAL74      -0.1966
     26  CA       -71.4500   19.7030    6.6050 C.3    74  VAL74       0.1727
     27  C        -71.8520   19.6080    5.1190 C.2    74  VAL74       0.2617
     28  O        -73.0300   19.7310    4.7750 O.2    74  VAL74      -0.2715
     29  CB       -71.5440   18.3480    7.3970 C.3    74  VAL74       0.0290
     30  CG1      -72.9290   17.7270    7.3050 C.3    74  VAL74       0.0023
     31  CG2      -70.4740   17.3830    6.9580 C.3    74  VAL74       0.0023
     32  N        -70.8600   19.4380    4.2460 N.am   75  GLY75      -0.1940
     33  CA       -71.1050   19.3020    2.8020 C.3    75  GLY75       0.2014
     34  C        -70.0880   19.9660    1.8800 C.2    75  GLY75       0.2639
     35  O        -69.7340   21.1280    2.0620 O.2    75  GLY75      -0.2714
     36  N        -69.6210   19.2220    0.8850 N.am   76  TRP76      -0.1960
     37  CA       -68.7010   19.7560   -0.1000 C.3    76  TRP76       0.1756
     38  C        -68.7730   18.9310   -1.3810 C.2    76  TRP76       0.2461
     39  O        -67.9380   18.0530   -1.5970 O.2    76  TRP76      -0.2730
     40  CB       -67.2740   19.7620    0.4510 C.3    76  TRP76       0.0590
     41  CG       -66.3980   20.7190   -0.2600 C.ar   76  TRP76       0.0006
     42  CD1      -65.5330   20.4400   -1.2740 C.ar   76  TRP76       0.0946
     43  CD2      -66.3220   22.1240   -0.0390 C.ar   76  TRP76       0.0152
     44  NE1      -64.9160   21.5880   -1.6990 N.ar   76  TRP76      -0.2442
     45  CE2      -65.3810   22.6390   -0.9540 C.ar   76  TRP76       0.0810
     46  CE3      -66.9570   23.0030    0.8500 C.ar   76  TRP76       0.0012
     47  CZ2      -65.0530   23.9980   -1.0080 C.ar   76  TRP76       0.0191
     48  CZ3      -66.6300   24.3550    0.8020 C.ar   76  TRP76       0.0001
     49  CH2      -65.6870   24.8390   -0.1260 C.ar   76  TRP76       0.0015
     50  N        -69.7500   19.2360   -2.2570 N.am   77  PRO77      -0.2727
     51  CA       -70.1370   18.3910   -3.4010 C.3    77  PRO77       0.1402
     52  C        -69.0040   18.2660   -4.3970 C.2    77  PRO77       0.2269
     53  O        -68.9210   17.2950   -5.1510 O.2    77  PRO77      -0.2865
     54  CB       -71.2790   19.1730   -4.0420 C.3    77  PRO77       0.0296
     55  CG       -71.0460   20.5870   -3.6170 C.3    77  PRO77       0.0237
     56  CD       -70.5120   20.4950   -2.2260 C.3    77  PRO77       0.0939
     57  N        -73.3410   14.6450   -1.6040 N.3    82  ASP82      -0.1239
     58  CA       -74.0620   15.2740   -0.5070 C.3    82  ASP82       0.1674
     59  C        -74.7340   14.3210    0.4790 C.2    82  ASP82       0.2266
     60  O        -74.6420   14.5270    1.6740 O.2    82  ASP82      -0.2867
     61  CB       -75.0220   16.3440   -1.0290 C.3    82  ASP82       0.1410
     62  CG       -74.3770   17.7330   -1.0780 C.2    82  ASP82       0.3668
     63  OD1      -73.1710   17.8450   -0.7360 O.co2  82  ASP82      -0.2456
     64  OD2      -75.0790   18.7090   -1.4470 O.co2  82  ASP82      -0.2456
     65  N        -73.9030   14.1520    4.6050 N.3    86  LEU86      -0.1245
     66  CA       -74.9560   14.3590    5.5880 C.3    86  LEU86       0.1561
     67  C        -75.3710   13.1510    6.3830 C.2    86  LEU86       0.2260
     68  O        -75.4800   13.1770    7.5710 O.2    86  LEU86      -0.2867
     69  CB       -76.1880   14.9210    4.8980 C.3    86  LEU86       0.0270
     70  CG       -77.1160   15.7440    5.7710 C.3    86  LEU86       0.0019
     71  CD1      -76.6380   17.1080    5.8620 C.3    86  LEU86       0.0001
     72  CD2      -78.4800   15.7510    5.2880 C.3    86  LEU86       0.0001
     73  N        -73.7560   14.4690   10.3890 N.3    90  LEU90      -0.1245
     74  CA       -74.8130   15.1750   11.0840 C.3    90  LEU90       0.1561
     75  C        -76.0480   14.3190   11.2230 C.2    90  LEU90       0.2260
     76  O        -76.6510   14.2730   12.3010 O.2    90  LEU90      -0.2867
     77  CB       -75.1750   16.4870   10.3890 C.3    90  LEU90       0.0270
     78  CG       -76.3690   17.3040   10.9350 C.3    90  LEU90       0.0019
     79  CD1      -76.2670   17.5900   12.4200 C.3    90  LEU90       0.0001
     80  CD2      -76.5090   18.6100   10.1660 C.3    90  LEU90       0.0001
     81  N        -78.0880   13.6320   14.8640 N.3    94  ARG94      -0.1245
     82  CA       -79.5160   13.7840   15.1680 C.3    94  ARG94       0.1563
     83  C        -80.2150   12.4320   15.3870 C.2    94  ARG94       0.2260
     84  O        -81.1340   12.3250   16.2020 O.2    94  ARG94      -0.2867
     85  CB       -80.2430   14.5720   14.0660 C.3    94  ARG94       0.0307
     86  CG       -79.4240   15.6760   13.4210 C.3    94  ARG94       0.0489
     87  CD       -80.3130   16.6750   12.6760 C.3    94  ARG94       0.2205
     88  NE       -79.7220   17.1490   11.4110 N.pl3  94  ARG94      -0.0865
     89  CZ       -80.2540   18.0920   10.6300 C.cat  94  ARG94       0.5346
     90  NH1      -81.3910   18.6930   10.9690 N.pl3  94  ARG94       0.1354
     91  NH2      -79.6440   18.4450    9.5090 N.pl3  94  ARG94       0.1354
     92  N        -86.3950   20.8150    6.8160 N.3   245  ASP245     -0.1239
     93  CA       -85.2530   21.4030    6.0740 C.3   245  ASP245      0.1674
     94  C        -85.7260   22.0580    4.7800 C.2   245  ASP245      0.2266
     95  O        -84.8830   22.4220    3.9480 O.2   245  ASP245     -0.2867
     96  CB       -84.0840   20.4180    5.7940 C.3   245  ASP245      0.1410
     97  CG       -82.6500   21.0360    6.1080 C.2   245  ASP245      0.3668
     98  OD1      -82.4180   22.2280    5.7860 O.co2 245  ASP245     -0.2456
     99  OD2      -81.7470   20.3340    6.6750 O.co2 245  ASP245     -0.2456
    100  N        -85.2090   27.3260    5.2870 N.3   249  ASP249     -0.1239
    101  CA       -84.5180   28.3120    4.4720 C.3   249  ASP249      0.1674
    102  C        -85.4410   29.4340    4.0560 C.2   249  ASP249      0.2266
    103  O        -85.0740   30.6030    4.1460 O.2   249  ASP249     -0.2867
    104  CB       -83.8690   27.6740    3.2510 C.3   249  ASP249      0.1410
    105  CG       -82.5030   27.1020    3.5580 C.2   249  ASP249      0.3668
    106  OD1      -82.2200   26.8120    4.7470 O.co2 249  ASP249     -0.2456
    107  OD2      -81.7160   26.9320    2.6030 O.co2 249  ASP249     -0.2456
    108  N        -83.0630   36.7710    5.9910 N.3   257  THR257     -0.1203
    109  CA       -81.9890   36.0000    5.3840 C.3   257  THR257      0.1994
    110  C        -81.6210   34.7170    6.1540 C.2   257  THR257      0.2618
    111  O        -81.9570   34.5660    7.3340 O.2   257  THR257     -0.2717
    112  CB       -80.7480   36.9100    5.1460 C.3   257  THR257      0.1784
    113  OG1      -79.9660   36.3960    4.0580 O.3   257  THR257     -0.2211
    114  CG2      -79.8960   37.0660    6.4210 C.3   257  THR257      0.0376
    115  N        -80.9320   33.7990    5.4720 N.am  258  ILE258     -0.1965
    116  CA       -80.5340   32.5370    6.0800 C.3   258  ILE258      0.1727
    117  C        -79.2740   32.6920    6.9320 C.2   258  ILE258      0.2616
    118  O        -78.8100   31.7230    7.5580 O.2   258  ILE258     -0.2715
    119  CB       -80.3310   31.4000    5.0470 C.3   258  ILE258      0.0290
    120  CG1      -79.0780   31.6180    4.2110 C.3   258  ILE258      0.0022
    121  CG2      -81.5500   31.2190    4.1590 C.3   258  ILE258      0.0023
    122  CD1      -78.4990   30.3080    3.7500 C.3   258  ILE258      0.0001
    123  N        -78.7270   33.9080    6.9480 N.am  259  GLY259     -0.1955
    124  CA       -77.5420   34.2240    7.7430 C.3   259  GLY259      0.1869
    125  C        -77.8680   34.4800    9.2020 C.2   259  GLY259      0.2309
    126  O        -76.9840   34.4320   10.0600 O.2   259  GLY259     -0.2863
    127  N        -76.7510   24.2840   15.9910 N.3   277  GLU277     -0.1245
    128  CA       -76.2320   24.6190   14.6670 C.3   277  GLU277      0.1567
    129  C        -77.0540   25.7420   14.0570 C.2   277  GLU277      0.2260
    130  O        -78.2200   25.9380   14.4270 O.2   277  GLU277     -0.2867
    131  CB       -76.2460   23.3890   13.7230 C.3   277  GLU277      0.0388
    132  CG       -77.6380   22.8630   13.3440 C.3   277  GLU277      0.1160
    133  CD       -77.6330   21.8180   12.2330 C.2   277  GLU277      0.3649
    134  OE1      -76.6760   21.7660   11.4380 O.co2 277  GLU277     -0.2457
    135  OE2      -78.6100   21.0480   12.1460 O.co2 277  GLU277     -0.2457
    136  N        -79.0170   27.2860   10.6760 N.3   279  VAL279     -0.1231
    137  CA       -79.8400   26.6640    9.6500 C.3   279  VAL279      0.1692
    138  C        -79.0650   26.4320    8.3560 C.2   279  VAL279      0.2592
    139  O        -79.3080   25.4590    7.6650 O.2   279  VAL279     -0.2718
    140  CB       -81.1350   27.4730    9.4090 C.3   279  VAL279      0.0266
    141  CG1      -81.6270   27.3390    7.9870 C.3   279  VAL279      0.0020
    142  CG2      -82.2050   27.0360   10.3890 C.3   279  VAL279      0.0020
    143  N        -78.1190   27.3070    8.0500 N.am  280  HIS280     -0.1962
    144  CA       -77.4100   27.2460    6.7710 C.3   280  HIS280      0.1787
    145  C        -76.4200   26.0970    6.6610 C.2   280  HIS280      0.2621
    146  O        -76.1520   25.3950    7.6330 O.2   280  HIS280     -0.2715
    147  CB       -76.6950   28.5630    6.4860 C.3   280  HIS280      0.0785
    148  CG       -75.7020   28.9480    7.5380 C.ar  280  HIS280      0.0821
    149  ND1      -74.4190   28.4530    7.5650 N.ar  280  HIS280     -0.2267
    150  CD2      -75.8100   29.7750    8.6040 C.ar  280  HIS280      0.1154
    151  CE1      -73.7750   28.9670    8.5960 C.ar  280  HIS280      0.1986
    152  NE2      -74.5940   29.7790    9.2380 N.ar  280  HIS280     -0.2212
    153  N        -75.8870   25.9280    5.4570 N.am  281  GLY281     -0.1940
    154  CA       -74.9590   24.8440    5.1460 C.3   281  GLY281      0.2014
    155  C        -73.5510   25.3630    4.9590 C.2   281  GLY281      0.2640
    156  O        -73.2660   26.4980    5.3210 O.2   281  GLY281     -0.2714
    157  N        -72.6750   24.5350    4.3910 N.am  282  SER282     -0.1935
    158  CA       -71.2480   24.8630    4.2530 C.3   282  SER282      0.2055
    159  C        -70.9600   25.9790    3.2380 C.2   282  SER282      0.2643
    160  O        -69.8590   26.5360    3.2160 O.2   282  SER282     -0.2714
    161  CB       -70.4430   23.6130    3.8900 C.3   282  SER282      0.2130
    162  OG       -70.7240   23.1960    2.5630 O.3   282  SER282     -0.2179
    163  N        -71.9520   26.2870    2.4000 N.am  283  ALA283     -0.1963
    164  CA       -71.8840   27.3790    1.4180 C.3   283  ALA283      0.1713
    165  C        -70.5260   27.4820    0.7280 C.2   283  ALA283      0.2458
    166  O        -69.7970   28.4550    0.9270 O.2   283  ALA283     -0.2730
    167  CB       -72.2650   28.6960    2.0700 C.3   283  ALA283      0.0333
    168  N        -70.1800   26.4630   -0.0840 N.am  284  PRO284     -0.2716
    169  CA       -68.8970   26.4620   -0.7910 C.3   284  PRO284      0.1536
    170  C        -68.6760   27.7300   -1.6050 C.2   284  PRO284      0.2599
    171  O        -67.5390   28.1780   -1.7380 O.2   284  PRO284     -0.2715
    172  CB       -69.0070   25.2420   -1.7120 C.3   284  PRO284      0.0310
    173  CG       -69.9500   24.3330   -0.9950 C.3   284  PRO284      0.0237
    174  CD       -70.9630   25.2470   -0.3770 C.3   284  PRO284      0.0939
    175  N        -69.7670   28.3030   -2.1100 N.am  285  ASP285     -0.1958
    176  CA       -69.7450   29.5170   -2.9280 C.3   285  ASP285      0.1840
    177  C        -69.1230   30.7490   -2.2630 C.2   285  ASP285      0.2621
    178  O        -68.7860   31.6950   -2.9610 O.2   285  ASP285     -0.2715
    179  CB       -71.1630   29.8540   -3.4160 C.3   285  ASP285      0.1450
    180  CG       -72.1720   30.0330   -2.2690 C.2   285  ASP285      0.3671
    181  OD1      -73.3050   30.4870   -2.5350 O.co2 285  ASP285     -0.2456
    182  OD2      -71.8510   29.7180   -1.1040 O.co2 285  ASP285     -0.2456
    183  N        -68.9580   30.7200   -0.9380 N.am  286  ILE286     -0.1977
    184  CA       -68.6260   31.9040   -0.1250 C.3   286  ILE286      0.1596
    185  C        -67.4440   31.6510    0.8030 C.2   286  ILE286      0.2287
    186  O        -66.9280   32.5600    1.4500 O.2   286  ILE286     -0.2864
    187  CB       -69.8700   32.3420    0.7200 C.3   286  ILE286      0.0276
    188  CG1      -70.8850   33.1070   -0.1340 C.3   286  ILE286      0.0022
    189  CG2      -69.4880   33.1410    1.9640 C.3   286  ILE286      0.0022
    190  CD1      -70.2900   34.1410   -1.0740 C.3   286  ILE286      0.0001
    191  N        -67.0920   36.4920    4.8310 N.3   291  ILE291     -0.1231
    192  CA       -68.1870   37.4470    4.6450 C.3   291  ILE291      0.1692
    193  C        -69.4560   36.8370    5.1940 C.2   291  ILE291      0.2592
    194  O        -70.5220   37.4610    5.2270 O.2   291  ILE291     -0.2718
    195  CB       -68.3890   37.8300    3.1570 C.3   291  ILE291      0.0266
    196  CG1      -68.3050   36.5960    2.2600 C.3   291  ILE291      0.0019
    197  CG2      -67.3760   38.8990    2.7370 C.3   291  ILE291      0.0020
    198  CD1      -68.5020   36.8920    0.7950 C.3   291  ILE291      0.0001
    199  N        -69.3090   35.6010    5.6410 N.am  292  ALA292     -0.1966
    200  CA       -70.4370   34.8220    6.0760 C.3   292  ALA292      0.1728
    201  C        -70.9590   35.2670    7.4490 C.2   292  ALA292      0.2616
    202  O        -70.2170   35.3960    8.4320 O.2   292  ALA292     -0.2715
    203  CB       -70.0970   33.3340    6.0460 C.3   292  ALA292      0.0334
    204  N        -72.2600   35.5170    7.4590 N.am  293  ASN293     -0.1972
    205  CA       -73.0210   35.9450    8.6010 C.3   293  ASN293      0.1688
    206  C        -72.9430   34.9090    9.7160 C.2   293  ASN293      0.2292
    207  O        -73.4530   33.8070    9.5520 O.2   293  ASN293     -0.2864
    208  CB       -74.4580   36.1170    8.1170 C.3   293  ASN293      0.1181
    209  CG       -75.3540   36.7630    9.1270 C.2   293  ASN293      0.2629
    210  OD1      -75.0910   36.7340   10.3330 O.2   293  ASN293     -0.2716
    211  ND2      -76.4570   37.3310    8.6410 N.am  293  ASN293     -0.0877
    212  N        -74.9130   40.3000    3.2060 N.3   338  ASP338     -0.1239
    213  CA       -76.2240   39.7030    2.9600 C.3   338  ASP338      0.1674
    214  C        -77.2970   40.3370    3.8530 C.2   338  ASP338      0.2266
    215  O        -78.3370   39.7270    4.1220 O.2   338  ASP338     -0.2867
    216  CB       -76.1530   38.2120    3.2510 C.3   338  ASP338      0.1410
    217  CG       -75.8440   37.9330    4.7010 C.2   338  ASP338      0.3668
    218  OD1      -76.7310   37.4200    5.4140 O.co2 338  ASP338     -0.2456
    219  OD2      -74.7220   38.2580    5.1400 O.co2 338  ASP338     -0.2456
@<TRIPOS>BOND
     1    53    52    2
     2    52    51    1
     3    54    55    1
     4    54    51    1
     5    55    56    1
     6   179   176    1
     7   179   180    1
     8    51    50    1
     9   178   177    2
    10   176   177    1
    11   176   175    1
    12   181   180   ar
    13   180   182   ar
    14   177   183   am
    15    50    56    1
    16    50    38   am
    17   175   170   am
    18   171   170    2
    19   172   173    1
    20   172   169    1
    21    44    42   ar
    22    44    45   ar
    23   170   169    1
    24    57    58    1
    25    39    38    2
    26    64    62   ar
    27    38    37    1
    28    42    41   ar
    29    62    61    1
    30    62    63   ar
    31   190   188    1
    32    61    58    1
    33    47    45   ar
    34    47    49   ar
    35   173   174    1
    36    45    43   ar
    37   183   184    1
    38   169   168    1
    39    58    59    1
    40   174   168    1
    41    41    43   ar
    42    41    40    1
    43   188   187    1
    44    49    48   ar
    45   184   187    1
    46   184   185    1
    47    37    40    1
    48    37    36    1
    49   168   165   am
    50    43    46   ar
    51    59    60    2
    52   187   189    1
    53   165   166    2
    54   165   164    1
    55   198   196    1
    56    48    46   ar
    57   185   186    2
    58    36    34   am
    59   164   167    1
    60   164   163    1
    61    34    35    2
    62    34    33    1
    63   196   195    1
    64   163   159   am
    65   162   161    1
    66   107   105   ar
    67   197   195    1
    68    33    32    1
    69   213   212    1
    70   213   216    1
    71   213   214    1
    72   195   192    1
    73   160   159    2
    74   159   158    1
    75   104   105    1
    76   104   101    1
    77   216   217    1
    78   105   106   ar
    79   122   120    1
    80   214   215    2
    81   161   158    1
    82    95    94    2
    83   102   103    2
    84   102   101    1
    85   113   112    1
    86   121   119    1
    87   120   119    1
    88    32    27   am
    89   158   157    1
    90   157   155   am
    91   101   100    1
    92    65    66    1
    93     7     5    1
    94   192   191    1
    95   192   193    1
    96   217   219   ar
    97   217   218   ar
    98    28    27    2
    99    94    93    1
   100    69    66    1
   101    69    70    1
   102   155   154    1
   103   155   156    2
   104   119   116    1
   105    27    26    1
   106   154   153    1
   107   112   109    1
   108   112   114    1
   109   193   194    2
   110   193   199   am
   111    72    70    1
   112   109   108    1
   113   109   110    1
   114   153   145   am
   115     8     6    1
   116   115   116    1
   117   115   110   am
   118    66    67    1
   119     1     2    1
   120   199   200    1
   121    70    71    1
   122    98    97   ar
   123    96    93    1
   124    96    97    1
   125     6     5    1
   126     5     2    1
   127   203   200    1
   128    93    92    1
   129   200   201    1
   130   116   117    1
   131    97    99   ar
   132   110   111    2
   133    67    68    2
   134     2     3    1
   135   147   144    1
   136   147   148    1
   137    26    25    1
   138    26    29    1
   139   145   144    1
   140   145   146    2
   141   144   143    1
   142   117   123   am
   143   117   118    2
   144   123   124    1
   145    31    29    1
   146    30    29    1
   147    25    22   am
   148   201   204   am
   149   201   202    2
   150   204   205    1
   151   148   149   ar
   152   148   150   ar
   153   149   151   ar
   154   139   138    2
   155   124   125    1
   156    24    21    1
   157     3     4    2
   158   141   140    1
   159   143   138   am
   160   208   205    1
   161   208   209    1
   162    22    23    2
   163    22    21    1
   164   138   137    1
   165   151   152   ar
   166   205   206    1
   167   150   152   ar
   168   211   209   am
   169    21    20    1
   170   209   210    2
   171   125   126    2
   172   140   137    1
   173   140   142    1
   174    91    89    1
   175   207   206    2
   176   137   136    1
   177    80    78    1
   178    77    78    1
   179    77    74    1
   180    73    74    1
   181    89    90    1
   182    89    88    2
   183    19    18   ar
   184    19    17   ar
   185    78    79    1
   186    18    16   ar
   187    74    75    1
   188    75    76    2
   189    88    87    1
   190   134   133   ar
   191    17    15   ar
   192   135   133   ar
   193   133   132    1
   194    16    14   ar
   195    87    86    1
   196    15    14   ar
   197   132   131    1
   198    14    13    1
   199    86    85    1
   200   131   128    1
   201   129   130    2
   202   129   128    1
   203    85    82    1
   204    11    12    2
   205    11    10    1
   206   128   127    1
   207    13    10    1
   208    81    82    1
   209    10     9    1
   210    82    83    1
   211    83    84    2
