@<TRIPOS>MOLECULE
tmp/3fmzA00.pdb
 205 196 0 0 0
SMALL
GASTEIGER

@<TRIPOS>ATOM
      1  N          6.7700  -12.3130    2.7860 N.3    35  LEU35      -0.1231
      2  CA         6.0730  -13.5760    3.0340 C.3    35  LEU35       0.1693
      3  C          7.0130  -14.6900    3.4950 C.2    35  LEU35       0.2592
      4  O          8.1930  -14.7200    3.1360 O.2    35  LEU35      -0.2718
      5  CB         5.3290  -14.0180    1.7660 C.3    35  LEU35       0.0284
      6  CG         3.8780  -13.6240    1.4490 C.3    35  LEU35       0.0019
      7  CD1        3.4300  -12.3040    2.0980 C.3    35  LEU35       0.0001
      8  CD2        3.6850  -13.5900   -0.0750 C.3    35  LEU35       0.0001
      9  N          6.4750  -15.6140    4.2790 N.am   36  PHE36      -0.1962
     10  CA         7.2720  -16.6950    4.8390 C.3    36  PHE36       0.1771
     11  C          6.3510  -17.6910    5.5230 C.2    36  PHE36       0.2619
     12  O          5.2120  -17.3660    5.8520 O.2    36  PHE36      -0.2715
     13  CB         8.2620  -16.1320    5.8540 C.3    36  PHE36       0.0574
     14  CG         9.4730  -16.9930    6.0730 C.ar   36  PHE36      -0.0200
     15  CD1       10.4470  -17.0990    5.0990 C.ar   36  PHE36      -0.0042
     16  CD2        9.6590  -17.6630    7.2730 C.ar   36  PHE36      -0.0042
     17  CE1       11.5760  -17.8650    5.3080 C.ar   36  PHE36      -0.0003
     18  CE2       10.7870  -18.4380    7.4880 C.ar   36  PHE36      -0.0003
     19  CZ        11.7460  -18.5390    6.5050 C.ar   36  PHE36      -0.0000
     20  N          6.8450  -18.9020    5.7440 N.am   37  LEU37      -0.1977
     21  CA         6.0650  -19.8950    6.4660 C.3    37  LEU37       0.1596
     22  C          5.7580  -19.3830    7.8790 C.2    37  LEU37       0.2287
     23  O          6.6040  -18.7620    8.5290 O.2    37  LEU37      -0.2864
     24  CB         6.7990  -21.2450    6.5080 C.3    37  LEU37       0.0297
     25  CG         6.9800  -21.9900    5.1730 C.3    37  LEU37       0.0022
     26  CD1        7.5400  -23.3990    5.3700 C.3    37  LEU37       0.0001
     27  CD2        5.6740  -22.0290    4.3860 C.3    37  LEU37       0.0001
     28  N         10.4710  -29.8160    8.2270 N.3    43  ALA43      -0.1245
     29  CA        11.4290  -30.0000    7.1540 C.3    43  ALA43       0.1562
     30  C         11.7950  -31.4700    7.0400 C.2    43  ALA43       0.2260
     31  O         11.8620  -32.1820    8.0470 O.2    43  ALA43      -0.2867
     32  CB        12.6680  -29.1450    7.3870 C.3    43  ALA43       0.0290
     33  N         14.8210  -33.4860    5.3250 N.3    45  PHE45      -0.1241
     34  CA        16.1170  -33.4820    4.6610 C.3    45  PHE45       0.1605
     35  C         16.5050  -34.8700    4.2100 C.2    45  PHE45       0.2264
     36  O         16.2870  -35.8500    4.9170 O.2    45  PHE45      -0.2867
     37  CB        17.1970  -32.9420    5.5990 C.3    45  PHE45       0.0534
     38  CG        17.2810  -31.4460    5.6210 C.ar   45  PHE45      -0.0203
     39  CD1       18.1930  -30.7830    4.8170 C.ar   45  PHE45      -0.0042
     40  CD2       16.4340  -30.7000    6.4320 C.ar   45  PHE45      -0.0042
     41  CE1       18.2700  -29.4080    4.8270 C.ar   45  PHE45      -0.0003
     42  CE2       16.5040  -29.3190    6.4450 C.ar   45  PHE45      -0.0003
     43  CZ        17.4240  -28.6700    5.6410 C.ar   45  PHE45      -0.0000
     44  N         15.9870  -31.1460    0.4470 N.3    55  ALA55      -0.1231
     45  CA        15.0240  -31.1620    1.5320 C.3    55  ALA55       0.1694
     46  C         13.6760  -30.7050    1.0110 C.2    55  ALA55       0.2593
     47  O         13.5980  -30.0990   -0.0530 O.2    55  ALA55      -0.2718
     48  CB        15.4890  -30.2400    2.6530 C.3    55  ALA55       0.0304
     49  N         12.6160  -31.0080    1.7550 N.am   56  THR56      -0.1939
     50  CA        11.3060  -30.4340    1.4810 C.3    56  THR56       0.2028
     51  C         10.9100  -29.5830    2.6760 C.2    56  THR56       0.2642
     52  O         11.4300  -29.7770    3.7700 O.2    56  THR56      -0.2714
     53  CB        10.2030  -31.5060    1.2330 C.3    56  THR56       0.1808
     54  OG1        9.9100  -32.2130    2.4480 O.3    56  THR56      -0.2208
     55  CG2       10.6040  -32.4970    0.1240 C.3    56  THR56       0.0379
     56  N          9.9940  -28.6430    2.4750 N.am   57  ALA57      -0.1977
     57  CA         9.5630  -27.7700    3.5650 C.3    57  ALA57       0.1597
     58  C          8.0660  -27.5350    3.5020 C.2    57  ALA57       0.2287
     59  O          7.5520  -27.0520    2.5000 O.2    57  ALA57      -0.2864
     60  CB        10.3060  -26.4520    3.5180 C.3    57  ALA57       0.0319
     61  N          0.6330  -20.6270    5.8560 N.3    61  VAL61      -0.1245
     62  CA         0.7430  -19.1810    5.7040 C.3    61  VAL61       0.1561
     63  C         -0.6320  -18.5240    5.7670 C.2    61  VAL61       0.2260
     64  O         -1.6590  -19.1870    5.6440 O.2    61  VAL61      -0.2867
     65  CB         1.3880  -18.7950    4.3600 C.3    61  VAL61       0.0252
     66  CG1        2.0450  -17.4270    4.4590 C.3    61  VAL61       0.0019
     67  CG2        2.4070  -19.8340    3.9410 C.3    61  VAL61       0.0019
     68  N          1.5530  -24.1570    2.3340 N.3    71  ALA71      -0.1245
     69  CA         2.5980  -24.0250    1.3310 C.3    71  ALA71       0.1562
     70  C          3.4450  -25.2840    1.3260 C.2    71  ALA71       0.2260
     71  O          3.4790  -26.0300    2.3030 O.2    71  ALA71      -0.2867
     72  CB         3.4580  -22.8030    1.6030 C.3    71  ALA71       0.0290
     73  N          7.1910  -26.8480   -0.3410 N.3    73  MET73      -0.1230
     74  CA         8.4040  -26.5660   -1.0960 C.3    73  MET73       0.1702
     75  C          9.3470  -27.7460   -1.2480 C.2    73  MET73       0.2592
     76  O          9.1770  -28.7980   -0.6320 O.2    73  MET73      -0.2718
     77  CB         9.1560  -25.3890   -0.4790 C.3    73  MET73       0.0401
     78  CG         8.4560  -24.0680   -0.6640 C.3    73  MET73       0.0596
     79  SD         9.2320  -22.7130    0.2190 S.3    73  MET73      -0.1393
     80  CE         7.8550  -22.1900    1.2190 C.3    73  MET73       0.0692
     81  N         10.3500  -27.5280   -2.0860 N.am   74  VAL74      -0.1966
     82  CA        11.3940  -28.4840   -2.3490 C.3    74  VAL74       0.1727
     83  C         12.6270  -27.6490   -2.5920 C.2    74  VAL74       0.2616
     84  O         12.5950  -26.7100   -3.3820 O.2    74  VAL74      -0.2715
     85  CB        11.0680  -29.3130   -3.6080 C.3    74  VAL74       0.0290
     86  CG1       12.2250  -30.2220   -3.9950 C.3    74  VAL74       0.0023
     87  CG2        9.8170  -30.1170   -3.3700 C.3    74  VAL74       0.0023
     88  N         13.7060  -27.9690   -1.8920 N.am   75  GLY75      -0.1955
     89  CA        14.9680  -27.2780   -2.0930 C.3    75  GLY75       0.1869
     90  C         16.0470  -28.2590   -2.4990 C.2    75  GLY75       0.2309
     91  O         15.9390  -29.4550   -2.2310 O.2    75  GLY75      -0.2863
     92  N         20.3290  -28.3220   -2.3950 N.3    77  PHE77      -0.1241
     93  CA        21.5200  -27.6330   -1.9320 C.3    77  PHE77       0.1605
     94  C         22.7490  -27.9650   -2.7690 C.2    77  PHE77       0.2264
     95  O         23.2130  -29.1030   -2.7660 O.2    77  PHE77      -0.2867
     96  CB        21.7630  -28.0200   -0.4760 C.3    77  PHE77       0.0534
     97  CG        20.5580  -27.8540    0.3840 C.ar   77  PHE77      -0.0203
     98  CD1       19.5150  -28.7580    0.3150 C.ar   77  PHE77      -0.0042
     99  CD2       20.4510  -26.7760    1.2400 C.ar   77  PHE77      -0.0042
    100  CE1       18.3940  -28.5950    1.0970 C.ar   77  PHE77      -0.0003
    101  CE2       19.3330  -26.6090    2.0230 C.ar   77  PHE77      -0.0003
    102  CZ        18.3030  -27.5170    1.9490 C.ar   77  PHE77      -0.0000
    103  N         21.0380  -22.8130   -1.9000 N.3    88  MET88      -0.1245
    104  CA        19.8230  -23.6100   -1.9660 C.3    88  MET88       0.1570
    105  C         18.8680  -23.0860   -3.0280 C.2    88  MET88       0.2261
    106  O         18.3640  -21.9710   -2.9220 O.2    88  MET88      -0.2867
    107  CB        19.1280  -23.6450   -0.6000 C.3    88  MET88       0.0387
    108  CG        17.8350  -24.4460   -0.5830 C.3    88  MET88       0.0595
    109  SD        16.8140  -24.2040    0.8940 S.3    88  MET88      -0.1393
    110  CE        16.4560  -22.4530    0.7900 C.3    88  MET88       0.0692
    111  N         15.2450  -23.4000   -4.2550 N.3    90  TYR90      -0.1241
    112  CA        13.9810  -23.8960   -3.7370 C.3    90  TYR90       0.1605
    113  C         12.8210  -23.3640   -4.5700 C.2    90  TYR90       0.2264
    114  O         12.9650  -22.3670   -5.2870 O.2    90  TYR90      -0.2867
    115  CB        13.8180  -23.5270   -2.2630 C.3    90  TYR90       0.0534
    116  CG        13.4920  -22.0760   -2.0150 C.ar   90  TYR90      -0.0201
    117  CD1       14.4920  -21.1140   -1.9590 C.ar   90  TYR90      -0.0009
    118  CD2       12.1810  -21.6690   -1.8230 C.ar   90  TYR90      -0.0009
    119  CE1       14.1900  -19.7800   -1.7260 C.ar   90  TYR90       0.0417
    120  CE2       11.8680  -20.3470   -1.5890 C.ar   90  TYR90       0.0417
    121  CZ        12.8720  -19.4060   -1.5440 C.ar   90  TYR90       0.1957
    122  OH        12.5450  -18.0920   -1.3130 O.3    90  TYR90      -0.2866
    123  N          1.7200  -23.0540   -4.2750 N.3    96  PHE96      -0.1241
    124  CA         2.8720  -22.1470   -4.2710 C.3    96  PHE96       0.1605
    125  C          3.7040  -22.1510   -5.5510 C.2    96  PHE96       0.2264
    126  O          4.2330  -23.1820   -5.9470 O.2    96  PHE96      -0.2867
    127  CB         3.7640  -22.5190   -3.0810 C.3    96  PHE96       0.0534
    128  CG         4.7900  -21.4830   -2.7270 C.ar   96  PHE96      -0.0203
    129  CD1        6.0990  -21.8560   -2.4850 C.ar   96  PHE96      -0.0042
    130  CD2        4.4510  -20.1410   -2.6250 C.ar   96  PHE96      -0.0042
    131  CE1        7.0550  -20.9060   -2.1480 C.ar   96  PHE96      -0.0003
    132  CE2        5.3980  -19.1910   -2.2890 C.ar   96  PHE96      -0.0003
    133  CZ         6.7010  -19.5740   -2.0480 C.ar   96  PHE96      -0.0000
    134  N          6.4220  -19.7340   -6.3490 N.3    98  GLN98      -0.1245
    135  CA         7.7210  -19.0460   -6.3160 C.3    98  GLN98       0.1566
    136  C          8.9580  -19.9530   -6.4370 C.2    98  GLN98       0.2260
    137  O          8.9020  -21.1400   -6.1400 O.2    98  GLN98      -0.2867
    138  CB         7.8360  -18.1680   -5.0580 C.3    98  GLN98       0.0367
    139  CG         9.2030  -17.4880   -4.8870 C.3    98  GLN98       0.0905
    140  CD         9.2580  -16.5190   -3.7060 C.2    98  GLN98       0.2608
    141  OE1        8.5310  -15.5200   -3.6620 O.2    98  GLN98      -0.2717
    142  NE2       10.1400  -16.8030   -2.7530 N.am   98  GLN98      -0.0878
    143  N         18.5550  -19.0750   -1.6610 N.3   102  ASP102     -0.1239
    144  CA        18.9500  -18.6060   -0.3450 C.3   102  ASP102      0.1674
    145  C         20.2070  -19.3400    0.0840 C.2   102  ASP102      0.2266
    146  O         20.3670  -20.5300   -0.1890 O.2   102  ASP102     -0.2867
    147  CB        17.8550  -18.8980    0.6870 C.3   102  ASP102      0.1410
    148  CG        16.6500  -17.9630    0.5730 C.2   102  ASP102      0.3668
    149  OD1       16.8290  -16.7470    0.3240 O.co2 102  ASP102     -0.2456
    150  OD2       15.5150  -18.4550    0.7610 O.co2 102  ASP102     -0.2456
    151  N         22.0970  -21.4170    2.6340 N.3   104  HIS104     -0.1241
    152  CA        21.6700  -22.3070    3.7050 C.3   104  HIS104      0.1621
    153  C         22.8680  -22.7620    4.5370 C.2   104  HIS104      0.2264
    154  O         23.7510  -23.4540    4.0390 O.2   104  HIS104     -0.2867
    155  CB        20.9150  -23.5120    3.1430 C.3   104  HIS104      0.0745
    156  CG        20.1640  -24.2820    4.1820 C.ar  104  HIS104      0.0817
    157  ND1       18.8580  -23.9980    4.5170 N.ar  104  HIS104     -0.2268
    158  CD2       20.5430  -25.3090    4.9790 C.ar  104  HIS104      0.1154
    159  CE1       18.4630  -24.8220    5.4720 C.ar  104  HIS104      0.1986
    160  NE2       19.4660  -25.6290    5.7690 N.ar  104  HIS104     -0.2212
    161  N         20.2700  -12.9950    3.4120 N.3   121  ARG121     -0.1245
    162  CA        19.8260  -12.7130    2.0600 C.3   121  ARG121      0.1563
    163  C         20.3700  -11.3740    1.6010 C.2   121  ARG121      0.2260
    164  O         20.4250  -11.0890    0.4090 O.2   121  ARG121     -0.2867
    165  CB        18.3040  -12.6750    2.0070 C.3   121  ARG121      0.0307
    166  CG        17.6190  -14.0320    1.9890 C.3   121  ARG121      0.0489
    167  CD        16.1030  -13.8360    2.0090 C.3   121  ARG121      0.2205
    168  NE        15.3470  -15.0800    1.9010 N.pl3 121  ARG121     -0.0865
    169  CZ        14.0270  -15.1450    2.0350 C.cat 121  ARG121      0.5346
    170  NH1       13.3400  -14.0410    2.2820 N.pl3 121  ARG121      0.1354
    171  NH2       13.3900  -16.3030    1.9250 N.pl3 121  ARG121      0.1354
    172  N         16.8950  -15.1160    7.8130 N.3   133  TYR133     -0.1241
    173  CA        15.9840  -16.0010    8.5210 C.3   133  TYR133      0.1605
    174  C         16.7800  -17.0880    9.2120 C.2   133  TYR133      0.2264
    175  O         17.9530  -17.2920    8.9050 O.2   133  TYR133     -0.2867
    176  CB        14.8490  -16.5480    7.6260 C.3   133  TYR133      0.0534
    177  CG        15.2140  -17.5640    6.5550 C.ar  133  TYR133     -0.0201
    178  CD1       15.1370  -18.9320    6.8080 C.ar  133  TYR133     -0.0009
    179  CD2       15.5720  -17.1560    5.2740 C.ar  133  TYR133     -0.0009
    180  CE1       15.4470  -19.8640    5.8280 C.ar  133  TYR133      0.0417
    181  CE2       15.8820  -18.0780    4.2850 C.ar  133  TYR133      0.0417
    182  CZ        15.8160  -19.4330    4.5650 C.ar  133  TYR133      0.1957
    183  OH        16.1260  -20.3520    3.5790 O.3   133  TYR133     -0.2866
    184  N         16.0780  -20.9730   11.6390 N.3   135  PHE135     -0.1241
    185  CA        15.1890  -21.9720   12.2060 C.3   135  PHE135      0.1605
    186  C         15.8430  -22.7250   13.3490 C.2   135  PHE135      0.2264
    187  O         16.9520  -23.2350   13.2040 O.2   135  PHE135     -0.2867
    188  CB        14.8350  -23.0040   11.1450 C.3   135  PHE135      0.0534
    189  CG        13.7920  -22.5530   10.1710 C.ar  135  PHE135     -0.0203
    190  CD1       12.5280  -22.1780   10.6120 C.ar  135  PHE135     -0.0042
    191  CD2       14.0580  -22.5500    8.8090 C.ar  135  PHE135     -0.0042
    192  CE1       11.5610  -21.7790    9.7180 C.ar  135  PHE135     -0.0003
    193  CE2       13.0930  -22.1550    7.9030 C.ar  135  PHE135     -0.0003
    194  CZ        11.8420  -21.7640    8.3560 C.ar  135  PHE135     -0.0000
    195  N         15.6180  -26.0790   14.8100 N.3   137  PHE137     -0.1241
    196  CA        15.0780  -27.3810   14.4360 C.3   137  PHE137      0.1605
    197  C         15.1530  -28.3620   15.5930 C.2   137  PHE137      0.2264
    198  O         16.1330  -28.3800   16.3350 O.2   137  PHE137     -0.2867
    199  CB        15.8330  -27.9680   13.2410 C.3   137  PHE137      0.0534
    200  CG        15.4500  -27.3710   11.9150 C.ar  137  PHE137     -0.0203
    201  CD1       14.1210  -27.2200   11.5620 C.ar  137  PHE137     -0.0042
    202  CD2       16.4280  -26.9960   11.0040 C.ar  137  PHE137     -0.0042
    203  CE1       13.7770  -26.6760   10.3330 C.ar  137  PHE137     -0.0003
    204  CE2       16.0900  -26.4540    9.7720 C.ar  137  PHE137     -0.0003
    205  CZ        14.7680  -26.2960    9.4350 C.ar  137  PHE137     -0.0000
@<TRIPOS>BOND
     1   136   135    1
     2   136   137    2
     3   134   135    1
     4   135   138    1
     5   126   125    2
     6   125   124    1
     7   114   113    2
     8   138   139    1
     9   139   140    1
    10   113   112    1
    11   123   124    1
    12   124   127    1
    13   111   112    1
    14    86    85    1
    15   112   115    1
    16   140   141    2
    17   140   142   am
    18    85    87    1
    19    85    82    1
    20    84    83    2
    21   127   128    1
    22   105   106    2
    23   105   104    1
    24    94    95    2
    25    94    93    1
    26   128   130   ar
    27   128   129   ar
    28   130   132   ar
    29    83    82    1
    30    83    88   am
    31    90    91    2
    32    90    89    1
    33   129   131   ar
    34    92    93    1
    35    82    81    1
    36   132   133   ar
    37   115   116    1
    38   131   133   ar
    39    89    88    1
    40    81    75   am
    41   116   117   ar
    42   116   118   ar
    43   104   103    1
    44   104   107    1
    45   117   119   ar
    46    93    96    1
    47   118   120   ar
    48   119   121   ar
    49   143   144    1
    50   120   121   ar
    51   121   122    1
    52    75    74    1
    53    75    76    2
    54    74    77    1
    55    74    73    1
    56    78    77    1
    57    78    79    1
    58   107   108    1
    59   108   109    1
    60    96    97    1
    61   144   145    1
    62   144   147    1
    63   146   145    2
    64     8     6    1
    65    47    46    2
    66    55    53    1
    67    79    80    1
    68    98    97   ar
    69    98   100   ar
    70   149   148   ar
    71    97    99   ar
    72   164   163    2
    73    44    45    1
    74   148   147    1
    75   148   150   ar
    76   110   109    1
    77    46    45    1
    78    46    49   am
    79   100   102   ar
    80    53    50    1
    81    53    54    1
    82    99   101   ar
    83    70    69    1
    84    70    71    2
    85    69    72    1
    86    69    68    1
    87     6     5    1
    88     6     7    1
    89    50    49    1
    90    50    51    1
    91    45    48    1
    92   163   162    1
    93     5     2    1
    94   168   167    1
    95   168   169    2
    96   171   169    1
    97   102   101   ar
    98   166   165    1
    99   166   167    1
   100   165   162    1
   101   169   170    1
   102   162   161    1
   103    56    51   am
   104    56    57    1
   105    59    58    2
   106   151   152    1
   107    51    52    2
   108     1     2    1
   109     2     3    1
   110     4     3    2
   111   155   152    1
   112   155   156    1
   113     3     9   am
   114    58    57    1
   115    60    57    1
   116   183   182    1
   117   152   153    1
   118    67    65    1
   119   154   153    2
   120   156   157   ar
   121   156   158   ar
   122    35    34    1
   123    35    36    2
   124     9    10    1
   125   181   182   ar
   126   181   179   ar
   127    65    66    1
   128    65    62    1
   129    27    25    1
   130   157   159   ar
   131   182   180   ar
   132    34    33    1
   133    34    37    1
   134    39    41   ar
   135    39    38   ar
   136    41    43   ar
   137    10    11    1
   138    10    13    1
   139   158   160   ar
   140    15    17   ar
   141    15    14   ar
   142    25    26    1
   143    25    24    1
   144   179   177   ar
   145    17    19   ar
   146   159   160   ar
   147    11    20   am
   148    11    12    2
   149    37    38    1
   150    38    40   ar
   151    43    42   ar
   152    64    63    2
   153    62    63    1
   154    62    61    1
   155    20    21    1
   156   180   178   ar
   157    13    14    1
   158    14    16   ar
   159    40    42   ar
   160    21    24    1
   161    21    22    1
   162    19    18   ar
   163   177   178   ar
   164   177   176    1
   165    30    29    1
   166    30    31    2
   167    29    32    1
   168    29    28    1
   169    16    18   ar
   170   176   173    1
   171   172   173    1
   172    22    23    2
   173   193   194   ar
   174   193   191   ar
   175   194   192   ar
   176   173   174    1
   177   191   189   ar
   178   175   174    2
   179   205   204   ar
   180   205   203   ar
   181   192   190   ar
   182   204   202   ar
   183   189   190   ar
   184   189   188    1
   185   203   201   ar
   186   202   200   ar
   187   188   185    1
   188   201   200   ar
   189   184   185    1
   190   200   199    1
   191   185   186    1
   192   187   186    2
   193   199   196    1
   194   196   195    1
   195   196   197    1
   196   197   198    2
