@<TRIPOS>MOLECULE
tmp/3fn0B00.pdb
 167 165 0 0 0
SMALL
GASTEIGER

@<TRIPOS>ATOM
      1  N         68.0190   27.4650   51.8550 N.3    30  ILE30      -0.1231
      2  CA        68.3070   27.0940   50.4870 C.3    30  ILE30       0.1692
      3  C         67.2490   26.1620   49.8820 C.2    30  ILE30       0.2592
      4  O         66.7200   25.2810   50.5590 O.2    30  ILE30      -0.2718
      5  CB        69.6990   26.4300   50.3810 C.3    30  ILE30       0.0266
      6  CG1       70.0940   26.2190   48.9150 C.3    30  ILE30       0.0019
      7  CG2       69.7320   25.1240   51.1760 C.3    30  ILE30       0.0020
      8  CD1       71.5880   25.8450   48.7310 C.3    30  ILE30       0.0001
      9  N         66.9890   26.3540   48.5930 N.am   31  ASN31      -0.1960
     10  CA        66.0810   25.5120   47.8030 C.3    31  ASN31       0.1819
     11  C         64.5850   25.7520   48.0760 C.2    31  ASN31       0.2621
     12  O         63.7730   24.9260   47.7040 O.2    31  ASN31      -0.2715
     13  CB        66.3830   24.0230   47.9760 C.3    31  ASN31       0.1195
     14  CG        67.7580   23.6350   47.4530 C.2    31  ASN31       0.2630
     15  OD1       68.2260   24.1650   46.4440 O.2    31  ASN31      -0.2716
     16  ND2       68.4020   22.6910   48.1350 N.am   31  ASN31      -0.0877
     17  N         64.2670   26.8260   48.7770 N.am   32  TYR32      -0.1960
     18  CA        62.8520   27.2510   48.9460 C.3    32  TYR32       0.1771
     19  C         62.8390   28.7310   48.6650 C.2    32  TYR32       0.2619
     20  O         63.8950   29.3680   48.7070 O.2    32  TYR32      -0.2715
     21  CB        62.3770   27.0000   50.3780 C.3    32  TYR32       0.0574
     22  CG        62.2650   25.5380   50.7560 C.ar   32  TYR32      -0.0198
     23  CD1       63.2850   24.8940   51.4670 C.ar   32  TYR32      -0.0009
     24  CD2       61.1600   24.7860   50.3730 C.ar   32  TYR32      -0.0009
     25  CE1       63.1780   23.5570   51.8030 C.ar   32  TYR32       0.0417
     26  CE2       61.0580   23.4450   50.7050 C.ar   32  TYR32       0.0417
     27  CZ        62.0610   22.8360   51.4150 C.ar   32  TYR32       0.1957
     28  OH        61.9400   21.5040   51.7410 O.3    32  TYR32      -0.2866
     29  N         61.6670   29.2950   48.3800 N.am   33  TYR33      -0.1974
     30  CA        61.5060   30.7520   48.2910 C.3    33  TYR33       0.1639
     31  C         60.8130   31.2200   49.5640 C.2    33  TYR33       0.2290
     32  O         60.2820   30.3990   50.3160 O.2    33  TYR33      -0.2864
     33  CB        60.6740   31.1360   47.0610 C.3    33  TYR33       0.0560
     34  CG        61.3820   31.0400   45.7230 C.ar   33  TYR33      -0.0198
     35  CD1       62.6700   30.5140   45.6160 C.ar   33  TYR33      -0.0009
     36  CD2       60.7580   31.4570   44.5520 C.ar   33  TYR33      -0.0009
     37  CE1       63.3060   30.4510   44.4050 C.ar   33  TYR33       0.0417
     38  CE2       61.3800   31.3800   43.3390 C.ar   33  TYR33       0.0417
     39  CZ        62.6860   30.8570   43.2640 C.ar   33  TYR33       0.1957
     40  OH        63.3650   30.7720   42.0710 O.3    33  TYR33      -0.2866
     41  N         58.0040   37.6710   47.4130 N.3    50  HIS50      -0.1241
     42  CA        58.9020   36.6550   47.9460 C.3    50  HIS50       0.1621
     43  C         60.3250   37.0740   47.6830 C.2    50  HIS50       0.2264
     44  O         60.5760   38.0060   46.9160 O.2    50  HIS50      -0.2867
     45  CB        58.6820   35.2610   47.3570 C.3    50  HIS50       0.0745
     46  CG        58.9550   35.1370   45.8790 C.ar   50  HIS50       0.0817
     47  ND1       58.1700   34.3660   45.0600 N.ar   50  HIS50      -0.2268
     48  CD2       59.9180   35.6630   45.0820 C.ar   50  HIS50       0.1154
     49  CE1       58.6100   34.4320   43.8200 C.ar   50  HIS50       0.1986
     50  NE2       59.6800   35.2030   43.8040 N.ar   50  HIS50      -0.2212
     51  N         64.2410   35.0230   46.9970 N.3    52  ILE52      -0.1231
     52  CA        64.9070   33.7640   46.7230 C.3    52  ILE52       0.1692
     53  C         66.2750   33.6470   47.4450 C.2    52  ILE52       0.2592
     54  O         66.7760   34.6280   48.0030 O.2    52  ILE52      -0.2718
     55  CB        65.0110   33.4970   45.1940 C.3    52  ILE52       0.0266
     56  CG1       66.1330   34.3210   44.5550 C.3    52  ILE52       0.0019
     57  CG2       63.6260   33.6770   44.4990 C.3    52  ILE52       0.0020
     58  CD1       66.4200   33.8880   43.1630 C.3    52  ILE52       0.0001
     59  N         66.8520   32.4520   47.4800 N.am   53  TYR53      -0.1962
     60  CA        68.0110   32.2400   48.3400 C.3    53  TYR53       0.1771
     61  C         69.0790   33.2610   47.9370 C.2    53  TYR53       0.2620
     62  O         69.7690   33.8400   48.7850 O.2    53  TYR53      -0.2715
     63  CB        68.5430   30.7950   48.1510 C.3    53  TYR53       0.0574
     64  CG        69.7840   30.4440   48.9330 C.ar   53  TYR53      -0.0198
     65  CD1       69.6940   30.1040   50.2710 C.ar   53  TYR53      -0.0009
     66  CD2       71.0300   30.4090   48.3270 C.ar   53  TYR53      -0.0009
     67  CE1       70.8270   29.7600   51.0070 C.ar   53  TYR53       0.0417
     68  CE2       72.1610   30.0660   49.0500 C.ar   53  TYR53       0.0417
     69  CZ        72.0440   29.7330   50.3860 C.ar   53  TYR53       0.1957
     70  OH        73.1450   29.3930   51.1380 O.3    53  TYR53      -0.2866
     71  N         69.2040   33.4700   46.6270 N.am   54  GLY54      -0.1954
     72  CA        70.1410   34.4260   46.0700 C.3    54  GLY54       0.1869
     73  C         69.9200   35.8980   46.3430 C.2    54  GLY54       0.2309
     74  O         70.8040   36.6950   46.0830 O.2    54  GLY54      -0.2863
     75  N         67.3570   37.8210   44.9970 N.3    56  THR56      -0.1203
     76  CA        66.3600   38.4020   44.0750 C.3    56  THR56       0.1994
     77  C         64.9210   38.3460   44.6290 C.2    56  THR56       0.2619
     78  O         64.5310   37.3350   45.2290 O.2    56  THR56      -0.2717
     79  CB        66.4180   37.7320   42.6820 C.3    56  THR56       0.1784
     80  OG1       67.6680   38.0450   42.0650 O.3    56  THR56      -0.2211
     81  CG2       65.2800   38.1790   41.7760 C.3    56  THR56       0.0376
     82  N         64.1680   39.4350   44.4340 N.am   57  THR57      -0.1938
     83  CA        62.7750   39.5650   44.9460 C.3    57  THR57       0.2028
     84  C         61.7410   39.6590   43.8340 C.2    57  THR57       0.2642
     85  O         62.0360   39.9650   42.6870 O.2    57  THR57      -0.2714
     86  CB        62.6040   40.8410   45.8180 C.3    57  THR57       0.1808
     87  OG1       62.9920   42.0030   45.0460 O.3    57  THR57      -0.2208
     88  CG2       63.5090   40.7430   47.0780 C.3    57  THR57       0.0379
     89  N         60.4820   39.4480   44.2150 N.am   58  LYS58      -0.1977
     90  CA        59.3780   39.6530   43.3070 C.3    58  LYS58       0.1596
     91  C         58.2050   40.0990   44.1730 C.2    58  LYS58       0.2287
     92  O         57.9580   39.5300   45.2630 O.2    58  LYS58      -0.2864
     93  CB        58.9710   38.3780   42.6370 C.3    58  LYS58       0.0298
     94  CG        58.0120   38.6140   41.5130 C.3    58  LYS58       0.0038
     95  CD        57.6140   37.2700   40.8900 C.3    58  LYS58       0.0206
     96  CE        57.0900   37.4820   39.5030 C.3    58  LYS58       0.1093
     97  NZ        58.2470   37.6660   38.5590 N.3    58  LYS58      -0.1314
     98  N         66.6480   39.3790   53.0470 N.3    71  ARG71      -0.1245
     99  CA        66.9250   38.1410   53.7610 C.3    71  ARG71       0.1563
    100  C         68.3470   38.1710   54.3010 C.2    71  ARG71       0.2260
    101  O         69.2590   38.7470   53.6870 O.2    71  ARG71      -0.2867
    102  CB        66.6990   36.9050   52.8750 C.3    71  ARG71       0.0307
    103  CG        67.5940   36.8350   51.5890 C.3    71  ARG71       0.0489
    104  CD        68.9480   36.2250   51.8470 C.3    71  ARG71       0.2205
    105  NE        69.7860   36.1990   50.6440 N.pl3  71  ARG71      -0.0865
    106  CZ        70.5620   37.2110   50.2660 C.cat  71  ARG71       0.5346
    107  NH1       71.2970   37.1170   49.1690 N.pl3  71  ARG71       0.1354
    108  NH2       70.5970   38.3220   51.0020 N.pl3  71  ARG71       0.1354
    109  N         59.1870   25.2740   45.8010 N.3   100  ILE100     -0.1231
    110  CA        59.2030   25.5190   44.3420 C.3   100  ILE100      0.1692
    111  C         60.0160   24.4600   43.5830 C.2   100  ILE100      0.2593
    112  O         60.7760   23.6880   44.1930 O.2   100  ILE100     -0.2718
    113  CB        59.7300   26.9640   43.9080 C.3   100  ILE100      0.0266
    114  CG1       61.2670   27.1010   44.0140 C.3   100  ILE100      0.0019
    115  CG2       59.0100   28.0650   44.6580 C.3   100  ILE100      0.0020
    116  CD1       61.8220   26.8570   45.4080 C.3   100  ILE100      0.0001
    117  N         59.8510   24.4490   42.2570 N.am  101  GLY101     -0.1942
    118  CA        60.4010   23.3980   41.3890 C.3   101  GLY101      0.2014
    119  C         59.8570   23.4400   39.9600 C.2   101  GLY101      0.2638
    120  O         58.8710   24.1400   39.6380 O.2   101  GLY101     -0.2714
    121  N         60.5110   22.6840   39.0790 N.am  102  VAL102     -0.1977
    122  CA        60.1460   22.6520   37.6700 C.3   102  VAL102      0.1596
    123  C         58.9820   21.6880   37.4730 C.2   102  VAL102      0.2287
    124  O         58.9200   20.6360   38.1240 O.2   102  VAL102     -0.2864
    125  CB        61.3430   22.2040   36.7910 C.3   102  VAL102      0.0276
    126  CG1       60.9740   22.1560   35.3120 C.3   102  VAL102      0.0022
    127  CG2       62.4820   23.2110   36.9680 C.3   102  VAL102      0.0022
    128  N         58.6310   25.1280   30.4270 N.3   106  LEU106     -0.1231
    129  CA        58.8470   26.4310   31.0240 C.3   106  LEU106      0.1693
    130  C         57.7670   26.6840   32.0720 C.2   106  LEU106      0.2592
    131  O         57.2070   27.7810   32.1520 O.2   106  LEU106     -0.2718
    132  CB        58.8400   27.5180   29.9490 C.3   106  LEU106      0.0284
    133  CG        60.0390   27.5440   29.0010 C.3   106  LEU106      0.0019
    134  CD1       59.7850   28.5800   27.9310 C.3   106  LEU106      0.0001
    135  CD2       61.3210   27.8790   29.7190 C.3   106  LEU106      0.0001
    136  N         57.4770   25.6540   32.8650 N.am  107  ASN107     -0.1960
    137  CA        56.5020   25.7590   33.9500 C.3   107  ASN107      0.1819
    138  C         57.0730   25.4310   35.3310 C.2   107  ASN107      0.2621
    139  O         58.1240   24.7930   35.4460 O.2   107  ASN107     -0.2715
    140  CB        55.2780   24.8920   33.6610 C.3   107  ASN107      0.1195
    141  CG        54.2090   25.6390   32.8930 C.2   107  ASN107      0.2630
    142  OD1       53.3760   25.0380   32.2120 O.2   107  ASN107     -0.2716
    143  ND2       54.2240   26.9600   33.0030 N.am  107  ASN107     -0.0877
    144  N         56.3700   25.8760   36.3720 N.am  108  TYR108     -0.1974
    145  CA        56.8160   25.6830   37.7480 C.3   108  TYR108      0.1639
    146  C         55.6410   25.3290   38.6800 C.2   108  TYR108      0.2290
    147  O         54.4580   25.4970   38.3240 O.2   108  TYR108     -0.2864
    148  CB        57.5090   26.9560   38.2620 C.3   108  TYR108      0.0560
    149  CG        56.5760   28.1630   38.3740 C.ar  108  TYR108     -0.0198
    150  CD1       55.9270   28.4640   39.5790 C.ar  108  TYR108     -0.0009
    151  CD2       56.3460   28.9940   37.2720 C.ar  108  TYR108     -0.0009
    152  CE1       55.0870   29.5920   39.6770 C.ar  108  TYR108      0.0417
    153  CE2       55.5050   30.0840   37.3520 C.ar  108  TYR108      0.0417
    154  CZ        54.8650   30.3790   38.5560 C.ar  108  TYR108      0.1957
    155  OH        54.0190   31.4510   38.6190 O.3   108  TYR108     -0.2866
    156  N         54.4120   26.0470   42.8590 N.3   110  TYR110     -0.1241
    157  CA        54.6180   27.0360   43.9070 C.3   110  TYR110      0.1605
    158  C         53.5950   26.7620   45.0020 C.2   110  TYR110      0.2264
    159  O         52.3940   26.9350   44.7900 O.2   110  TYR110     -0.2867
    160  CB        54.4130   28.4110   43.2910 C.3   110  TYR110      0.0534
    161  CG        54.8520   29.5870   44.0920 C.ar  110  TYR110     -0.0201
    162  CD1       56.0970   30.1930   43.8420 C.ar  110  TYR110     -0.0009
    163  CD2       54.0120   30.1650   45.0330 C.ar  110  TYR110     -0.0009
    164  CE1       56.4670   31.3570   44.5240 C.ar  110  TYR110      0.0417
    165  CE2       54.3830   31.2870   45.7310 C.ar  110  TYR110      0.0417
    166  CZ        55.6310   31.8670   45.4850 C.ar  110  TYR110      0.1957
    167  OH        56.0160   32.9680   46.1930 O.3   110  TYR110     -0.2866
@<TRIPOS>BOND
     1   134   133    1
     2   133   135    1
     3   133   132    1
     4   132   129    1
     5   128   129    1
     6   129   130    1
     7   130   131    2
     8   130   136   am
     9   142   141    2
    10   136   137    1
    11   141   143   am
    12   141   140    1
    13   140   137    1
    14   137   138    1
    15   126   125    1
    16   138   139    2
    17   138   144   am
    18   144   145    1
    19   125   127    1
    20   125   122    1
    21   151   153   ar
    22   151   149   ar
    23   153   154   ar
    24   123   122    1
    25   123   124    2
    26   122   121    1
    27   145   148    1
    28   145   146    1
    29   148   149    1
    30   147   146    2
    31   149   150   ar
    32   154   155    1
    33   154   152   ar
    34    97    96    1
    35   121   119   am
    36    96    95    1
    37   150   152   ar
    38   120   119    2
    39   119   118    1
    40    95    94    1
    41   118   117    1
    42    94    93    1
    43    81    79    1
    44    80    79    1
    45    40    39    1
    46   117   111   am
    47    93    90    1
    48    79    76    1
    49    85    84    2
    50   156   157    1
    51    58    56    1
    52    39    38   ar
    53    39    37   ar
    54   160   157    1
    55   160   161    1
    56    90    91    1
    57    90    89    1
    58    38    36   ar
    59   111   112    2
    60   111   110    1
    61    50    49   ar
    62    50    48   ar
    63    49    47   ar
    64    84    89   am
    65    84    83    1
    66   162   161   ar
    67   162   164   ar
    68   157   158    1
    69   113   114    1
    70   113   110    1
    71   113   115    1
    72   114   116    1
    73    76    77    1
    74    76    75    1
    75   161   163   ar
    76    91    92    2
    77   110   109    1
    78    37    35   ar
    79    82    77   am
    80    82    83    1
    81    57    55    1
    82   164   166   ar
    83    36    34   ar
    84    56    55    1
    85    77    78    2
    86   159   158    2
    87    83    86    1
    88   163   165   ar
    89    87    86    1
    90    47    46   ar
    91    48    46   ar
    92    55    52    1
    93   166   165   ar
    94   166   167    1
    95    35    34   ar
    96    34    33    1
    97    86    88    1
    98    46    45    1
    99    72    73    1
   100    72    71    1
   101    74    73    2
   102    15    14    2
   103    71    61   am
   104    52    51    1
   105    52    53    1
   106    44    43    2
   107    33    30    1
   108    45    42    1
   109    41    42    1
   110    53    59   am
   111    53    54    2
   112    14    13    1
   113    14    16   am
   114    59    60    1
   115    43    42    1
   116    12    11    2
   117    10    13    1
   118    10    11    1
   119    10     9    1
   120    61    60    1
   121    61    62    2
   122    11    17   am
   123    63    60    1
   124    63    64    1
   125    30    29    1
   126    30    31    1
   127    66    64   ar
   128    66    68   ar
   129    29    19   am
   130     9     3   am
   131    19    20    2
   132    19    18    1
   133     8     6    1
   134    17    18    1
   135     6     5    1
   136    64    65   ar
   137    18    21    1
   138    68    69   ar
   139   107   106    1
   140    31    32    2
   141     3     2    1
   142     3     4    2
   143   106   105    2
   144   106   108    1
   145    65    67   ar
   146    24    26   ar
   147    24    22   ar
   148    21    22    1
   149     5     2    1
   150     5     7    1
   151    69    67   ar
   152    69    70    1
   153     2     1    1
   154   105   104    1
   155    26    27   ar
   156    22    23   ar
   157    27    28    1
   158    27    25   ar
   159    23    25   ar
   160   103   104    1
   161   103   102    1
   162   102    99    1
   163    98    99    1
   164   101   100    2
   165    99   100    1
