@<TRIPOS>MOLECULE
tmp/3fnaA00.pdb
 100 94 0 0 0
SMALL
GASTEIGER

@<TRIPOS>ATOM
      1  N         25.4660   13.7140    1.1790 N.3    51  ILE51      -0.1245
      2  CA        24.4340   14.7140    1.2790 C.3    51  ILE51       0.1561
      3  C         24.3280   15.3770   -0.0860 C.2    51  ILE51       0.2260
      4  O         25.2590   15.3140   -0.9090 O.2    51  ILE51      -0.2867
      5  CB        24.7250   15.7900    2.3530 C.3    51  ILE51       0.0252
      6  CG1       26.0690   16.4800    2.0740 C.3    51  ILE51       0.0019
      7  CG2       24.7510   15.1750    3.7150 C.3    51  ILE51       0.0019
      8  CD1       26.4270   17.5510    3.0690 C.3    51  ILE51       0.0001
      9  N         22.5100   19.0630   -1.5960 N.3    53  THR53      -0.1218
     10  CA        21.7390   20.2500   -1.3480 C.3    53  THR53       0.1862
     11  C         21.2680   20.8660   -2.6710 C.2    53  THR53       0.2287
     12  O         21.6950   20.4840   -3.7390 O.2    53  THR53      -0.2866
     13  CB        22.5780   21.2840   -0.5640 C.3    53  THR53       0.1770
     14  OG1       23.5810   21.7990   -1.4290 O.3    53  THR53      -0.2211
     15  CG2       23.2350   20.6590    0.6390 C.3    53  THR53       0.0375
     16  N         22.0090   23.8630   -3.6240 N.3    55  GLY55      -0.1210
     17  CA        23.2270   24.4230   -4.1950 C.3    55  GLY55       0.1956
     18  C         24.0090   23.4220   -5.0060 C.2    55  GLY55       0.2611
     19  O         24.5320   23.7580   -6.0660 O.2    55  GLY55      -0.2717
     20  N         24.0890   22.1850   -4.5210 N.am   56  ASP56      -0.1973
     21  CA        24.7860   21.1200   -5.2490 C.3    56  ASP56       0.1709
     22  C         24.1690   20.8640   -6.6000 C.2    56  ASP56       0.2293
     23  O         24.8630   20.5200   -7.5360 O.2    56  ASP56      -0.2864
     24  CB        24.7960   19.8170   -4.4340 C.3    56  ASP56       0.1436
     25  CG        25.6400   19.9160   -3.1950 C.2    56  ASP56       0.3671
     26  OD1       26.7150   20.5960   -3.2370 O.co2  56  ASP56      -0.2456
     27  OD2       25.2500   19.2800   -2.1850 O.co2  56  ASP56      -0.2456
     28  N         22.7350   23.1070   -8.5630 N.3    58  ARG58      -0.1231
     29  CA        23.3170   24.1680   -9.3720 C.3    58  ARG58       0.1694
     30  C         24.7500   23.7760   -9.7690 C.2    58  ARG58       0.2591
     31  O         25.1050   23.8110  -10.9280 O.2    58  ARG58      -0.2718
     32  CB        23.3390   25.4890   -8.6040 C.3    58  ARG58       0.0321
     33  CG        24.1160   26.6170   -9.3090 C.3    58  ARG58       0.0489
     34  CD        23.8480   27.9860   -8.7070 C.3    58  ARG58       0.2205
     35  NE        23.7620   27.9320   -7.2410 N.pl3  58  ARG58      -0.0865
     36  CZ        24.8130   27.8220   -6.4370 C.cat  58  ARG58       0.5346
     37  NH1       26.0520   27.7890   -6.9360 N.pl3  58  ARG58       0.1354
     38  NH2       24.6280   27.7670   -5.1310 N.pl3  58  ARG58       0.1354
     39  N         25.5590   23.3710   -8.8010 N.am   59  ARG59      -0.1980
     40  CA        26.9400   22.9380   -9.1060 C.3    59  ARG59       0.1597
     41  C         26.9980   21.8250  -10.1640 C.2    59  ARG59       0.2287
     42  O         27.8870   21.8440  -10.9960 O.2    59  ARG59      -0.2864
     43  CB        27.6470   22.5080   -7.8190 C.3    59  ARG59       0.0334
     44  CG        27.9890   23.6670   -6.9320 C.3    59  ARG59       0.0492
     45  CD        28.3190   23.2330   -5.5200 C.3    59  ARG59       0.2205
     46  NE        28.2000   24.3850   -4.6270 N.pl3  59  ARG59      -0.0865
     47  CZ        27.4080   24.4720   -3.5550 C.cat  59  ARG59       0.5346
     48  NH1       27.4090   25.5990   -2.8440 N.pl3  59  ARG59       0.1354
     49  NH2       26.6400   23.4700   -3.1680 N.pl3  59  ARG59       0.1354
     50  N         27.6190   15.0950   -2.4030 N.3    70  THR70      -0.1218
     51  CA        28.8030   15.3020   -1.6140 C.3    70  THR70       0.1862
     52  C         29.0120   14.0430   -0.7090 C.2    70  THR70       0.2287
     53  O         28.2340   13.8210    0.2220 O.2    70  THR70      -0.2866
     54  CB        28.6540   16.5570   -0.7360 C.3    70  THR70       0.1770
     55  OG1       28.4200   17.6850   -1.5780 O.3    70  THR70      -0.2211
     56  CG2       29.9170   16.7800    0.1170 C.3    70  THR70       0.0375
     57  N         29.2410   17.5740    6.0040 N.3    74  ILE74      -0.1245
     58  CA        29.3720   18.2560    7.3110 C.3    74  ILE74       0.1561
     59  C         28.2440   17.8100    8.1420 C.2    74  ILE74       0.2260
     60  O         27.1940   17.5630    7.6170 O.2    74  ILE74      -0.2867
     61  CB        29.1830   19.8130    7.2950 C.3    74  ILE74       0.0252
     62  CG1       30.2390   20.5740    6.6200 C.3    74  ILE74       0.0019
     63  CG2       29.3410   20.3910    8.6850 C.3    74  ILE74       0.0019
     64  CD1       30.2810   22.0380    7.2740 C.3    74  ILE74       0.0001
     65  N         30.3230   28.4910    7.6140 N.3    91  ARG91      -0.1231
     66  CA        30.4350   27.6210    6.4300 C.3    91  ARG91       0.1694
     67  C         29.4780   28.0100    5.3140 C.2    91  ARG91       0.2592
     68  O         29.4560   27.3690    4.2740 O.2    91  ARG91      -0.2718
     69  CB        30.2040   26.1520    6.7920 C.3    91  ARG91       0.0321
     70  CG        31.1410   25.5650    7.8700 C.3    91  ARG91       0.0489
     71  CD        32.5440   25.8230    7.5560 C.3    91  ARG91       0.2205
     72  NE        33.4770   24.9840    8.3260 N.pl3  91  ARG91      -0.0865
     73  CZ        34.1880   25.3820    9.3730 C.cat  91  ARG91       0.5346
     74  NH1       34.0710   26.6190    9.8400 N.pl3  91  ARG91       0.1354
     75  NH2       35.0350   24.5360    9.9560 N.pl3  91  ARG91       0.1354
     76  N         28.7040   29.0670    5.5510 N.am   92  HIS92      -0.1962
     77  CA        27.6790   29.5250    4.6400 C.3    92  HIS92       0.1787
     78  C         26.7760   28.3850    4.1910 C.2    92  HIS92       0.2620
     79  O         26.6360   28.1390    3.0050 O.2    92  HIS92      -0.2715
     80  CB        28.3110   30.2700    3.4410 C.3    92  HIS92       0.0785
     81  CG        29.0740   31.5020    3.8320 C.ar   92  HIS92       0.0821
     82  ND1       28.4620   32.6260    4.3480 N.ar   92  HIS92      -0.2267
     83  CD2       30.3960   31.7910    3.7750 C.ar   92  HIS92       0.1154
     84  CE1       29.3740   33.5500    4.5910 C.ar   92  HIS92       0.1986
     85  NE2       30.5560   33.0710    4.2470 N.ar   92  HIS92      -0.2212
     86  N         26.1760   27.6940    5.1610 N.am   93  ILE93      -0.1963
     87  CA        25.1540   26.6610    4.9070 C.3    93  ILE93       0.1727
     88  C         23.9210   26.9690    5.7690 C.2    93  ILE93       0.2616
     89  O         23.9940   27.7330    6.7650 O.2    93  ILE93      -0.2715
     90  CB        25.6760   25.2040    5.2050 C.3    93  ILE93       0.0290
     91  CG1       26.0670   25.0300    6.6710 C.3    93  ILE93       0.0022
     92  CG2       26.8690   24.8290    4.2840 C.3    93  ILE93       0.0023
     93  CD1       26.5450   23.6050    7.0690 C.3    93  ILE93       0.0001
     94  N         22.7880   26.4040    5.3760 N.am   94  THR94      -0.1951
     95  CA        21.4870   26.7070    6.0100 C.3    94  THR94       0.1897
     96  C         20.8290   25.4570    6.6130 C.2    94  THR94       0.2313
     97  O         19.7860   25.5460    7.2490 O.2    94  THR94      -0.2863
     98  CB        20.5460   27.4000    5.0390 C.3    94  THR94       0.1794
     99  OG1       20.3250   26.5510    3.9100 O.3    94  THR94      -0.2208
    100  CG2       21.1570   28.7170    4.5270 C.3    94  THR94       0.0378
@<TRIPOS>BOND
     1    42    41    2
     2    31    30    2
     3    41    40    1
     4    30    29    1
     5    30    39   am
     6    29    32    1
     7    29    28    1
     8    33    34    1
     9    33    32    1
    10    40    39    1
    11    40    43    1
    12    34    35    1
    13    43    44    1
    14    23    22    2
    15    35    36    2
    16    37    36    1
    17    44    45    1
    18    22    21    1
    19    36    38    1
    20    19    18    2
    21    45    46    1
    22    21    20    1
    23    21    24    1
    24    18    20   am
    25    18    17    1
    26    46    47    2
    27    24    25    1
    28    17    16    1
    29    12    11    2
    30    47    49    1
    31    47    48    1
    32    26    25   ar
    33    25    27   ar
    34    11    10    1
    35    50    51    1
    36    51    54    1
    37    51    52    1
    38     9    10    1
    39    55    54    1
    40    14    13    1
    41    10    13    1
    42     4     3    2
    43    54    56    1
    44    52    53    2
    45    13    15    1
    46     3     2    1
    47     1     2    1
    48     2     5    1
    49     6     5    1
    50     6     8    1
    51     5     7    1
    52    79    78    2
    53    80    81    1
    54    80    77    1
    55    83    81   ar
    56    83    85   ar
    57    81    82   ar
    58    99    98    1
    59    78    77    1
    60    78    86   am
    61    85    84   ar
    62    68    67    2
    63    92    90    1
    64    82    84   ar
    65   100    98    1
    66    77    76    1
    67    87    86    1
    68    87    90    1
    69    87    88    1
    70    98    95    1
    71    90    91    1
    72    67    76   am
    73    67    66    1
    74    94    88   am
    75    94    95    1
    76    88    89    2
    77    57    58    1
    78    95    96    1
    79    66    69    1
    80    66    65    1
    81    96    97    2
    82    62    64    1
    83    62    61    1
    84    91    93    1
    85    69    70    1
    86    61    58    1
    87    61    63    1
    88    58    59    1
    89    71    70    1
    90    71    72    1
    91    60    59    2
    92    72    73    2
    93    73    74    1
    94    73    75    1
