@<TRIPOS>MOLECULE
tmp/3fnaB00.pdb
 117 111 0 0 0
SMALL
GASTEIGER

@<TRIPOS>ATOM
      1  N         37.5920   17.7050    9.6580 N.3    50  ILE50      -0.1245
      2  CA        38.6420   18.2260    8.8060 C.3    50  ILE50       0.1561
      3  C         38.8120   19.7170    9.1400 C.2    50  ILE50       0.2260
      4  O         37.8460   20.3810    9.5010 O.2    50  ILE50      -0.2867
      5  CB        38.3240   17.9780    7.3160 C.3    50  ILE50       0.0252
      6  CG1       39.5130   18.3720    6.4400 C.3    50  ILE50       0.0019
      7  CG2       37.0490   18.7820    6.8190 C.3    50  ILE50       0.0019
      8  CD1       39.3800   17.8680    4.9670 C.3    50  ILE50       0.0001
      9  N         40.8720   23.1650    7.4550 N.3    52  THR52      -0.1218
     10  CA        41.6490   23.6870    6.3580 C.3    52  THR52       0.1862
     11  C         42.1550   25.0830    6.7170 C.2    52  THR52       0.2287
     12  O         41.7360   25.6690    7.7130 O.2    52  THR52      -0.2866
     13  CB        40.8380   23.7480    5.0450 C.3    52  THR52       0.1770
     14  OG1       39.8220   24.7540    5.1460 O.3    52  THR52      -0.2211
     15  CG2       40.2090   22.3770    4.6870 C.3    52  THR52       0.0375
     16  N         41.4880   27.6400    4.9650 N.3    54  GLY54      -0.1210
     17  CA        40.2630   28.4320    4.8140 C.3    54  GLY54       0.1956
     18  C         39.4610   28.4870    6.1180 C.2    54  GLY54       0.2611
     19  O         38.9370   29.5290    6.4920 O.2    54  GLY54      -0.2717
     20  N         39.3540   27.3550    6.8020 N.am   55  ASP55      -0.1973
     21  CA        38.6490   27.3100    8.0910 C.3    55  ASP55       0.1709
     22  C         39.2940   28.2160    9.1350 C.2    55  ASP55       0.2293
     23  O         38.5910   28.8240    9.9410 O.2    55  ASP55      -0.2864
     24  CB        38.5280   25.8600    8.6100 C.3    55  ASP55       0.1436
     25  CG        37.6300   24.9900    7.7090 C.2    55  ASP55       0.3671
     26  OD1       36.6630   25.5280    7.1130 O.co2  55  ASP55      -0.2456
     27  OD2       37.9120   23.7810    7.5770 O.co2  55  ASP55      -0.2456
     28  N         40.7120   31.1250    8.4380 N.3    57  ARG57      -0.1231
     29  CA        40.1940   32.4280    8.1330 C.3    57  ARG57       0.1694
     30  C         38.7560   32.5600    8.6550 C.2    57  ARG57       0.2591
     31  O         38.3580   33.5970    9.1760 O.2    57  ARG57      -0.2718
     32  CB        40.1870   32.6740    6.6220 C.3    57  ARG57       0.0321
     33  CG        39.2300   33.7650    6.1780 C.3    57  ARG57       0.0489
     34  CD        39.4330   34.1320    4.7020 C.3    57  ARG57       0.2205
     35  NE        39.5930   32.9080    3.9150 N.pl3  57  ARG57      -0.0865
     36  CZ        38.5990   32.1660    3.4450 C.cat  57  ARG57       0.5346
     37  NH1       38.8850   31.0610    2.7650 N.pl3  57  ARG57       0.1354
     38  NH2       37.3340   32.5340    3.6190 N.pl3  57  ARG57       0.1354
     39  N         37.9690   31.5230    8.4450 N.am   58  ARG58      -0.1980
     40  CA        36.5700   31.5550    8.8820 C.3    58  ARG58       0.1597
     41  C         36.4460   31.6880   10.4160 C.2    58  ARG58       0.2287
     42  O         35.4950   32.2880   10.9010 O.2    58  ARG58      -0.2864
     43  CB        35.8360   30.2840    8.4200 C.3    58  ARG58       0.0334
     44  CG        35.5850   30.2580    6.9260 C.3    58  ARG58       0.0492
     45  CD        35.0290   28.9160    6.4160 C.3    58  ARG58       0.2205
     46  NE        35.1250   28.9540    4.9650 N.pl3  58  ARG58      -0.0865
     47  CZ        35.9980   28.2630    4.2220 C.cat  58  ARG58       0.5346
     48  NH1       36.0140   28.4470    2.9020 N.pl3  58  ARG58       0.1354
     49  NH2       36.8300   27.3860    4.7660 N.pl3  58  ARG58       0.1354
     50  N         35.4270   21.5130   10.6750 N.3    71  THR71      -0.1218
     51  CA        34.2600   21.0530    9.9610 C.3    71  THR71       0.1862
     52  C         34.0670   19.6000   10.4100 C.2    71  THR71       0.2287
     53  O         34.8690   18.7370   10.0610 O.2    71  THR71      -0.2866
     54  CB        34.4610   21.1440    8.4300 C.3    71  THR71       0.1770
     55  OG1       34.6550   22.5250    8.0160 O.3    71  THR71      -0.2211
     56  CG2       33.2570   20.6010    7.6820 C.3    71  THR71       0.0375
     57  N         33.1290   16.1520    7.2050 N.3    74  GLY74      -0.1210
     58  CA        34.0140   16.4840    6.0800 C.3    74  GLY74       0.1956
     59  C         33.7850   15.6270    4.8350 C.2    74  GLY74       0.2611
     60  O         33.1400   14.5760    4.8850 O.2    74  GLY74      -0.2717
     61  N         34.3590   16.0580    3.7140 N.am   75  ILE75      -0.1979
     62  CA        34.1110   15.4350    2.4290 C.3    75  ILE75       0.1595
     63  C         35.1810   14.4200    2.1940 C.2    75  ILE75       0.2287
     64  O         36.3720   14.6790    2.4420 O.2    75  ILE75      -0.2864
     65  CB        34.0990   16.4700    1.2520 C.3    75  ILE75       0.0276
     66  CG1       32.9650   17.4320    1.4280 C.3    75  ILE75       0.0022
     67  CG2       33.9380   15.7910   -0.0750 C.3    75  ILE75       0.0022
     68  CD1       32.9270   18.5160    0.3220 C.3    75  ILE75       0.0001
     69  N         32.9850   21.5270   -5.8160 N.3    92  ARG92      -0.1231
     70  CA        32.8490   21.9580   -4.4270 C.3    92  ARG92       0.1694
     71  C         33.8070   23.0800   -4.0830 C.2    92  ARG92       0.2592
     72  O         33.8770   23.4930   -2.9190 O.2    92  ARG92      -0.2718
     73  CB        33.1360   20.8000   -3.4680 C.3    92  ARG92       0.0321
     74  CG        31.9530   19.8740   -3.1560 C.3    92  ARG92       0.0489
     75  CD        31.0200   19.6210   -4.2800 C.3    92  ARG92       0.2205
     76  NE        29.8580   18.8090   -3.8870 N.pl3  92  ARG92      -0.0865
     77  CZ        29.0650   18.1980   -4.7570 C.cat  92  ARG92       0.5346
     78  NH1       29.3120   18.3060   -6.0690 N.pl3  92  ARG92       0.1354
     79  NH2       28.0310   17.4690   -4.3370 N.pl3  92  ARG92       0.1354
     80  N         34.6060   23.5010   -5.0580 N.am   93  HIS93      -0.1962
     81  CA        35.6290   24.5050   -4.8420 C.3    93  HIS93       0.1787
     82  C         36.5480   24.1390   -3.6650 C.2    93  HIS93       0.2620
     83  O         36.8430   24.9610   -2.8170 O.2    93  HIS93      -0.2715
     84  CB        34.9330   25.8600   -4.6320 C.3    93  HIS93       0.0785
     85  CG        35.7810   27.0470   -4.9540 C.ar   93  HIS93       0.0821
     86  ND1       36.4100   27.2060   -6.1740 N.ar   93  HIS93      -0.2267
     87  CD2       36.0720   28.1610   -4.2280 C.ar   93  HIS93       0.1154
     88  CE1       37.0730   28.3570   -6.1750 C.ar   93  HIS93       0.1986
     89  NE2       36.8810   28.9550   -5.0070 N.ar   93  HIS93      -0.2212
     90  N         36.9960   22.8900   -3.6020 N.am   94  ILE94      -0.1963
     91  CA        37.9310   22.4890   -2.5540 C.3    94  ILE94       0.1727
     92  C         39.2300   22.0450   -3.2330 C.2    94  ILE94       0.2617
     93  O         39.2340   21.7670   -4.4330 O.2    94  ILE94      -0.2715
     94  CB        37.3680   21.3730   -1.6360 C.3    94  ILE94       0.0290
     95  CG1       36.8800   20.1660   -2.4440 C.3    94  ILE94       0.0022
     96  CG2       36.2250   21.9230   -0.7700 C.3    94  ILE94       0.0023
     97  CD1       36.4170   18.9500   -1.5850 C.3    94  ILE94       0.0001
     98  N         40.3210   21.9730   -2.4720 N.am   95  THR95      -0.1937
     99  CA        41.6160   21.5950   -3.0500 C.3    95  THR95       0.2028
    100  C         42.1550   20.3050   -2.4460 C.2    95  THR95       0.2643
    101  O         43.2860   19.9150   -2.7430 O.2    95  THR95      -0.2714
    102  CB        42.6410   22.7000   -2.8460 C.3    95  THR95       0.1808
    103  OG1       42.5020   23.1840   -1.5180 O.3    95  THR95      -0.2208
    104  CG2       42.3970   23.8600   -3.8220 C.3    95  THR95       0.0379
    105  N         41.3590   19.6400   -1.6010 N.am   96  SER96      -0.1935
    106  CA        41.7230   18.3000   -1.1490 C.3    96  SER96       0.2055
    107  C         40.5310   17.4490   -0.6900 C.2    96  SER96       0.2642
    108  O         39.4440   17.9520   -0.3770 O.2    96  SER96      -0.2714
    109  CB        42.7670   18.3640   -0.0330 C.3    96  SER96       0.2130
    110  OG        42.1870   18.8760    1.1460 O.3    96  SER96      -0.2179
    111  N         40.7500   16.1470   -0.6740 N.am   97  VAL97      -0.1977
    112  CA        39.7480   15.2400   -0.1790 C.3    97  VAL97       0.1596
    113  C         40.4290   14.1870    0.6900 C.2    97  VAL97       0.2287
    114  O         41.5780   13.8010    0.4450 O.2    97  VAL97      -0.2864
    115  CB        38.9360   14.5820   -1.3190 C.3    97  VAL97       0.0276
    116  CG1       37.8180   15.5340   -1.7950 C.3    97  VAL97       0.0022
    117  CG2       39.8500   14.1530   -2.4800 C.3    97  VAL97       0.0022
@<TRIPOS>BOND
     1    88    86   ar
     2    88    89   ar
     3    86    85   ar
     4    78    77    1
     5    69    70    1
     6    80    81    1
     7    80    71   am
     8    89    87   ar
     9    85    84    1
    10    85    87   ar
    11    81    84    1
    12    81    82    1
    13    77    79    1
    14    77    76    2
    15    93    92    2
    16    70    71    1
    17    70    73    1
    18    75    76    1
    19    75    74    1
    20    71    72    2
    21   104   102    1
    22    82    90   am
    23    82    83    2
    24    90    91    1
    25    73    74    1
    26    92    91    1
    27    92    98   am
    28    99   102    1
    29    99    98    1
    30    99   100    1
    31   102   103    1
    32   101   100    2
    33    91    94    1
    34   117   115    1
    35   100   105   am
    36    95    94    1
    37    95    97    1
    38   116   115    1
    39    94    96    1
    40   105   106    1
    41   115   112    1
    42   106   107    1
    43   106   109    1
    44   107   111   am
    45   107   108    2
    46   111   112    1
    47   112   113    1
    48    67    65    1
    49   109   110    1
    50    68    66    1
    51   114   113    2
    52    65    66    1
    53    65    62    1
    54    63    62    1
    55    63    64    2
    56    62    61    1
    57    37    36    1
    58    48    47    1
    59    36    38    1
    60    36    35    2
    61    61    59   am
    62    35    34    1
    63    47    49    1
    64    47    46    2
    65    15    13    1
    66    34    33    1
    67    17    16    1
    68    17    18    1
    69    59    60    2
    70    59    58    1
    71    46    45    1
    72     8     6    1
    73    13    14    1
    74    13    10    1
    75    58    57    1
    76    18    19    2
    77    18    20   am
    78    33    32    1
    79    10    11    1
    80    10     9    1
    81    45    44    1
    82     6     5    1
    83    32    29    1
    84    11    12    2
    85    20    21    1
    86     7     5    1
    87    44    43    1
    88    26    25   ar
    89     5     2    1
    90    27    25   ar
    91    56    54    1
    92    25    24    1
    93    55    54    1
    94    21    24    1
    95    21    22    1
    96    29    28    1
    97    29    30    1
    98    43    40    1
    99    54    51    1
   100    39    30   am
   101    39    40    1
   102    30    31    2
   103     2     3    1
   104     2     1    1
   105    40    41    1
   106    22    23    2
   107     3     4    2
   108    51    52    1
   109    51    50    1
   110    53    52    2
   111    41    42    2
