@<TRIPOS>MOLECULE
tmp/3fnbA00.pdb
 159 155 0 0 0
SMALL
GASTEIGER

@<TRIPOS>ATOM
      1  N         14.4040   22.0170   86.8000 N.3   152  GLY152     -0.1210
      2  CA        15.3680   21.1830   86.1150 C.3   152  GLY152      0.1956
      3  C         14.9340   20.8010   84.7180 C.2   152  GLY152      0.2611
      4  O         15.6440   20.0860   84.0210 O.2   152  GLY152     -0.2717
      5  N         13.7690   21.2670   84.2890 N.am  153  ASP153     -0.1973
      6  CA        13.3080   20.9010   82.9690 C.3   153  ASP153      0.1709
      7  C         12.8250   22.0790   82.1770 C.2   153  ASP153      0.2293
      8  O         11.8760   21.9560   81.4220 O.2   153  ASP153     -0.2864
      9  CB        12.1860   19.8780   83.0720 C.3   153  ASP153      0.1436
     10  CG        12.6570   18.5810   83.6930 C.2   153  ASP153      0.3671
     11  OD1       13.4120   17.8320   83.0220 O.co2 153  ASP153     -0.2456
     12  OD2       12.2780   18.3200   84.8600 O.co2 153  ASP153     -0.2456
     13  N         24.3760   23.1030   87.6680 N.3   190  PHE190     -0.1227
     14  CA        23.6610   23.4600   88.8890 C.3   190  PHE190      0.1736
     15  C         24.6610   23.8340   89.9560 C.2   190  PHE190      0.2595
     16  O         25.7050   23.1840   90.1110 O.2   190  PHE190     -0.2718
     17  CB        22.7940   22.3060   89.3750 C.3   190  PHE190      0.0547
     18  CG        21.5310   22.1620   88.6070 C.ar  190  PHE190     -0.0202
     19  CD1       21.2190   20.9800   87.9780 C.ar  190  PHE190     -0.0042
     20  CD2       20.6450   23.2230   88.5190 C.ar  190  PHE190     -0.0042
     21  CE1       20.0180   20.8470   87.2720 C.ar  190  PHE190     -0.0003
     22  CE2       19.4620   23.1140   87.7880 C.ar  190  PHE190     -0.0003
     23  CZ        19.1480   21.9220   87.1630 C.ar  190  PHE190     -0.0000
     24  N         24.3510   24.8960   90.6790 N.am  191  GLU191     -0.1965
     25  CA        25.1880   25.3130   91.7910 C.3   191  GLU191      0.1733
     26  C         24.4460   25.1900   93.1340 C.2   191  GLU191      0.2616
     27  O         23.2240   24.9850   93.1640 O.2   191  GLU191     -0.2715
     28  CB        25.7710   26.7070   91.5220 C.3   191  GLU191      0.0429
     29  CG        27.1100   26.6080   90.7660 C.3   191  GLU191      0.1163
     30  CD        27.3350   27.7080   89.7380 C.2   191  GLU191      0.3649
     31  OE1       26.8350   28.8380   89.9400 O.co2 191  GLU191     -0.2457
     32  OE2       28.0130   27.4290   88.7220 O.co2 191  GLU191     -0.2457
     33  N         25.1870   25.3040   94.2350 N.am  192  VAL192     -0.1977
     34  CA        24.6710   24.9290   95.5440 C.3   192  VAL192      0.1596
     35  C         23.6690   25.9700   96.0580 C.2   192  VAL192      0.2287
     36  O         22.6650   25.6530   96.7210 O.2   192  VAL192     -0.2864
     37  CB        25.8370   24.7200   96.5450 C.3   192  VAL192      0.0276
     38  CG1       26.7780   25.8960   96.5020 C.3   192  VAL192      0.0022
     39  CG2       25.3200   24.4980   97.9510 C.3   192  VAL192      0.0022
     40  N         11.8050   22.9750   90.7010 N.3   219  GLY219     -0.1225
     41  CA        13.0440   23.2070   91.4400 C.3   219  GLY219      0.1811
     42  C         13.2740   24.7020   91.6390 C.2   219  GLY219      0.2280
     43  O         13.9600   25.1140   92.5480 O.2   219  GLY219     -0.2866
     44  N         12.7500   26.0630   95.0250 N.3   222  TYR222     -0.1227
     45  CA        13.8760   26.0310   95.9490 C.3   222  TYR222      0.1736
     46  C         14.8030   27.1870   95.6270 C.2   222  TYR222      0.2595
     47  O         15.1660   27.9550   96.4980 O.2   222  TYR222     -0.2718
     48  CB        14.6020   24.6930   95.8240 C.3   222  TYR222      0.0548
     49  CG        15.8920   24.5600   96.6030 C.ar  222  TYR222     -0.0200
     50  CD1       15.8970   24.6330   98.0010 C.ar  222  TYR222     -0.0009
     51  CD2       17.1090   24.3160   95.9450 C.ar  222  TYR222     -0.0009
     52  CE1       17.0720   24.4970   98.7200 C.ar  222  TYR222      0.0417
     53  CE2       18.2870   24.1740   96.6610 C.ar  222  TYR222      0.0417
     54  CZ        18.2630   24.2630   98.0510 C.ar  222  TYR222      0.1957
     55  OH        19.4270   24.1170   98.7820 O.3   222  TYR222     -0.2866
     56  N         15.1610   27.3340   94.3580 N.am  223  PHE223     -0.1976
     57  CA        16.0810   28.3950   93.9750 C.3   223  PHE223      0.1639
     58  C         15.5700   29.7270   94.4810 C.2   223  PHE223      0.2290
     59  O         16.3320   30.5020   95.0620 O.2   223  PHE223     -0.2864
     60  CB        16.3160   28.4620   92.4610 C.3   223  PHE223      0.0560
     61  CG        16.8270   27.1800   91.8620 C.ar  223  PHE223     -0.0200
     62  CD1       17.6710   26.3440   92.5790 C.ar  223  PHE223     -0.0042
     63  CD2       16.4600   26.8100   90.5710 C.ar  223  PHE223     -0.0042
     64  CE1       18.1540   25.1540   92.0270 C.ar  223  PHE223     -0.0003
     65  CE2       16.9370   25.6220   89.9930 C.ar  223  PHE223     -0.0003
     66  CZ        17.7840   24.7940   90.7210 C.ar  223  PHE223     -0.0000
     67  N         15.5690   20.6930   99.6610 N.3   246  VAL246     -0.1245
     68  CA        15.6790   19.9300   98.4150 C.3   246  VAL246      0.1561
     69  C         16.3020   18.5330   98.6080 C.2   246  VAL246      0.2260
     70  O         15.9910   17.5930   97.8720 O.2   246  VAL246     -0.2867
     71  CB        16.4540   20.7420   97.3330 C.3   246  VAL246      0.0252
     72  CG1       17.9560   20.7990   97.6400 C.3   246  VAL246      0.0019
     73  CG2       16.1910   20.1990   95.9430 C.3   246  VAL246      0.0019
     74  N         14.8950   14.9110   97.3860 N.3   250  PHE250     -0.1241
     75  CA        15.6900   13.8780   96.7450 C.3   250  PHE250      0.1605
     76  C         15.7000   12.5590   97.5060 C.2   250  PHE250      0.2264
     77  O         15.3990   11.5070   96.9310 O.2   250  PHE250     -0.2867
     78  CB        17.1200   14.3740   96.5140 C.3   250  PHE250      0.0534
     79  CG        17.2840   15.1150   95.2380 C.ar  250  PHE250     -0.0203
     80  CD1       16.4710   16.1970   94.9490 C.ar  250  PHE250     -0.0042
     81  CD2       18.2340   14.7250   94.3030 C.ar  250  PHE250     -0.0042
     82  CE1       16.6000   16.8850   93.7580 C.ar  250  PHE250     -0.0003
     83  CE2       18.3720   15.4140   93.0990 C.ar  250  PHE250     -0.0003
     84  CZ        17.5560   16.4970   92.8230 C.ar  250  PHE250     -0.0000
     85  N         14.2300    9.1410   95.6490 N.3   254  PHE254     -0.1241
     86  CA        15.0050    8.0090   95.1710 C.3   254  PHE254      0.1605
     87  C         15.6770    7.2640   96.3180 C.2   254  PHE254      0.2264
     88  O         16.8920    7.0590   96.3270 O.2   254  PHE254     -0.2867
     89  CB        16.0260    8.4960   94.1530 C.3   254  PHE254      0.0534
     90  CG        15.5450    9.6660   93.3430 C.ar  254  PHE254     -0.0203
     91  CD1       16.2090   10.8770   93.3860 C.ar  254  PHE254     -0.0042
     92  CD2       14.4140    9.5600   92.5560 C.ar  254  PHE254     -0.0042
     93  CE1       15.7620   11.9620   92.6420 C.ar  254  PHE254     -0.0003
     94  CE2       13.9610   10.6420   91.8100 C.ar  254  PHE254     -0.0003
     95  CZ        14.6370   11.8450   91.8550 C.ar  254  PHE254     -0.0000
     96  N         19.5970   15.0970   83.5000 N.3   268  TYR268     -0.1241
     97  CA        19.9390   15.6390   84.8200 C.3   268  TYR268      0.1605
     98  C         21.4360   15.5790   85.0880 C.2   268  TYR268      0.2264
     99  O         22.0430   16.5690   85.4810 O.2   268  TYR268     -0.2867
    100  CB        19.1670   14.9230   85.9310 C.3   268  TYR268      0.0534
    101  CG        17.7070   15.2810   85.9100 C.ar  268  TYR268     -0.0201
    102  CD1       17.2990   16.5140   85.4360 C.ar  268  TYR268     -0.0009
    103  CD2       16.7390   14.3980   86.3540 C.ar  268  TYR268     -0.0009
    104  CE1       15.9680   16.8650   85.4050 C.ar  268  TYR268      0.0417
    105  CE2       15.4030   14.7350   86.3220 C.ar  268  TYR268      0.0417
    106  CZ        15.0300   15.9790   85.8470 C.ar  268  TYR268      0.1957
    107  OH        13.7100   16.3410   85.8100 O.3   268  TYR268     -0.2866
    108  N         23.9230   18.6420   85.9860 N.3   272  PHE272     -0.1241
    109  CA        24.6930   18.7180   87.2110 C.3   272  PHE272      0.1605
    110  C         26.1900   18.6920   86.8960 C.2   272  PHE272      0.2264
    111  O         27.0080   19.0530   87.7260 O.2   272  PHE272     -0.2867
    112  CB        24.3420   17.5520   88.1420 C.3   272  PHE272      0.0534
    113  CG        23.1140   17.7860   88.9670 C.ar  272  PHE272     -0.0203
    114  CD1       21.8550   17.5020   88.4600 C.ar  272  PHE272     -0.0042
    115  CD2       23.2160   18.2990   90.2460 C.ar  272  PHE272     -0.0042
    116  CE1       20.7090   17.7270   89.2360 C.ar  272  PHE272     -0.0003
    117  CE2       22.0880   18.5330   91.0080 C.ar  272  PHE272     -0.0003
    118  CZ        20.8360   18.2370   90.5100 C.ar  272  PHE272     -0.0000
    119  N         23.4640   10.1750   87.2260 N.3   277  PHE277     -0.1241
    120  CA        22.4650   10.7840   88.0980 C.3   277  PHE277      0.1605
    121  C         22.6620   10.4100   89.5610 C.2   277  PHE277      0.2264
    122  O         22.3020   11.1620   90.4570 O.2   277  PHE277     -0.2867
    123  CB        21.0460   10.4120   87.6570 C.3   277  PHE277      0.0534
    124  CG        19.9760   11.1120   88.4440 C.ar  277  PHE277     -0.0203
    125  CD1       19.8210   12.4860   88.3560 C.ar  277  PHE277     -0.0042
    126  CD2       19.1290   10.4000   89.2830 C.ar  277  PHE277     -0.0042
    127  CE1       18.8370   13.1400   89.0890 C.ar  277  PHE277     -0.0003
    128  CE2       18.1390   11.0400   90.0120 C.ar  277  PHE277     -0.0003
    129  CZ        17.9880   12.4160   89.9270 C.ar  277  PHE277     -0.0000
    130  N         25.6620   14.4160   95.3240 N.3   283  GLU283     -0.1231
    131  CA        26.0550   15.8180   95.3790 C.3   283  GLU283      0.1699
    132  C         24.9840   16.6440   96.1140 C.2   283  GLU283      0.2592
    133  O         25.2940   17.4270   97.0060 O.2   283  GLU283     -0.2718
    134  CB        26.2930   16.3530   93.9620 C.3   283  GLU283      0.0402
    135  CG        26.7790   17.7990   93.8830 C.3   283  GLU283      0.1161
    136  CD        26.4770   18.4550   92.5330 C.2   283  GLU283      0.3649
    137  OE1       26.4520   17.7410   91.4980 O.co2 283  GLU283     -0.2457
    138  OE2       26.2620   19.6910   92.5090 O.co2 283  GLU283     -0.2457
    139  N         23.7230   16.4680   95.7390 N.am  284  VAL284     -0.1980
    140  CA        22.6500   17.1860   96.4080 C.3   284  VAL284      0.1595
    141  C         22.5620   16.8050   97.9020 C.2   284  VAL284      0.2287
    142  O         22.4440   17.6740   98.7760 O.2   284  VAL284     -0.2864
    143  CB        21.2850   16.9320   95.7370 C.3   284  VAL284      0.0276
    144  CG1       20.1580   17.5240   96.5790 C.3   284  VAL284      0.0022
    145  CG2       21.2520   17.4970   94.2740 C.3   284  VAL284      0.0022
    146  N         25.4500   18.5020   99.7720 N.3   287  GLN287     -0.1231
    147  CA        25.8120   19.9030   99.6010 C.3   287  GLN287      0.1698
    148  C         24.6480   20.8800   99.6790 C.2   287  GLN287      0.2592
    149  O         24.8240   22.0300  100.0830 O.2   287  GLN287     -0.2718
    150  CB        26.5220   20.0990   98.2760 C.3   287  GLN287      0.0381
    151  CG        27.8160   19.3610   98.1700 C.3   287  GLN287      0.0905
    152  CD        28.7870   20.0970   97.2790 C.2   287  GLN287      0.2608
    153  OE1       29.0690   19.6740   96.1470 O.2   287  GLN287     -0.2717
    154  NE2       29.2900   21.2310   97.7730 N.am  287  GLN287     -0.0878
    155  N         23.4690   20.4340   99.2610 N.am  288  ALA288     -0.1980
    156  CA        22.2840   21.2820   99.3160 C.3   288  ALA288      0.1597
    157  C         22.0590   21.6980  100.7640 C.2   288  ALA288      0.2287
    158  O         21.9800   20.8530  101.6500 O.2   288  ALA288     -0.2864
    159  CB        21.0780   20.5490   98.7750 C.3   288  ALA288      0.0319
@<TRIPOS>BOND
     1     8     7    2
     2     7     6    1
     3     6     9    1
     4     6     5    1
     5    11    10   ar
     6     9    10    1
     7    96    97    1
     8    10    12   ar
     9     4     3    2
    10     5     3   am
    11     3     2    1
    12    97    98    1
    13    97   100    1
    14    98    99    2
    15   104   102   ar
    16   104   106   ar
    17   102   101   ar
    18   107   106    1
    19   106   105   ar
    20   101   100    1
    21   101   103   ar
    22   108   109    1
    23     2     1    1
    24   105   103   ar
    25   110   109    1
    26   110   111    2
    27    23    21   ar
    28    23    22   ar
    29   109   112    1
    30   119   120    1
    31    21    19   ar
    32   123   120    1
    33   123   124    1
    34    13    14    1
    35    22    20   ar
    36    19    18   ar
    37   120   121    1
    38   112   113    1
    39   125   124   ar
    40   125   127   ar
    41   124   126   ar
    42   114   113   ar
    43   114   116   ar
    44    20    18   ar
    45    18    17    1
    46    32    30   ar
    47    14    17    1
    48    14    15    1
    49   113   115   ar
    50   127   129   ar
    51   116   118   ar
    52   126   128   ar
    53   121   122    2
    54    30    31   ar
    55    30    29    1
    56   129   128   ar
    57    15    16    2
    58    15    24   am
    59    65    63   ar
    60    65    66   ar
    61   115   117   ar
    62   118   117   ar
    63    63    61   ar
    64    24    25    1
    65    40    41    1
    66    66    64   ar
    67    29    28    1
    68    41    42    1
    69   137   136   ar
    70    28    25    1
    71    42    43    2
    72    25    26    1
    73    94    95   ar
    74    94    92   ar
    75    95    93   ar
    76    61    60    1
    77    61    62   ar
    78    64    62   ar
    79    60    57    1
    80   138   136   ar
    81   136   135    1
    82    92    90   ar
    83    93    91   ar
    84    84    83   ar
    85    84    82   ar
    86    83    81   ar
    87    26    27    2
    88    26    33   am
    89    90    91   ar
    90    90    89    1
    91    82    80   ar
    92   135   134    1
    93   134   131    1
    94    57    56    1
    95    57    58    1
    96    89    86    1
    97    33    34    1
    98   145   143    1
    99    81    79   ar
   100    56    46   am
   101    58    59    2
   102    80    79   ar
   103    44    45    1
   104    86    85    1
   105    86    87    1
   106    79    78    1
   107   130   131    1
   108   131   132    1
   109    34    35    1
   110    34    37    1
   111    46    45    1
   112    46    47    2
   113   143   140    1
   114   143   144    1
   115   139   132   am
   116   139   140    1
   117    48    45    1
   118    48    49    1
   119    73    71    1
   120    51    49   ar
   121    51    53   ar
   122    35    36    2
   123   132   133    2
   124   153   152    2
   125    87    88    2
   126   140   141    1
   127    38    37    1
   128    78    75    1
   129    37    39    1
   130    49    50   ar
   131    53    54   ar
   132    75    74    1
   133    75    76    1
   134    77    76    2
   135   152   154   am
   136   152   151    1
   137    71    72    1
   138    71    68    1
   139    70    69    2
   140   141   142    2
   141    50    52   ar
   142    54    52   ar
   143    54    55    1
   144   151   150    1
   145   150   147    1
   146    68    69    1
   147    68    67    1
   148   159   156    1
   149   155   156    1
   150   155   148   am
   151   156   157    1
   152   147   148    1
   153   147   146    1
   154   148   149    2
   155   157   158    2
