@<TRIPOS>MOLECULE
tmp/3fncB00.pdb
 88 86 0 0 0
SMALL
GASTEIGER

@<TRIPOS>ATOM
      1  N         16.9100   40.7690   70.2860 N.3    89  LEU89      -0.1245
      2  CA        16.0790   41.7750   70.9390 C.3    89  LEU89       0.1561
      3  C         16.8940   43.0530   71.0900 C.2    89  LEU89       0.2260
      4  O         18.1080   42.9740   71.3060 O.2    89  LEU89      -0.2867
      5  CB        15.6700   41.3280   72.3490 C.3    89  LEU89       0.0270
      6  CG        14.9010   40.0320   72.5860 C.3    89  LEU89       0.0019
      7  CD1       14.5110   39.9420   74.0800 C.3    89  LEU89       0.0001
      8  CD2       13.6600   39.9790   71.7560 C.3    89  LEU89       0.0001
      9  N         15.1220   43.4780   76.8400 N.3    94  THR94      -0.1203
     10  CA        15.5140   42.2140   77.4300 C.3    94  THR94       0.1994
     11  C         15.0570   42.1600   78.8880 C.2    94  THR94       0.2618
     12  O         14.7370   43.1960   79.5090 O.2    94  THR94      -0.2717
     13  CB        17.0440   41.9660   77.3020 C.3    94  THR94       0.1784
     14  OG1       17.7500   43.0420   77.9290 O.3    94  THR94      -0.2211
     15  CG2       17.4730   41.8890   75.8380 C.3    94  THR94       0.0376
     16  N         15.0070   40.9480   79.4360 N.am   95  GLN95      -0.1965
     17  CA        14.7270   40.7370   80.8610 C.3    95  GLN95       0.1733
     18  C         13.2860   41.0820   81.2430 C.2    95  GLN95       0.2616
     19  O         13.0120   41.3420   82.4220 O.2    95  GLN95      -0.2715
     20  CB        15.6850   41.5560   81.7660 C.3    95  GLN95       0.0408
     21  CG        17.0930   41.7900   81.2570 C.3    95  GLN95       0.0908
     22  CD        17.9050   40.5250   81.1950 C.2    95  GLN95       0.2608
     23  OE1       17.4920   39.4820   81.7130 O.2    95  GLN95      -0.2717
     24  NE2       19.0720   40.6000   80.5550 N.am   95  GLN95      -0.0878
     25  N         12.3820   41.0740   80.2590 N.am   96  ARG96      -0.1963
     26  CA        10.9690   41.4300   80.4590 C.3    96  ARG96       0.1729
     27  C          9.9920   40.2910   80.1690 C.2    96  ARG96       0.2617
     28  O          8.7780   40.4830   80.2450 O.2    96  ARG96      -0.2715
     29  CB        10.5870   42.6100   79.5620 C.3    96  ARG96       0.0348
     30  CG        11.4500   43.8340   79.7250 C.3    96  ARG96       0.0492
     31  CD        10.6710   45.1110   79.4130 C.3    96  ARG96       0.2205
     32  NE        11.2940   46.2560   80.0630 N.pl3  96  ARG96      -0.0865
     33  CZ        10.7200   47.0000   81.0000 C.cat  96  ARG96       0.5346
     34  NH1       11.3870   48.0060   81.5370 N.pl3  96  ARG96       0.1354
     35  NH2        9.4800   46.7460   81.3950 N.pl3  96  ARG96       0.1354
     36  N         10.5130   39.1190   79.8150 N.am   97  GLY97      -0.1940
     37  CA         9.6720   37.9780   79.4260 C.3    97  GLY97       0.2014
     38  C          9.3290   37.9630   77.9390 C.2    97  GLY97       0.2639
     39  O          8.6460   37.0420   77.4430 O.2    97  GLY97      -0.2714
     40  N          9.8140   38.9620   77.2090 N.am   98  LEU98      -0.1963
     41  CA         9.4040   39.0980   75.8060 C.3    98  LEU98       0.1728
     42  C         10.1150   38.1230   74.8540 C.2    98  LEU98       0.2617
     43  O          9.5620   37.7530   73.8210 O.2    98  LEU98      -0.2715
     44  CB         9.5550   40.5400   75.3140 C.3    98  LEU98       0.0311
     45  CG         8.7170   41.5660   76.0770 C.3    98  LEU98       0.0022
     46  CD1        9.0710   42.9490   75.6000 C.3    98  LEU98       0.0001
     47  CD2        7.2170   41.3380   75.9590 C.3    98  LEU98       0.0001
     48  N         11.3420   37.7190   75.1840 N.am   99  GLY99      -0.1940
     49  CA        12.0660   36.7980   74.2950 C.3    99  GLY99       0.2014
     50  C         11.4250   35.4130   74.3140 C.2    99  GLY99       0.2639
     51  O         11.3750   34.7280   73.3070 O.2    99  GLY99      -0.2714
     52  N         10.9580   35.0040   75.4890 N.am  100  THR100     -0.1950
     53  CA        10.2500   33.7480   75.6450 C.3   100  THR100      0.1897
     54  C          9.0290   33.7170   74.7240 C.2   100  THR100      0.2313
     55  O          8.7780   32.7070   74.0550 O.2   100  THR100     -0.2863
     56  CB         9.7940   33.5620   77.0980 C.3   100  THR100      0.1794
     57  OG1       10.9480   33.5450   77.9490 O.3   100  THR100     -0.2208
     58  CG2        9.0140   32.2770   77.2610 C.3   100  THR100      0.0378
     59  N         22.5790   32.6780   79.4430 N.3   127  HIS127     -0.1226
     60  CA        21.6200   32.5270   80.5460 C.3   127  HIS127      0.1752
     61  C         20.1910   32.3220   80.0460 C.2   127  HIS127      0.2596
     62  O         19.4740   31.4650   80.5550 O.2   127  HIS127     -0.2718
     63  CB        21.6650   33.7210   81.5120 C.3   127  HIS127      0.0759
     64  CG        20.6920   33.6120   82.6530 C.ar  127  HIS127      0.0818
     65  ND1       20.9800   32.9320   83.8190 N.ar  127  HIS127     -0.2268
     66  CD2       19.4380   34.1030   82.8090 C.ar  127  HIS127      0.1154
     67  CE1       19.9510   33.0120   84.6450 C.ar  127  HIS127      0.1986
     68  NE2       19.0040   33.7210   84.0580 N.ar  127  HIS127     -0.2212
     69  N         19.7900   33.0950   79.0310 N.am  128  PHE128     -0.1976
     70  CA        18.4650   32.9660   78.4440 C.3   128  PHE128      0.1639
     71  C         18.2360   31.5660   77.8690 C.2   128  PHE128      0.2290
     72  O         17.2470   30.9290   78.1940 O.2   128  PHE128     -0.2864
     73  CB        18.2520   34.0050   77.3420 C.3   128  PHE128      0.0560
     74  CG        16.9730   33.8150   76.5640 C.ar  128  PHE128     -0.0200
     75  CD1       15.7420   34.1540   77.1220 C.ar  128  PHE128     -0.0042
     76  CD2       17.0110   33.2900   75.2740 C.ar  128  PHE128     -0.0042
     77  CE1       14.5620   33.9760   76.4070 C.ar  128  PHE128     -0.0003
     78  CE2       15.8540   33.1010   74.5580 C.ar  128  PHE128     -0.0003
     79  CZ        14.6170   33.4530   75.1090 C.ar  128  PHE128     -0.0000
     80  N         15.6710   28.5140   79.3030 N.3   132  LYS132     -0.1245
     81  CA        14.5980   27.9180   78.4950 C.3   132  LYS132      0.1561
     82  C         14.7760   26.4100   78.2810 C.2   132  LYS132      0.2260
     83  O         13.9640   25.7880   77.5820 O.2   132  LYS132     -0.2867
     84  CB        14.4920   28.5930   77.1210 C.3   132  LYS132      0.0271
     85  CG        14.3750   30.1310   77.0830 C.3   132  LYS132      0.0035
     86  CD        13.0180   30.6310   77.5600 C.3   132  LYS132      0.0206
     87  CE        13.1000   31.1600   78.9800 C.3   132  LYS132      0.1093
     88  NZ        11.7510   31.2030   79.6000 N.3   132  LYS132     -0.1314
@<TRIPOS>BOND
     1     1     2    1
     2     2     3    1
     3     2     5    1
     4     3     4    2
     5     8     6    1
     6     5     6    1
     7     6     7    1
     8    51    50    2
     9    43    42    2
    10    55    54    2
    11    49    50    1
    12    49    48    1
    13    50    52   am
    14    78    79   ar
    15    78    76   ar
    16    54    53    1
    17    42    48   am
    18    42    41    1
    19    79    77   ar
    20    76    74   ar
    21    44    41    1
    22    44    45    1
    23    52    53    1
    24    46    45    1
    25    53    56    1
    26    41    40    1
    27    15    13    1
    28    47    45    1
    29    77    75   ar
    30    74    75   ar
    31    74    73    1
    32     9    10    1
    33    85    84    1
    34    85    86    1
    35    56    58    1
    36    56    57    1
    37    84    81    1
    38    40    38   am
    39    13    10    1
    40    13    14    1
    41    73    70    1
    42    10    11    1
    43    39    38    2
    44    86    87    1
    45    83    82    2
    46    71    72    2
    47    71    70    1
    48    38    37    1
    49    82    81    1
    50    70    69    1
    51    81    80    1
    52    11    16   am
    53    11    12    2
    54    87    88    1
    55    69    61   am
    56    31    30    1
    57    31    32    1
    58    37    36    1
    59    16    17    1
    60    59    60    1
    61    29    30    1
    62    29    26    1
    63    36    27   am
    64    61    60    1
    65    61    62    2
    66    32    33    2
    67    27    28    2
    68    27    26    1
    69    25    26    1
    70    25    18   am
    71    60    63    1
    72    24    22   am
    73    17    18    1
    74    17    20    1
    75    33    35    1
    76    33    34    1
    77    22    21    1
    78    22    23    2
    79    18    19    2
    80    21    20    1
    81    63    64    1
    82    64    66   ar
    83    64    65   ar
    84    66    68   ar
    85    65    67   ar
    86    68    67   ar
