@<TRIPOS>MOLECULE
tmp/3fneC01.pdb
 172 166 0 0 0
SMALL
GASTEIGER

@<TRIPOS>ATOM
      1  N         25.9900   46.2860   17.3340 N.3    93  SER93      -0.1202
      2  CA        26.2830   45.6920   16.0330 C.3    93  SER93       0.2020
      3  C         27.6200   46.2340   15.5670 C.2    93  SER93       0.2619
      4  O         27.7270   46.8760   14.5070 O.2    93  SER93      -0.2717
      5  CB        25.1640   46.0160   15.0430 C.3    93  SER93       0.2103
      6  OG        25.2310   45.1790   13.8990 O.3    93  SER93      -0.2182
      7  N         28.6490   46.0170   16.3940 N.am   94  ILE94      -0.1965
      8  CA        29.9740   46.5240   16.0550 C.3    94  ILE94       0.1727
      9  C         31.0550   45.4360   16.0610 C.2    94  ILE94       0.2617
     10  O         30.9730   44.4330   16.7770 O.2    94  ILE94      -0.2715
     11  CB        30.4370   47.7660   16.8990 C.3    94  ILE94       0.0290
     12  CG1       31.3900   47.3510   18.0100 C.3    94  ILE94       0.0022
     13  CG2       29.2760   48.6460   17.4040 C.3    94  ILE94       0.0023
     14  CD1       32.4810   48.3660   18.2070 C.3    94  ILE94       0.0001
     15  N         32.0670   45.6470   15.2410 N.am   95  GLY95      -0.1940
     16  CA        33.1290   44.6660   15.0930 C.3    95  GLY95       0.2014
     17  C         34.2420   45.2230   14.2480 C.2    95  GLY95       0.2639
     18  O         33.9950   46.0170   13.3320 O.2    95  GLY95      -0.2714
     19  N         35.4610   44.8110   14.5730 N.am   96  PHE96      -0.1959
     20  CA        36.6460   45.1170   13.7810 C.3    96  PHE96       0.1771
     21  C         37.7880   44.1720   14.1270 C.2    96  PHE96       0.2619
     22  O         37.9460   43.7660   15.2770 O.2    96  PHE96      -0.2715
     23  CB        37.1000   46.5670   13.9620 C.3    96  PHE96       0.0574
     24  CG        38.3310   46.9180   13.1690 C.ar   96  PHE96      -0.0200
     25  CD1       38.2470   47.1680   11.7940 C.ar   96  PHE96      -0.0042
     26  CD2       39.5860   46.9770   13.7920 C.ar   96  PHE96      -0.0042
     27  CE1       39.3950   47.4730   11.0590 C.ar   96  PHE96      -0.0003
     28  CE2       40.7390   47.2870   13.0570 C.ar   96  PHE96      -0.0003
     29  CZ        40.6410   47.5340   11.6950 C.ar   96  PHE96      -0.0000
     30  N         38.5640   43.8240   13.1030 N.am   97  MET97      -0.1977
     31  CA        39.8220   43.1150   13.2690 C.3    97  MET97       0.1605
     32  C         40.8110   43.5920   12.1870 C.2    97  MET97       0.2287
     33  O         40.4800   43.5520   10.9950 O.2    97  MET97      -0.2864
     34  CB        39.5880   41.6140   13.1610 C.3    97  MET97       0.0413
     35  CG        40.8210   40.7860   13.4200 C.3    97  MET97       0.0598
     36  SD        41.4200   40.8990   15.1320 S.3    97  MET97      -0.1393
     37  CE        42.9330   39.9980   14.9000 C.3    97  MET97       0.0692
     38  N         42.9870   38.3870    9.7050 N.3   102  MET102     -0.1245
     39  CA        41.7030   38.5060    9.0110 C.3   102  MET102      0.1570
     40  C         41.4460   37.7650    7.6860 C.2   102  MET102      0.2261
     41  O         40.3590   37.9350    7.1140 O.2   102  MET102     -0.2867
     42  CB        41.4000   39.9990    8.7850 C.3   102  MET102      0.0387
     43  CG        39.9130   40.3490    8.6830 C.3   102  MET102      0.0595
     44  SD        39.0310   39.6330   10.0740 S.3   102  MET102     -0.1393
     45  CE        37.6700   38.8630    9.2270 C.3   102  MET102      0.0692
     46  N         28.9480   35.5590   15.0500 N.3   148  PHE148     -0.1241
     47  CA        29.0920   34.5770   13.9810 C.3   148  PHE148      0.1605
     48  C         29.7200   33.3320   14.6040 C.2   148  PHE148      0.2264
     49  O         30.8510   33.3970   15.1150 O.2   148  PHE148     -0.2867
     50  CB        29.9450   35.1250   12.8220 C.3   148  PHE148      0.0534
     51  CG        30.0010   34.2190   11.6030 C.ar  148  PHE148     -0.0203
     52  CD1       28.8750   34.0450   10.7860 C.ar  148  PHE148     -0.0042
     53  CD2       31.1890   33.5720   11.2500 C.ar  148  PHE148     -0.0042
     54  CE1       28.9250   33.2320    9.6490 C.ar  148  PHE148     -0.0003
     55  CE2       31.2490   32.7480   10.1130 C.ar  148  PHE148     -0.0003
     56  CZ        30.1130   32.5660    9.3140 C.ar  148  PHE148     -0.0000
     57  N         37.7420   27.8830   11.1030 N.3   154  MET154     -0.1231
     58  CA        37.4060   27.9720    9.6760 C.3   154  MET154      0.1687
     59  C         38.4140   28.8310    8.8980 C.2   154  MET154      0.2434
     60  O         39.1280   29.6170    9.4960 O.2   154  MET154     -0.2733
     61  CB        36.0020   28.5650    9.5290 C.3   154  MET154      0.0400
     62  CG        35.9220   30.0430    9.8810 C.3   154  MET154      0.0596
     63  SD        34.2380   30.6550    9.9900 S.3   154  MET154     -0.1393
     64  CE        33.5780   30.1100    8.4160 C.3   154  MET154      0.0692
     65  N         38.4500   28.7070    7.5550 N.am  155  PRO155     -0.2718
     66  CA        39.3760   29.5540    6.7930 C.3   155  PRO155      0.1535
     67  C         38.9760   31.0250    6.8970 C.2   155  PRO155      0.2598
     68  O         37.7970   31.3360    7.0480 O.2   155  PRO155     -0.2715
     69  CB        39.1890   29.0810    5.3440 C.3   155  PRO155      0.0310
     70  CG        38.4800   27.7830    5.4310 C.3   155  PRO155      0.0237
     71  CD        37.6450   27.8510    6.6680 C.3   155  PRO155      0.0939
     72  N         39.9590   31.9090    6.8610 N.am  156  ALA156     -0.1964
     73  CA        39.7170   33.3380    6.6680 C.3   156  ALA156      0.1728
     74  C         39.2670   34.1280    7.9010 C.2   156  ALA156      0.2616
     75  O         39.7430   35.2550    8.1060 O.2   156  ALA156     -0.2715
     76  CB        38.7640   33.5680    5.5080 C.3   156  ALA156      0.0334
     77  N         38.3780   33.5560    8.7120 N.am  157  TYR157     -0.1974
     78  CA        37.7480   34.3150    9.8040 C.3   157  TYR157      0.1639
     79  C         38.7610   34.4840   10.9310 C.2   157  TYR157      0.2290
     80  O         38.7710   35.4950   11.6110 O.2   157  TYR157     -0.2864
     81  CB        36.4420   33.6570   10.2760 C.3   157  TYR157      0.0560
     82  CG        35.4670   34.5820   11.0090 C.ar  157  TYR157     -0.0198
     83  CD1       35.0920   35.8200   10.4760 C.ar  157  TYR157     -0.0009
     84  CD2       34.9120   34.2000   12.2270 C.ar  157  TYR157     -0.0009
     85  CE1       34.1960   36.6650   11.1570 C.ar  157  TYR157      0.0417
     86  CE2       34.0180   35.0310   12.9220 C.ar  157  TYR157      0.0417
     87  CZ        33.6590   36.2520   12.3880 C.ar  157  TYR157      0.1957
     88  OH        32.7650   37.0520   13.0920 O.3   157  TYR157     -0.2866
     89  N         39.2400   36.9750   14.1220 N.3   160  MET160     -0.1245
     90  CA        37.8780   37.4270   14.3770 C.3   160  MET160      0.1570
     91  C         37.0580   36.3030   15.0130 C.2   160  MET160      0.2261
     92  O         36.1650   36.5590   15.7990 O.2   160  MET160     -0.2867
     93  CB        37.1870   37.9310   13.1140 C.3   160  MET160      0.0387
     94  CG        35.8450   38.5880   13.4160 C.3   160  MET160      0.0595
     95  SD        35.8940   40.0040   14.5460 S.3   160  MET160     -0.1393
     96  CE        35.6070   41.3220   13.4000 C.3   160  MET160      0.0692
     97  N         34.9560   36.4400   18.6430 N.3   164  LYS164     -0.1245
     98  CA        33.5510   36.0420   18.7970 C.3   164  LYS164      0.1561
     99  C         33.3620   35.0020   19.9090 C.2   164  LYS164      0.2260
    100  O         32.3420   34.9720   20.5790 O.2   164  LYS164     -0.2867
    101  CB        32.9850   35.5080   17.4750 C.3   164  LYS164      0.0271
    102  CG        32.8520   36.5600   16.3530 C.3   164  LYS164      0.0035
    103  CD        31.8260   37.6380   16.7240 C.3   164  LYS164      0.0206
    104  CE        31.5700   38.6060   15.5830 C.3   164  LYS164      0.1093
    105  NZ        30.8510   39.8490   16.0260 N.3   164  LYS164     -0.1314
    106  N         23.8530   34.3030    9.8790 N.3   191  GLY191     -0.1210
    107  CA        24.5010   33.7660    8.6910 C.3   191  GLY191      0.1940
    108  C         25.1750   34.9120    7.9400 C.2   191  GLY191      0.2454
    109  O         25.0530   36.0850    8.3220 O.2   191  GLY191     -0.2732
    110  N         25.9210   34.5910    6.8810 N.am  192  PRO192     -0.2717
    111  CA        26.6860   35.6220    6.1710 C.3   192  PRO192      0.1535
    112  C         25.8280   36.6220    5.3940 C.2   192  PRO192      0.2598
    113  O         24.8550   36.2410    4.7370 O.2   192  PRO192     -0.2715
    114  CB        27.5730   34.7980    5.2280 C.3   192  PRO192      0.0310
    115  CG        26.8480   33.5540    5.0300 C.3   192  PRO192      0.0237
    116  CD        26.1530   33.2520    6.3060 C.3   192  PRO192      0.0939
    117  N         26.1560   37.9000    5.5270 N.am  193  ILE193     -0.1978
    118  CA        25.3880   38.9580    4.8640 C.3   193  ILE193      0.1596
    119  C         26.3760   39.8770    4.1490 C.2   193  ILE193      0.2287
    120  O         27.4120   40.2410    4.7130 O.2   193  ILE193     -0.2864
    121  CB        24.4800   39.7550    5.8470 C.3   193  ILE193      0.0276
    122  CG1       23.4660   38.8350    6.5630 C.3   193  ILE193      0.0022
    123  CG2       23.7720   40.9430    5.1320 C.3   193  ILE193      0.0022
    124  CD1       22.3790   38.2490    5.6800 C.3   193  ILE193      0.0001
    125  N         28.0210   42.7480    3.3550 N.3   195  THR195     -0.1218
    126  CA        28.1190   43.8960    4.2170 C.3   195  THR195      0.1862
    127  C         29.5190   44.4750    3.9680 C.2   195  THR195      0.2287
    128  O         30.3640   43.7870    3.3790 O.2   195  THR195     -0.2866
    129  CB        27.8870   43.3920    5.6420 C.3   195  THR195      0.1770
    130  OG1       26.8820   44.1660    6.3220 O.3   195  THR195     -0.2211
    131  CG2       29.1620   43.2210    6.4090 C.3   195  THR195      0.0375
    132  N         31.8570   45.1360    6.1150 N.3   197  ALA197     -0.1231
    133  CA        32.8210   44.3880    6.9160 C.3   197  ALA197      0.1694
    134  C         33.1600   43.0180    6.3110 C.2   197  ALA197      0.2591
    135  O         34.2890   42.5440    6.4540 O.2   197  ALA197     -0.2718
    136  CB        32.3080   44.2330    8.3160 C.3   197  ALA197      0.0304
    137  N         32.1890   42.3720    5.6570 N.am  198  MET198     -0.1979
    138  CA        32.4550   41.1020    4.9590 C.3   198  MET198      0.1605
    139  C         33.5430   41.2400    3.8850 C.2   198  MET198      0.2287
    140  O         34.3240   40.3090    3.6800 O.2   198  MET198     -0.2864
    141  CB        31.1890   40.4990    4.3350 C.3   198  MET198      0.0413
    142  CG        31.4390   39.1250    3.6910 C.3   198  MET198      0.0598
    143  SD        30.0270   38.4530    2.7760 S.3   198  MET198     -0.1393
    144  CE        29.7720   39.8300    1.6610 C.3   198  MET198      0.0692
    145  N         36.1090   42.9270    4.1960 N.3   200  ALA200     -0.1231
    146  CA        37.3760   42.8710    4.9180 C.3   200  ALA200      0.1694
    147  C         37.8950   41.4410    5.0920 C.2   200  ALA200      0.2592
    148  O         39.0960   41.2440    5.2660 O.2   200  ALA200     -0.2718
    149  CB        37.2740   43.5820    6.2650 C.3   200  ALA200      0.0304
    150  N         37.0050   40.4510    5.0300 N.am  201  ILE201     -0.1966
    151  CA        37.4130   39.0530    5.1930 C.3   201  ILE201      0.1727
    152  C         37.9030   38.4320    3.8950 C.2   201  ILE201      0.2616
    153  O         38.9970   37.8770    3.8340 O.2   201  ILE201     -0.2715
    154  CB        36.2570   38.1610    5.7120 C.3   201  ILE201      0.0290
    155  CG1       35.5020   38.8460    6.8560 C.3   201  ILE201      0.0022
    156  CG2       36.7920   36.7760    6.1140 C.3   201  ILE201      0.0023
    157  CD1       34.3180   38.0730    7.3310 C.3   201  ILE201      0.0001
    158  N         37.0620   38.5310    2.8670 N.am  202  VAL202     -0.1977
    159  CA        37.2000   37.7730    1.6250 C.3   202  VAL202      0.1596
    160  C         38.0890   38.5060    0.6090 C.2   202  VAL202      0.2287
    161  O         38.2510   39.7220    0.6830 O.2   202  VAL202     -0.2864
    162  CB        35.7870   37.4580    1.0370 C.3   202  VAL202      0.0276
    163  CG1       35.8870   36.6950   -0.2450 C.3   202  VAL202      0.0022
    164  CG2       34.9570   36.6510    2.0350 C.3   202  VAL202      0.0022
    165  N         30.5280   30.7460   -0.8560 N.3   214  LEU214     -0.1245
    166  CA        29.9830   30.9730    0.4760 C.3   214  LEU214      0.1561
    167  C         28.4590   30.8790    0.4340 C.2   214  LEU214      0.2260
    168  O         27.8610   30.0610    1.1270 O.2   214  LEU214     -0.2867
    169  CB        30.4120   32.3350    1.0140 C.3   214  LEU214      0.0270
    170  CG        29.9600   32.7110    2.4290 C.3   214  LEU214      0.0019
    171  CD1       30.3650   31.6700    3.4590 C.3   214  LEU214      0.0001
    172  CD2       30.5400   34.0670    2.7730 C.3   214  LEU214      0.0001
@<TRIPOS>BOND
     1   165   166    1
     2   163   162    1
     3   167   166    1
     4   167   168    2
     5   166   169    1
     6   160   161    2
     7   160   159    1
     8   169   170    1
     9   162   159    1
    10   162   164    1
    11   159   158    1
    12   144   143    1
    13   170   172    1
    14   170   171    1
    15   143   142    1
    16   158   152   am
    17   125   126    1
    18   128   127    2
    19   140   139    2
    20   142   141    1
    21   153   152    2
    22   139   138    1
    23   152   151    1
    24   127   126    1
    25   119   120    2
    26   119   118    1
    27   145   146    1
    28   126   129    1
    29   141   138    1
    30   113   112    2
    31   118   117    1
    32   118   121    1
    33   146   147    1
    34   146   149    1
    35   138   137    1
    36   115   114    1
    37   115   116    1
    38   150   147   am
    39   150   151    1
    40   147   148    2
    41   123   121    1
    42   151   154    1
    43   114   111    1
    44    69    70    1
    45    69    66    1
    46   112   117   am
    47   112   111    1
    48    70    71    1
    49    76    73    1
    50   129   130    1
    51   129   131    1
    52   137   134   am
    53   124   122    1
    54   154   156    1
    55   154   155    1
    56   121   122    1
    57   132   133    1
    58   111   110    1
    59   116   110    1
    60   134   135    2
    61   134   133    1
    62    73    72    1
    63    73    74    1
    64    71    65    1
    65    66    67    1
    66    66    65    1
    67   155   157    1
    68    72    67   am
    69   110   108   am
    70    67    68    2
    71   133   136    1
    72    41    40    2
    73    65    59   am
    74    40    39    1
    75    74    75    2
    76    74    77   am
    77   108   109    2
    78   108   107    1
    79    64    63    1
    80    43    42    1
    81    43    44    1
    82   107   106    1
    83    77    78    1
    84    42    39    1
    85    59    60    2
    86    59    58    1
    87    39    38    1
    88    45    44    1
    89    56    54   ar
    90    56    55   ar
    91    61    58    1
    92    61    62    1
    93    54    52   ar
    94    58    57    1
    95    78    81    1
    96    78    79    1
    97    62    63    1
    98    55    53   ar
    99    81    82    1
   100    83    82   ar
   101    83    85   ar
   102    52    51   ar
   103    79    80    2
   104    33    32    2
   105    82    84   ar
   106    27    29   ar
   107    27    25   ar
   108    85    87   ar
   109    53    51   ar
   110    51    50    1
   111    29    28   ar
   112    25    24   ar
   113    32    31    1
   114    84    86   ar
   115    87    86   ar
   116    87    88    1
   117    50    47    1
   118    28    26   ar
   119    30    31    1
   120    30    21   am
   121    93    94    1
   122    93    90    1
   123    34    31    1
   124    34    35    1
   125    24    26   ar
   126    24    23    1
   127    18    17    2
   128    96    95    1
   129    94    95    1
   130    35    36    1
   131    20    23    1
   132    20    21    1
   133    20    19    1
   134     6     5    1
   135    47    48    1
   136    47    46    1
   137    89    90    1
   138    21    22    2
   139    17    19   am
   140    17    16    1
   141    90    91    1
   142     4     3    2
   143    48    49    2
   144    37    36    1
   145    91    92    2
   146     5     2    1
   147    16    15    1
   148    15     9   am
   149     3     2    1
   150     3     7   am
   151   104   105    1
   152   104   103    1
   153     2     1    1
   154     8     9    1
   155     8     7    1
   156     8    11    1
   157     9    10    2
   158   102   103    1
   159   102   101    1
   160    11    13    1
   161    11    12    1
   162   101    98    1
   163    12    14    1
   164    97    98    1
   165    98    99    1
   166    99   100    2
