@<TRIPOS>MOLECULE
tmp/3fnhA01.pdb
 191 185 0 0 0
SMALL
GASTEIGER

@<TRIPOS>ATOM
      1  N        -20.6450  -45.4680   -3.1450 N.3    93  SER93      -0.1202
      2  CA       -21.1350  -45.3510   -4.4920 C.3    93  SER93       0.2020
      3  C        -20.6440  -46.5400   -5.2850 C.2    93  SER93       0.2619
      4  O        -20.4620  -46.4850   -6.4540 O.2    93  SER93      -0.2717
      5  CB       -20.6900  -44.0570   -5.1180 C.3    93  SER93       0.2103
      6  OG       -20.8010  -44.2360   -6.4980 O.3    93  SER93      -0.2182
      7  N        -20.4370  -47.6430   -4.5980 N.am   94  ILE94      -0.1965
      8  CA       -20.1970  -48.8850   -5.2510 C.3    94  ILE94       0.1727
      9  C        -21.5460  -49.5920   -5.4870 C.2    94  ILE94       0.2617
     10  O        -22.5930  -49.0620   -5.1210 O.2    94  ILE94      -0.2715
     11  CB       -19.2200  -49.7810   -4.4430 C.3    94  ILE94       0.0290
     12  CG1      -19.9930  -50.8450   -3.7110 C.3    94  ILE94       0.0022
     13  CG2      -18.3180  -49.0000   -3.5000 C.3    94  ILE94       0.0023
     14  CD1      -19.3570  -52.1900   -3.9250 C.3    94  ILE94       0.0001
     15  N        -21.5000  -50.7800   -6.1060 N.am   95  GLY95      -0.1940
     16  CA       -22.6730  -51.5590   -6.4990 C.3    95  GLY95       0.2014
     17  C        -22.3030  -52.4650   -7.6490 C.2    95  GLY95       0.2639
     18  O        -21.5420  -52.0700   -8.5180 O.2    95  GLY95      -0.2714
     19  N        -22.8580  -53.6790   -7.6590 N.am   96  PHE96      -0.1959
     20  CA       -22.4810  -54.6840   -8.6450 C.3    96  PHE96       0.1771
     21  C        -23.4360  -55.9000   -8.7030 C.2    96  PHE96       0.2619
     22  O        -23.9060  -56.3890   -7.6670 O.2    96  PHE96      -0.2715
     23  CB       -21.0270  -55.1460   -8.4080 C.3    96  PHE96       0.0574
     24  CG       -20.6550  -56.3640   -9.2140 C.ar   96  PHE96      -0.0200
     25  CD1      -20.1630  -56.2320  -10.5220 C.ar   96  PHE96      -0.0042
     26  CD2      -20.8830  -57.6540   -8.7010 C.ar   96  PHE96      -0.0042
     27  CE1      -19.8970  -57.3740  -11.2810 C.ar   96  PHE96      -0.0003
     28  CE2      -20.6330  -58.7980   -9.4560 C.ar   96  PHE96      -0.0003
     29  CZ       -20.1420  -58.6630  -10.7370 C.ar   96  PHE96      -0.0000
     30  N        -23.6920  -56.4080   -9.9130 N.am   97  MET97      -0.1977
     31  CA       -24.4770  -57.6310  -10.1180 C.3    97  MET97       0.1605
     32  C        -23.9750  -58.5060  -11.2870 C.2    97  MET97       0.2287
     33  O        -23.9270  -58.0400  -12.4480 O.2    97  MET97      -0.2864
     34  CB       -25.9470  -57.2980  -10.3750 C.3    97  MET97       0.0413
     35  CG       -26.8290  -58.5160  -10.4100 C.3    97  MET97       0.0598
     36  SD       -27.1290  -58.8770   -8.6760 S.3    97  MET97      -0.1393
     37  CE       -27.6260  -60.5820   -8.7160 C.3    97  MET97       0.0692
     38  N        -29.6060  -59.9840  -14.5000 N.3   102  MET102     -0.1245
     39  CA       -29.9540  -58.7170  -15.0710 C.3   102  MET102      0.1570
     40  C        -30.1950  -58.7750  -16.5460 C.2   102  MET102      0.2261
     41  O        -30.2050  -59.8530  -17.1060 O.2   102  MET102     -0.2867
     42  CB       -28.8480  -57.7400  -14.7840 C.3   102  MET102      0.0387
     43  CG       -28.8300  -57.3110  -13.3630 C.3   102  MET102      0.0595
     44  SD       -27.9580  -55.8290  -13.5830 S.3   102  MET102     -0.1393
     45  CE       -29.3210  -54.6510  -13.5110 C.3   102  MET102      0.0692
     46  N        -31.3730  -46.3080   -6.7050 N.3   148  PHE148     -0.1241
     47  CA       -32.2210  -46.3040   -7.9150 C.3   148  PHE148      0.1605
     48  C        -33.5770  -46.8680   -7.4980 C.2   148  PHE148      0.2264
     49  O        -33.6890  -48.0510   -7.1700 O.2   148  PHE148     -0.2867
     50  CB       -31.6420  -47.1420   -9.0680 C.3   148  PHE148      0.0534
     51  CG       -32.3460  -46.8960  -10.3760 C.ar  148  PHE148     -0.0203
     52  CD1      -32.2780  -45.6350  -11.0010 C.ar  148  PHE148     -0.0042
     53  CD2      -33.1110  -47.8850  -10.9770 C.ar  148  PHE148     -0.0042
     54  CE1      -32.9520  -45.3660  -12.1710 C.ar  148  PHE148     -0.0003
     55  CE2      -33.7950  -47.6010  -12.1970 C.ar  148  PHE148     -0.0003
     56  CZ       -33.7100  -46.3440  -12.7630 C.ar  148  PHE148     -0.0000
     57  N        -38.4470  -53.4610  -16.1060 N.3   155  PRO155     -0.2102
     58  CA       -37.7350  -54.4840  -16.9110 C.3   155  PRO155      0.1504
     59  C        -36.2090  -54.3390  -16.8340 C.2   155  PRO155      0.2576
     60  O        -35.6970  -53.2200  -16.7170 O.2   155  PRO155     -0.2718
     61  CB       -38.2000  -54.1780  -18.3350 C.3   155  PRO155      0.0282
     62  CG       -38.4290  -52.6320  -18.2830 C.3   155  PRO155      0.0208
     63  CD       -38.9740  -52.3470  -16.9190 C.3   155  PRO155      0.0893
     64  N        -35.5040  -55.4670  -16.9470 N.am  156  ALA156     -0.1966
     65  CA       -34.0140  -55.5200  -17.0350 C.3   156  ALA156      0.1728
     66  C        -33.3500  -55.3880  -15.6800 C.2   156  ALA156      0.2616
     67  O        -32.5070  -56.2030  -15.3310 O.2   156  ALA156     -0.2715
     68  CB       -33.4510  -54.4920  -17.9930 C.3   156  ALA156      0.0334
     69  N        -33.7270  -54.3770  -14.9110 N.am  157  TYR157     -0.1974
     70  CA       -33.0120  -54.1100  -13.6530 C.3   157  TYR157      0.1639
     71  C        -33.0490  -55.3510  -12.7730 C.2   157  TYR157      0.2290
     72  O        -32.1710  -55.5360  -11.9770 O.2   157  TYR157     -0.2864
     73  CB       -33.5670  -52.8600  -12.9250 C.3   157  TYR157      0.0560
     74  CG       -32.6230  -52.1780  -11.9740 C.ar  157  TYR157     -0.0198
     75  CD1      -33.0130  -51.8980  -10.6630 C.ar  157  TYR157     -0.0009
     76  CD2      -31.3420  -51.7800  -12.3710 C.ar  157  TYR157     -0.0009
     77  CE1      -32.1620  -51.2440   -9.7640 C.ar  157  TYR157      0.0417
     78  CE2      -30.4730  -51.1090  -11.4720 C.ar  157  TYR157      0.0417
     79  CZ       -30.9110  -50.8550  -10.1800 C.ar  157  TYR157      0.1957
     80  OH       -30.0990  -50.2140   -9.2900 O.3   157  TYR157     -0.2866
     81  N        -30.9860  -56.3440   -9.3460 N.3   160  MET160     -0.1245
     82  CA       -30.3510  -55.1720   -8.7650 C.3   160  MET160      0.1570
     83  C        -31.4520  -54.4300   -8.0320 C.2   160  MET160      0.2261
     84  O        -31.2190  -53.7840   -6.9710 O.2   160  MET160     -0.2867
     85  CB       -29.7340  -54.3070   -9.8380 C.3   160  MET160      0.0387
     86  CG       -28.8610  -53.2900   -9.2930 C.3   160  MET160      0.0595
     87  SD       -27.3860  -53.8890   -8.4110 S.3   160  MET160     -0.1393
     88  CE       -26.5720  -52.3020   -8.0710 C.3   160  MET160      0.0692
     89  N        -31.1910  -53.0180   -4.4680 N.3   164  LYS164     -0.1245
     90  CA       -31.4680  -51.6530   -4.0150 C.3   164  LYS164      0.1561
     91  C        -32.5680  -51.6180   -2.9360 C.2   164  LYS164      0.2260
     92  O        -32.5190  -50.7040   -2.0940 O.2   164  LYS164     -0.2867
     93  CB       -31.8310  -50.7000   -5.1280 C.3   164  LYS164      0.0271
     94  CG       -30.7160  -50.5110   -6.0830 C.3   164  LYS164      0.0035
     95  CD       -29.4910  -49.9580   -5.4220 C.3   164  LYS164      0.0206
     96  CE       -28.6120  -49.3530   -6.4920 C.3   164  LYS164      0.1093
     97  NZ       -27.2560  -49.0870   -6.0070 N.3   164  LYS164     -0.1314
     98  N        -31.4410  -42.3230  -14.2730 N.3   192  PRO192     -0.2102
     99  CA       -30.3740  -43.0260  -14.9820 C.3   192  PRO192      0.1504
    100  C        -29.2680  -42.1240  -15.5860 C.2   192  PRO192      0.2575
    101  O        -29.5570  -41.0830  -16.1970 O.2   192  PRO192     -0.2718
    102  CB       -31.1370  -43.7290  -16.1140 C.3   192  PRO192      0.0282
    103  CG       -32.2170  -42.8310  -16.3900 C.3   192  PRO192      0.0208
    104  CD       -32.7060  -42.4680  -14.9920 C.3   192  PRO192      0.0893
    105  N        -28.0180  -42.5670  -15.4150 N.am  193  ILE193     -0.1980
    106  CA       -26.8290  -41.8850  -15.8930 C.3   193  ILE193      0.1595
    107  C        -26.0100  -42.8080  -16.7770 C.2   193  ILE193      0.2287
    108  O        -25.8910  -44.0240  -16.5090 O.2   193  ILE193     -0.2864
    109  CB       -25.9660  -41.4560  -14.7140 C.3   193  ILE193      0.0276
    110  CG1      -26.6780  -40.3450  -13.9350 C.3   193  ILE193      0.0022
    111  CG2      -24.4650  -41.0130  -15.1760 C.3   193  ILE193      0.0022
    112  CD1      -27.1960  -39.1780  -14.7940 C.3   193  ILE193      0.0001
    113  N        -22.9670  -44.5030  -17.9010 N.3   195  THR195     -0.1218
    114  CA       -21.9590  -44.8980  -16.9410 C.3   195  THR195      0.1862
    115  C        -21.3340  -46.2420  -17.3960 C.2   195  THR195      0.2287
    116  O        -21.9610  -47.0080  -18.1350 O.2   195  THR195     -0.2866
    117  CB       -22.7290  -45.0920  -15.6030 C.3   195  THR195      0.1770
    118  OG1      -22.6020  -43.9320  -14.7620 O.3   195  THR195     -0.2211
    119  CG2      -22.3470  -46.3690  -14.8400 C.3   195  THR195      0.0375
    120  N        -21.3160  -48.8220  -15.7060 N.3   197  ALA197     -0.1231
    121  CA       -22.2280  -49.8360  -15.2200 C.3   197  ALA197      0.1694
    122  C        -23.5020  -49.8740  -16.0690 C.2   197  ALA197      0.2591
    123  O        -23.9790  -50.9370  -16.4470 O.2   197  ALA197     -0.2718
    124  CB       -22.5190  -49.5950  -13.7900 C.3   197  ALA197      0.0304
    125  N        -24.0150  -48.7050  -16.4030 N.am  198  MET198     -0.1979
    126  CA       -25.1720  -48.6010  -17.2480 C.3   198  MET198      0.1605
    127  C        -24.9930  -49.2960  -18.5880 C.2   198  MET198      0.2287
    128  O        -25.9700  -49.7940  -19.1750 O.2   198  MET198     -0.2864
    129  CB       -25.5000  -47.1390  -17.5150 C.3   198  MET198      0.0413
    130  CG       -26.2610  -46.9900  -18.8200 C.3   198  MET198      0.0598
    131  SD       -27.8190  -46.2020  -18.5260 S.3   198  MET198     -0.1393
    132  CE       -28.7640  -46.6660  -19.9810 C.3   198  MET198      0.0692
    133  N        -22.7050  -51.7990  -19.1560 N.3   200  ALA200     -0.1231
    134  CA       -22.5330  -53.2270  -18.9330 C.3   200  ALA200      0.1694
    135  C        -23.8700  -53.9490  -19.1330 C.2   200  ALA200      0.2592
    136  O        -23.9100  -55.0860  -19.6260 O.2   200  ALA200     -0.2718
    137  CB       -21.9920  -53.4880  -17.5420 C.3   200  ALA200      0.0304
    138  N        -24.9630  -53.2910  -18.7590 N.am  201  ILE201     -0.1966
    139  CA       -26.2790  -53.9040  -18.8570 C.3   201  ILE201      0.1727
    140  C        -26.8180  -53.6810  -20.2500 C.2   201  ILE201      0.2616
    141  O        -27.1840  -54.6350  -20.9530 O.2   201  ILE201     -0.2715
    142  CB       -27.2610  -53.2740  -17.8590 C.3   201  ILE201      0.0290
    143  CG1      -26.5750  -53.0820  -16.5050 C.3   201  ILE201      0.0022
    144  CG2      -28.5680  -54.0840  -17.7900 C.3   201  ILE201      0.0023
    145  CD1      -25.5330  -54.1960  -16.1600 C.3   201  ILE201      0.0001
    146  N        -26.8640  -52.4020  -20.6250 N.am  202  VAL202     -0.1977
    147  CA       -27.3860  -51.9690  -21.9170 C.3   202  VAL202      0.1596
    148  C        -26.5930  -52.6340  -23.0740 C.2   202  VAL202      0.2287
    149  O        -27.1200  -52.8280  -24.1730 O.2   202  VAL202     -0.2864
    150  CB       -27.4520  -50.3830  -22.0100 C.3   202  VAL202      0.0276
    151  CG1      -26.3110  -49.7940  -22.8640 C.3   202  VAL202      0.0022
    152  CG2      -28.8250  -49.8950  -22.5170 C.3   202  VAL202      0.0022
    153  N        -35.8930  -51.2040  -22.1400 N.3   214  ILE214     -0.1245
    154  CA       -35.0200  -50.2820  -21.3960 C.3   214  ILE214      0.1561
    155  C        -34.7890  -48.9330  -22.1080 C.2   214  ILE214      0.2260
    156  O        -34.6410  -47.8890  -21.4590 O.2   214  ILE214     -0.2867
    157  CB       -33.6760  -50.9650  -21.1970 C.3   214  ILE214      0.0252
    158  CG1      -33.9100  -52.3850  -20.6800 C.3   214  ILE214      0.0019
    159  CG2      -32.8120  -50.1890  -20.2700 C.3   214  ILE214      0.0019
    160  CD1      -32.8150  -53.3970  -21.1200 C.3   214  ILE214      0.0001
    161  N        -38.0480  -47.1480  -21.1430 N.3   217  LEU217     -0.1231
    162  CA       -37.6980  -46.7930  -19.7820 C.3   217  LEU217      0.1693
    163  C        -36.8600  -45.5120  -19.7630 C.2   217  LEU217      0.2591
    164  O        -37.3370  -44.4920  -19.2530 O.2   217  LEU217     -0.2718
    165  CB       -36.9820  -47.9490  -19.0630 C.3   217  LEU217      0.0284
    166  CG       -37.7060  -48.5610  -17.8530 C.3   217  LEU217      0.0019
    167  CD1      -36.7390  -49.2360  -16.8670 C.3   217  LEU217      0.0001
    168  CD2      -38.5400  -47.4770  -17.1360 C.3   217  LEU217      0.0001
    169  N        -35.6460  -45.5560  -20.3250 N.am  218  GLU218     -0.1979
    170  CA       -34.8490  -44.3560  -20.4940 C.3   218  GLU218      0.1602
    171  C        -35.6970  -43.1390  -20.8640 C.2   218  GLU218      0.2287
    172  O        -35.8840  -42.2890  -20.0220 O.2   218  GLU218     -0.2864
    173  CB       -33.7510  -44.5610  -21.5310 C.3   218  GLU218      0.0415
    174  CG       -32.5610  -45.4270  -21.0710 C.3   218  GLU218      0.1163
    175  CD       -31.5320  -45.7050  -22.2110 C.2   218  GLU218      0.3649
    176  OE1      -31.9570  -46.1710  -23.3200 O.co2 218  GLU218     -0.2457
    177  OE2      -30.3060  -45.4770  -21.9780 O.co2 218  GLU218     -0.2457
    178  N        -37.9590  -41.3740  -18.2600 N.3   221  TRP221     -0.1241
    179  CA       -37.4960  -40.2970  -17.3470 C.3   221  TRP221      0.1605
    180  C        -37.6510  -38.8570  -17.8960 C.2   221  TRP221      0.2264
    181  O        -38.3300  -38.0140  -17.3070 O.2   221  TRP221     -0.2867
    182  CB       -36.0550  -40.5330  -16.8720 C.3   221  TRP221      0.0550
    183  CG       -36.0350  -41.1960  -15.5560 C.ar  221  TRP221      0.0003
    184  CD1      -35.9590  -40.5880  -14.3220 C.ar  221  TRP221      0.0946
    185  CD2      -36.1570  -42.6010  -15.3070 C.ar  221  TRP221      0.0152
    186  NE1      -36.0220  -41.5390  -13.3300 N.ar  221  TRP221     -0.2442
    187  CE2      -36.1470  -42.7790  -13.8980 C.ar  221  TRP221      0.0810
    188  CE3      -36.2590  -43.7270  -16.1320 C.ar  221  TRP221      0.0012
    189  CZ2      -36.2210  -44.0460  -13.2930 C.ar  221  TRP221      0.0191
    190  CZ3      -36.3340  -44.9990  -15.5210 C.ar  221  TRP221      0.0001
    191  CH2      -36.3150  -45.1420  -14.1100 C.ar  221  TRP221      0.0015
@<TRIPOS>BOND
     1   149   148    2
     2   176   175   ar
     3   148   147    1
     4   151   150    1
     5   152   150    1
     6   175   177   ar
     7   175   174    1
     8   153   154    1
     9   155   156    2
    10   155   154    1
    11   150   147    1
    12   147   146    1
    13   173   174    1
    14   173   170    1
    15   154   157    1
    16   157   158    1
    17   157   159    1
    18   161   162    1
    19   160   158    1
    20   141   140    2
    21   171   170    1
    22   171   172    2
    23   146   140   am
    24   170   169    1
    25   169   163   am
    26   140   139    1
    27   132   131    1
    28   162   163    1
    29   162   165    1
    30   163   164    2
    31   136   135    2
    32   128   127    2
    33   133   134    1
    34   135   134    1
    35   135   138   am
    36   165   166    1
    37   134   137    1
    38   139   138    1
    39   139   142    1
    40   130   131    1
    41   130   129    1
    42   127   126    1
    43    61    62    1
    44    61    58    1
    45    62    63    1
    46   178   179    1
    47   116   115    2
    48    68    65    1
    49   113   114    1
    50   180   179    1
    51   180   181    2
    52   142   144    1
    53   142   143    1
    54   166   168    1
    55   166   167    1
    56   129   126    1
    57   115   114    1
    58   179   182    1
    59   126   125    1
    60    41    40    2
    61    65    64    1
    62    65    66    1
    63    64    59   am
    64   114   117    1
    65    63    57    1
    66    58    59    1
    67    58    57    1
    68   182   183    1
    69    59    60    2
    70   107   108    2
    71   107   106    1
    72    40    39    1
    73   143   145    1
    74   123   122    2
    75   125   122   am
    76   103   102    1
    77   103   104    1
    78   101   100    2
    79   188   190   ar
    80   188   185   ar
    81   102    99    1
    82   122   121    1
    83   106   105    1
    84   106   109    1
    85   120   121    1
    86    66    67    2
    87    66    69   am
    88   117   119    1
    89   117   118    1
    90   100   105   am
    91   100    99    1
    92   183   185   ar
    93   183   184   ar
    94   190   191   ar
    95   185   187   ar
    96   121   124    1
    97   111   109    1
    98    39    42    1
    99    39    38    1
   100   104    98    1
   101    99    98    1
   102    69    70    1
   103   112   110    1
   104    42    43    1
   105   109   110    1
   106   184   186   ar
   107   191   189   ar
   108   187   186   ar
   109   187   189   ar
   110    70    73    1
   111    70    71    1
   112    44    45    1
   113    44    43    1
   114    73    74    1
   115    71    72    2
   116    56    55   ar
   117    56    54   ar
   118    33    32    2
   119    76    74   ar
   120    76    78   ar
   121    55    53   ar
   122    54    52   ar
   123    74    75   ar
   124    78    79   ar
   125    32    31    1
   126    27    29   ar
   127    27    25   ar
   128    52    51   ar
   129    53    51   ar
   130    29    28   ar
   131    75    77   ar
   132    25    24   ar
   133    35    34    1
   134    35    36    1
   135    51    50    1
   136    34    31    1
   137    79    77   ar
   138    79    80    1
   139    31    30    1
   140    30    21   am
   141    85    86    1
   142    85    82    1
   143    28    26   ar
   144    81    82    1
   145    86    87    1
   146    24    26   ar
   147    24    23    1
   148    50    47    1
   149    82    83    1
   150    37    36    1
   151    21    20    1
   152    21    22    2
   153    20    23    1
   154    20    19    1
   155    18    17    2
   156    87    88    1
   157    83    84    2
   158    47    48    1
   159    47    46    1
   160    19    17   am
   161    17    16    1
   162    48    49    2
   163    16    15    1
   164     6     5    1
   165    96    97    1
   166    96    95    1
   167     4     3    2
   168    15     9   am
   169    94    95    1
   170    94    93    1
   171     9     8    1
   172     9    10    2
   173     3     7   am
   174     3     2    1
   175     8     7    1
   176     8    11    1
   177    93    90    1
   178     5     2    1
   179     2     1    1
   180    89    90    1
   181    11    12    1
   182    11    13    1
   183    90    91    1
   184    14    12    1
   185    91    92    2
