@<TRIPOS>MOLECULE
tmp/3fnmD00.pdb
 112 104 0 0 0
SMALL
GASTEIGER

@<TRIPOS>ATOM
      1  N         34.5310   -3.7020  -10.2820 N.3     1  THR1       -0.1218
      2  CA        35.1760   -2.5660   -9.5310 C.3     1  THR1        0.1862
      3  C         35.8840   -3.0990   -8.2450 C.2     1  THR1        0.2287
      4  O         35.3900   -3.0300   -7.1000 O.2     1  THR1       -0.2866
      5  CB        34.1300   -1.4500   -9.3680 C.3     1  THR1        0.1770
      6  OG1       34.7680   -0.1450   -9.3630 O.3     1  THR1       -0.2211
      7  CG2       33.2340   -1.6890   -8.1880 C.3     1  THR1        0.0375
      8  N         43.5260   -3.5990  -11.3110 N.3    17  THR17      -0.1218
      9  CA        42.1780   -3.1250  -11.0110 C.3    17  THR17       0.1862
     10  C         41.3440   -3.4940  -12.1920 C.2    17  THR17       0.2287
     11  O         41.7560   -3.2730  -13.3400 O.2    17  THR17      -0.2866
     12  CB        42.0960   -1.5890  -10.7690 C.3    17  THR17       0.1770
     13  OG1       43.2110   -1.1860   -9.9600 O.3    17  THR17      -0.2211
     14  CG2       40.7970   -1.2140  -10.0520 C.3    17  THR17       0.0375
     15  N         36.9680   -4.6140  -13.5860 N.3    19  THR19      -0.1218
     16  CA        35.6250   -4.1340  -13.2580 C.3    19  THR19       0.1862
     17  C         34.5970   -4.4500  -14.3330 C.2    19  THR19       0.2287
     18  O         34.9580   -4.7050  -15.4900 O.2    19  THR19      -0.2866
     19  CB        35.6910   -2.5900  -13.0680 C.3    19  THR19       0.1770
     20  OG1       34.4680   -2.1080  -12.5070 O.3    19  THR19      -0.2211
     21  CG2       35.9780   -1.8940  -14.4480 C.3    19  THR19       0.0375
     22  N         32.1870   -2.1040  -14.0880 N.3    21  ASN21      -0.1240
     23  CA        31.8120   -0.7100  -13.8120 C.3    21  ASN21       0.1653
     24  C         30.9060   -0.5800  -12.6130 C.2    21  ASN21       0.2266
     25  O         31.3830   -0.6630  -11.5070 O.2    21  ASN21      -0.2867
     26  CB        31.3510    0.1000  -15.0710 C.3    21  ASN21       0.1155
     27  CG        31.0670    1.5690  -14.7230 C.2    21  ASN21       0.2627
     28  OD1       31.6010    2.1070  -13.7480 O.2    21  ASN21      -0.2716
     29  ND2       30.2080    2.2000  -15.5040 N.am   21  ASN21      -0.0877
     30  N         30.4010   -0.3840  -18.9960 N.3    40  GLU40      -0.1245
     31  CA        31.5500    0.4960  -19.1350 C.3    40  GLU40       0.1567
     32  C         31.3140    1.6450  -20.1190 C.2    40  GLU40       0.2260
     33  O         32.0570    2.6340  -20.1320 O.2    40  GLU40      -0.2867
     34  CB        32.7940   -0.3030  -19.5250 C.3    40  GLU40       0.0388
     35  CG        34.0060    0.1320  -18.7810 C.3    40  GLU40       0.1160
     36  CD        34.0310   -0.4120  -17.3670 C.2    40  GLU40       0.3649
     37  OE1       33.9260   -1.6540  -17.1450 O.co2  40  GLU40      -0.2457
     38  OE2       34.1700    0.4160  -16.4490 O.co2  40  GLU40      -0.2457
     39  N         31.3070    5.2180  -18.9720 N.3    43  ASP43      -0.1239
     40  CA        32.5680    5.9180  -18.6670 C.3    43  ASP43       0.1674
     41  C         33.0050    6.8530  -19.8080 C.2    43  ASP43       0.2266
     42  O         33.9580    7.6360  -19.6330 O.2    43  ASP43      -0.2867
     43  CB        33.6830    4.9230  -18.3450 C.3    43  ASP43       0.1410
     44  CG        33.6870    4.4950  -16.8510 C.2    43  ASP43       0.3668
     45  OD1       32.8500    4.9900  -16.0870 O.co2  43  ASP43      -0.2456
     46  OD2       34.5520    3.7060  -16.4700 O.co2  43  ASP43      -0.2456
     47  N         29.6320    8.7500  -11.7910 N.3    54  TYR54      -0.1241
     48  CA        30.5620    9.2920  -10.7850 C.3    54  TYR54       0.1605
     49  C         30.6290   10.7990  -10.7950 C.2    54  TYR54       0.2264
     50  O         31.4980   11.3760  -10.1270 O.2    54  TYR54      -0.2867
     51  CB        31.9690    8.7010  -10.9270 C.3    54  TYR54       0.0534
     52  CG        31.9110    7.2040  -10.9740 C.ar   54  TYR54      -0.0201
     53  CD1       31.6080    6.4620   -9.8360 C.ar   54  TYR54      -0.0009
     54  CD2       32.0750    6.5290  -12.1620 C.ar   54  TYR54      -0.0009
     55  CE1       31.5010    5.0440   -9.9150 C.ar   54  TYR54       0.0417
     56  CE2       31.9710    5.1480  -12.2420 C.ar   54  TYR54       0.0417
     57  CZ        31.6820    4.4170  -11.1240 C.ar   54  TYR54       0.1957
     58  OH        31.5550    3.0420  -11.1980 O.3    54  TYR54      -0.2866
     59  N         39.0960    5.7380  -18.0320 N.3    72  SER72      -0.1202
     60  CA        38.9510    5.1680  -16.6880 C.3    72  SER72       0.2020
     61  C         39.5900    6.0820  -15.6310 C.2    72  SER72       0.2619
     62  O         40.3760    6.9870  -15.9850 O.2    72  SER72      -0.2717
     63  CB        39.5970    3.7680  -16.6680 C.3    72  SER72       0.2103
     64  OG        39.4880    3.1950  -15.3540 O.3    72  SER72      -0.2182
     65  N         39.2550    5.8540  -14.3570 N.am   73  SER73      -0.1937
     66  CA        40.0260    6.4680  -13.2870 C.3    73  SER73       0.2055
     67  C         40.8480    5.4130  -12.5740 C.2    73  SER73       0.2642
     68  O         41.4870    5.7340  -11.5740 O.2    73  SER73      -0.2714
     69  CB        39.1040    7.1280  -12.2620 C.3    73  SER73       0.2130
     70  OG        38.2330    8.0570  -12.9310 O.3    73  SER73      -0.2179
     71  N         40.7890    4.1520  -13.0180 N.am   74  MET74      -0.1976
     72  CA        41.4960    3.0970  -12.2690 C.3    74  MET74       0.1605
     73  C         43.0070    3.3650  -12.1890 C.2    74  MET74       0.2287
     74  O         43.6330    3.7570  -13.1940 O.2    74  MET74      -0.2864
     75  CB        41.2100    1.7350  -12.8850 C.3    74  MET74       0.0413
     76  CG        39.7810    1.2890  -12.5530 C.3    74  MET74       0.0598
     77  SD        39.2640   -0.3900  -13.0700 S.3    74  MET74      -0.1393
     78  CE        39.1820   -0.2480  -14.8730 C.3    74  MET74       0.0692
     79  N         39.0050    0.3190   -5.9040 N.3    92  PRO92      -0.2102
     80  CA        37.8380    0.7400   -6.6750 C.3    92  PRO92       0.1504
     81  C         37.3020    2.0680   -6.1740 C.2    92  PRO92       0.2576
     82  O         37.8580    2.6260   -5.1960 O.2    92  PRO92      -0.2718
     83  CB        36.8140   -0.3650   -6.3940 C.3    92  PRO92       0.0282
     84  CG        37.0920   -0.6920   -4.9490 C.3    92  PRO92       0.0208
     85  CD        38.6420   -0.6520   -4.8410 C.3    92  PRO92       0.0893
     86  N         36.2550    2.5570   -6.8680 N.am   93  GLY93      -0.1943
     87  CA        35.4970    3.7450   -6.4660 C.3    93  GLY93       0.2014
     88  C         35.3190    4.7980   -7.5470 C.2    93  GLY93       0.2639
     89  O         35.0650    5.9650   -7.2350 O.2    93  GLY93      -0.2714
     90  N         35.4290    4.4020   -8.8130 N.am   94  GLY94      -0.1954
     91  CA        35.3390    5.3550   -9.9340 C.3    94  GLY94       0.1869
     92  C         36.1540    6.6190   -9.7490 C.2    94  GLY94       0.2309
     93  O         37.3510    6.5460   -9.5820 O.2    94  GLY94      -0.2863
     94  N         38.8650    6.8540   -7.0010 N.3    97  ILE97      -0.1245
     95  CA        40.0350    5.9750   -6.9440 C.3    97  ILE97       0.1561
     96  C         41.3070    6.7970   -6.8410 C.2    97  ILE97       0.2260
     97  O         42.2020    6.4800   -6.0750 O.2    97  ILE97      -0.2867
     98  CB        40.0930    5.1060   -8.2350 C.3    97  ILE97       0.0252
     99  CG1       38.9890    4.0510   -8.1820 C.3    97  ILE97       0.0019
    100  CG2       41.4990    4.4750   -8.4100 C.3    97  ILE97       0.0019
    101  CD1       38.8670    3.2600   -9.5110 C.3    97  ILE97       0.0001
    102  N         32.2570   -2.1980   -2.4260 N.3   188  PHE188     -0.1241
    103  CA        31.5530   -2.9770   -3.4630 C.3   188  PHE188      0.1605
    104  C         31.4620   -4.4710   -3.1710 C.2   188  PHE188      0.2264
    105  O         32.3140   -4.9940   -2.4230 O.2   188  PHE188     -0.2867
    106  CB        32.2110   -2.7290   -4.8310 C.3   188  PHE188      0.0534
    107  CG        32.2610   -1.2780   -5.2050 C.ar  188  PHE188     -0.0203
    108  CD1       31.1210   -0.6470   -5.7000 C.ar  188  PHE188     -0.0042
    109  CD2       33.4200   -0.5310   -5.0370 C.ar  188  PHE188     -0.0042
    110  CE1       31.1610    0.7110   -6.0330 C.ar  188  PHE188     -0.0003
    111  CE2       33.4570    0.8200   -5.3740 C.ar  188  PHE188     -0.0003
    112  CZ        32.3400    1.4350   -5.8530 C.ar  188  PHE188     -0.0000
@<TRIPOS>BOND
     1    33    32    2
     2    32    31    1
     3    41    42    2
     4    41    40    1
     5    34    31    1
     6    34    35    1
     7    31    30    1
     8    39    40    1
     9    35    36    1
    10    40    43    1
    11    43    44    1
    12    59    60    1
    13    36    37   ar
    14    36    38   ar
    15    44    46   ar
    16    44    45   ar
    17    60    63    1
    18    60    61    1
    19    63    64    1
    20    62    61    2
    21    61    65   am
    22    29    27   am
    23    18    17    2
    24    26    27    1
    25    26    23    1
    26    78    77    1
    27    27    28    2
    28    21    19    1
    29    65    66    1
    30    17    16    1
    31    22    23    1
    32    23    24    1
    33    15    16    1
    34    11    10    2
    35    66    67    1
    36    66    69    1
    37    16    19    1
    38    74    73    2
    39    77    76    1
    40    19    20    1
    41    71    67   am
    42    71    72    1
    43    70    69    1
    44    75    76    1
    45    75    72    1
    46    24    25    2
    47    67    68    2
    48    72    73    1
    49    56    54   ar
    50    56    57   ar
    51    10     9    1
    52    54    52   ar
    53    47    48    1
    54     8     9    1
    55    58    57    1
    56    57    55   ar
    57     9    12    1
    58    52    51    1
    59    52    53   ar
    60    51    48    1
    61    49    48    1
    62    49    50    2
    63    12    14    1
    64    12    13    1
    65     1     2    1
    66    91    92    1
    67    91    90    1
    68    55    53   ar
    69    92    93    2
    70     2     5    1
    71     2     3    1
    72   101    99    1
    73     5     6    1
    74     5     7    1
    75    90    88   am
    76   100    98    1
    77     3     4    2
    78    98    99    1
    79    98    95    1
    80    88    89    2
    81    88    87    1
    82    94    95    1
    83    95    96    1
    84    86    87    1
    85    86    81   am
    86    96    97    2
    87    80    83    1
    88    80    81    1
    89    80    79    1
    90    83    84    1
    91    81    82    2
    92   110   112   ar
    93   110   108   ar
    94    79    85    1
    95   112   111   ar
    96   108   107   ar
    97   111   109   ar
    98   107   109   ar
    99   107   106    1
   100    84    85    1
   101   106   103    1
   102   103   104    1
   103   103   102    1
   104   104   105    2
