@<TRIPOS>MOLECULE
tmp/3fnqC00.pdb
 89 84 0 0 0
SMALL
GASTEIGER

@<TRIPOS>ATOM
      1  N          7.1590  -31.2370    9.2910 N.3   115  ALA115     -0.1231
      2  CA         7.9540  -30.2670    8.5680 C.3   115  ALA115      0.1694
      3  C          8.5360  -29.3420    9.6120 C.2   115  ALA115      0.2592
      4  O          7.8830  -29.0420   10.6040 O.2   115  ALA115     -0.2718
      5  CB         7.0740  -29.4890    7.6040 C.3   115  ALA115      0.0304
      6  N          9.7670  -28.9030    9.4070 N.am  116  ALA116     -0.1966
      7  CA        10.3630  -27.9380   10.3150 C.3   116  ALA116      0.1728
      8  C         11.3000  -27.0230    9.5620 C.2   116  ALA116      0.2616
      9  O         11.7870  -27.3650    8.4810 O.2   116  ALA116     -0.2715
     10  CB        11.0970  -28.6520   11.4550 C.3   116  ALA116      0.0334
     11  N         11.5260  -25.8430   10.1280 N.am  117  GLY117     -0.1955
     12  CA        12.5050  -24.9210    9.5970 C.3   117  GLY117      0.1869
     13  C         13.8600  -25.2910   10.1550 C.2   117  GLY117      0.2309
     14  O         13.9920  -25.6430   11.3310 O.2   117  GLY117     -0.2863
     15  N          4.9840  -18.3650   11.0890 N.3   199  TYR199     -0.1227
     16  CA         6.3690  -18.7660   10.9930 C.3   199  TYR199      0.1736
     17  C          7.1370  -17.8820   11.9580 C.2   199  TYR199      0.2595
     18  O          6.6370  -16.8430   12.3910 O.2   199  TYR199     -0.2718
     19  CB         6.8780  -18.6170    9.5630 C.3   199  TYR199      0.0548
     20  CG         6.3310  -19.6890    8.6610 C.ar  199  TYR199     -0.0200
     21  CD1        5.4260  -19.3830    7.6580 C.ar  199  TYR199     -0.0009
     22  CD2        6.6910  -21.0180    8.8370 C.ar  199  TYR199     -0.0009
     23  CE1        4.9090  -20.3610    6.8430 C.ar  199  TYR199      0.0417
     24  CE2        6.1750  -22.0090    8.0250 C.ar  199  TYR199      0.0417
     25  CZ         5.2870  -21.6730    7.0300 C.ar  199  TYR199      0.1957
     26  OH         4.7720  -22.6530    6.2170 O.3   199  TYR199     -0.2866
     27  N          8.3400  -18.3030   12.3170 N.am  200  GLU200     -0.1979
     28  CA         9.1180  -17.5610   13.2880 C.3   200  GLU200      0.1602
     29  C          9.7370  -16.3600   12.6150 C.2   200  GLU200      0.2287
     30  O         10.1010  -16.4180   11.4460 O.2   200  GLU200     -0.2864
     31  CB        10.2040  -18.4500   13.8920 C.3   200  GLU200      0.0415
     32  CG         9.6350  -19.6860   14.5690 C.3   200  GLU200      0.1163
     33  CD         9.1160  -20.7100   13.5790 C.2   200  GLU200      0.3649
     34  OE1        9.6310  -20.7650   12.4410 O.co2 200  GLU200     -0.2457
     35  OE2        8.2030  -21.4700   13.9430 O.co2 200  GLU200     -0.2457
     36  N         12.7230  -26.0180   13.8710 N.3   216  VAL216     -0.1231
     37  CA        11.5640  -25.4490   14.5200 C.3   216  VAL216      0.1692
     38  C         10.3060  -25.8290   13.7600 C.2   216  VAL216      0.2593
     39  O         10.2450  -25.7230   12.5350 O.2   216  VAL216     -0.2718
     40  CB        11.6840  -23.9190   14.6620 C.3   216  VAL216      0.0266
     41  CG1       11.9120  -23.2660   13.3070 C.3   216  VAL216      0.0020
     42  CG2       10.4460  -23.3440   15.3550 C.3   216  VAL216      0.0020
     43  N          9.3140  -26.2960   14.4980 N.am  217  GLY217     -0.1942
     44  CA         8.0490  -26.6630   13.9080 C.3   217  GLY217      0.2014
     45  C          6.9410  -26.2620   14.8470 C.2   217  GLY217      0.2638
     46  O          7.2040  -25.7110   15.9110 O.2   217  GLY217     -0.2714
     47  N          5.7050  -26.5480   14.4600 N.am  218  MET218     -0.1976
     48  CA         4.5570  -26.1640   15.2700 C.3   218  MET218      0.1605
     49  C          3.7750  -27.3730   15.7280 C.2   218  MET218      0.2287
     50  O          2.6260  -27.2550   16.1630 O.2   218  MET218     -0.2864
     51  CB         3.6360  -25.2720   14.4540 C.3   218  MET218      0.0413
     52  CG         4.3680  -24.1250   13.7960 C.3   218  MET218      0.0598
     53  SD         3.2170  -23.2510   12.7470 S.3   218  MET218     -0.1393
     54  CE         4.3120  -22.1230   11.9050 C.3   218  MET218      0.0692
     55  N         12.0940  -28.3970    5.6110 N.3   241  THR241     -0.1203
     56  CA        11.3650  -27.9830    4.4230 C.3   241  THR241      0.1994
     57  C         11.7490  -26.5790    4.0120 C.2   241  THR241      0.2617
     58  O         11.3480  -26.0950    2.9600 O.2   241  THR241     -0.2717
     59  CB         9.8640  -28.0200    4.6860 C.3   241  THR241      0.1784
     60  OG1        9.5860  -27.2880    5.8850 O.3   241  THR241     -0.2211
     61  CG2        9.4050  -29.4520    4.8560 C.3   241  THR241      0.0376
     62  N         12.5320  -25.9260    4.8560 N.am  242  ASN242     -0.1974
     63  CA        12.9450  -24.5660    4.5950 C.3   242  ASN242      0.1688
     64  C         14.0340  -24.2190    5.5750 C.2   242  ASN242      0.2292
     65  O         14.0750  -24.7490    6.6900 O.2   242  ASN242     -0.2864
     66  CB        11.7620  -23.6020    4.7390 C.3   242  ASN242      0.1181
     67  CG        11.0820  -23.7090    6.0930 C.2   242  ASN242      0.2629
     68  OD1       10.4450  -24.7150    6.4070 O.2   242  ASN242     -0.2716
     69  ND2       11.2260  -22.6730    6.9080 N.am  242  ASN242     -0.0877
     70  N         15.5330  -21.7400    8.0760 N.3   244  SER244     -0.1217
     71  CA        15.0360  -20.6200    8.8530 C.3   244  SER244      0.1889
     72  C         15.7890  -19.3510    8.5010 C.2   244  SER244      0.2288
     73  O         17.0170  -19.3470    8.3780 O.2   244  SER244     -0.2866
     74  CB        15.1410  -20.9170   10.3470 C.3   244  SER244      0.2089
     75  OG        14.2570  -21.9690   10.6870 O.3   244  SER244     -0.2183
     76  N          9.5310  -17.7250    4.7150 N.3   254  PRO254     -0.2116
     77  CA         8.9550  -19.0650    4.8030 C.3   254  PRO254      0.1372
     78  C          7.5670  -19.0450    4.1790 C.2   254  PRO254      0.2244
     79  O          6.8770  -18.0310    4.2430 O.2   254  PRO254     -0.2868
     80  CB         8.8440  -19.3120    6.3160 C.3   254  PRO254      0.0268
     81  CG         9.6690  -18.2530    6.9610 C.3   254  PRO254      0.0207
     82  CD         9.6690  -17.0870    6.0320 C.3   254  PRO254      0.0892
     83  N          7.1110  -25.5280    1.8650 N.3   259  VAL259     -0.1245
     84  CA         7.0340  -26.5520    2.8920 C.3   259  VAL259      0.1561
     85  C          6.3640  -27.8020    2.3410 C.2   259  VAL259      0.2260
     86  O          6.8700  -28.9090    2.5040 O.2   259  VAL259     -0.2867
     87  CB         6.2630  -26.0440    4.1210 C.3   259  VAL259      0.0252
     88  CG1        5.8930  -27.1970    5.0330 C.3   259  VAL259      0.0019
     89  CG2        7.0880  -25.0030    4.8580 C.3   259  VAL259      0.0019
@<TRIPOS>BOND
     1    83    84    1
     2    85    86    2
     3    85    84    1
     4    84    87    1
     5    58    57    2
     6    57    56    1
     7    57    62   am
     8    87    89    1
     9    87    88    1
    10    78    79    2
    11    78    77    1
    12    56    59    1
    13    56    55    1
    14    63    66    1
    15    63    62    1
    16    63    64    1
    17    59    61    1
    18    59    60    1
    19    76    77    1
    20    76    82    1
    21    66    67    1
    22    77    80    1
    23    64    65    2
    24    82    81    1
    25    67    68    2
    26    67    69   am
    27    26    25    1
    28    80    81    1
    29    23    25   ar
    30    23    21   ar
    31    25    24   ar
    32     5     2    1
    33    21    20   ar
    34    24    22   ar
    35    70    71    1
    36    73    72    2
    37     9     8    2
    38    72    71    1
    39     2     1    1
    40     2     3    1
    41    20    22   ar
    42    20    19    1
    43    71    74    1
    44     6     3   am
    45     6     7    1
    46     8    11   am
    47     8     7    1
    48    19    16    1
    49    12    11    1
    50    12    13    1
    51     3     4    2
    52    13    14    2
    53     7    10    1
    54    74    75    1
    55    16    15    1
    56    16    17    1
    57    30    29    2
    58    54    53    1
    59    17    27   am
    60    17    18    2
    61    27    28    1
    62    34    33   ar
    63    39    38    2
    64    29    28    1
    65    53    52    1
    66    28    31    1
    67    41    40    1
    68    33    35   ar
    69    33    32    1
    70    38    43   am
    71    38    37    1
    72    52    51    1
    73    36    37    1
    74    31    32    1
    75    44    43    1
    76    44    45    1
    77    51    48    1
    78    47    45   am
    79    47    48    1
    80    37    40    1
    81    40    42    1
    82    45    46    2
    83    48    49    1
    84    49    50    2
