@<TRIPOS>MOLECULE
tmp/3fnqA00.pdb
 84 78 0 0 0
SMALL
GASTEIGER

@<TRIPOS>ATOM
      1  N          4.6630    1.6950   24.5310 N.3   112  ALA112     -0.1245
      2  CA         5.6740    1.9610   25.5340 C.3   112  ALA112      0.1562
      3  C          6.4440    0.6770   25.7360 C.2   112  ALA112      0.2260
      4  O          5.8610   -0.4050   25.7400 O.2   112  ALA112     -0.2867
      5  CB         5.0200    2.3870   26.8360 C.3   112  ALA112      0.0290
      6  N         10.1460   -1.1900   27.7600 N.3   114  GLY114     -0.1225
      7  CA        11.3260   -1.0770   28.5890 C.3   114  GLY114      0.1811
      8  C         12.5460   -1.2270   27.7100 C.2   114  GLY114      0.2280
      9  O         12.5740   -2.0710   26.8220 O.2   114  GLY114     -0.2866
     10  N          5.7620   -6.1280   35.2080 N.3   196  TYR196     -0.1227
     11  CA         7.0200   -5.7620   34.5910 C.3   196  TYR196      0.1736
     12  C          7.9500   -6.9580   34.7130 C.2   196  TYR196      0.2595
     13  O          7.7250   -7.8510   35.5280 O.2   196  TYR196     -0.2718
     14  CB         7.6230   -4.5390   35.2640 C.3   196  TYR196      0.0548
     15  CG         6.8860   -3.2720   34.9290 C.ar  196  TYR196     -0.0200
     16  CD1        6.1120   -2.6230   35.8820 C.ar  196  TYR196     -0.0009
     17  CD2        6.9550   -2.7260   33.6560 C.ar  196  TYR196     -0.0009
     18  CE1        5.4260   -1.4620   35.5770 C.ar  196  TYR196      0.0417
     19  CE2        6.2640   -1.5680   33.3370 C.ar  196  TYR196      0.0417
     20  CZ         5.5100   -0.9380   34.3010 C.ar  196  TYR196      0.1957
     21  OH         4.8270    0.2160   33.9840 O.3   196  TYR196     -0.2866
     22  N          8.9840   -6.9800   33.8860 N.am  197  GLU197     -0.1979
     23  CA         9.9180   -8.0910   33.8740 C.3   197  GLU197      0.1602
     24  C         10.8350   -8.0070   35.0750 C.2   197  GLU197      0.2287
     25  O         11.2380   -6.9220   35.4730 O.2   197  GLU197     -0.2864
     26  CB        10.7510   -8.0620   32.5960 C.3   197  GLU197      0.0415
     27  CG         9.9330   -8.1100   31.3230 C.3   197  GLU197      0.1163
     28  CD         9.1310   -6.8460   31.1090 C.2   197  GLU197      0.3649
     29  OE1        9.6290   -5.7610   31.4710 O.co2 197  GLU197     -0.2457
     30  OE2        8.0080   -6.9410   30.5770 O.co2 197  GLU197     -0.2457
     31  N         11.1550   -4.2760   25.5340 N.3   213  VAL213     -0.1231
     32  CA        10.1630   -5.2220   25.9850 C.3   213  VAL213      0.1692
     33  C          8.8760   -4.5040   26.3420 C.2   213  VAL213      0.2593
     34  O          8.8760   -3.4800   27.0260 O.2   213  VAL213     -0.2718
     35  CB        10.6680   -6.0500   27.1800 C.3   213  VAL213      0.0266
     36  CG1       11.1910   -5.1370   28.2890 C.3   213  VAL213      0.0020
     37  CG2        9.5590   -6.9690   27.6800 C.3   213  VAL213      0.0020
     38  N          7.7740   -5.0420   25.8490 N.am  214  GLY214     -0.1942
     39  CA         6.4840   -4.4370   26.0790 C.3   214  GLY214      0.2014
     40  C          5.4630   -5.5390   26.1930 C.2   214  GLY214      0.2638
     41  O          5.7940   -6.7160   26.0890 O.2   214  GLY214     -0.2714
     42  N          4.2140   -5.1550   26.4020 N.am  215  MET215     -0.1976
     43  CA         3.1650   -6.1270   26.6280 C.3   215  MET215      0.1605
     44  C          2.0950   -6.0370   25.5640 C.2   215  MET215      0.2287
     45  O          0.9910   -6.5230   25.7580 O.2   215  MET215     -0.2864
     46  CB         2.5200   -5.8670   27.9810 C.3   215  MET215      0.0413
     47  CG         3.4960   -5.9440   29.1150 C.3   215  MET215      0.0598
     48  SD         2.6800   -5.4450   30.6280 S.3   215  MET215     -0.1393
     49  CE         4.0910   -5.4600   31.7300 C.3   215  MET215      0.0692
     50  N         10.2060    4.0250   27.6290 N.3   238  THR238     -0.1203
     51  CA         9.5870    4.7890   28.7040 C.3   238  THR238      0.1994
     52  C         10.3050    4.5480   30.0130 C.2   238  THR238      0.2617
     53  O         10.0630    5.2260   31.0040 O.2   238  THR238     -0.2717
     54  CB         8.1240    4.3960   28.8730 C.3   238  THR238      0.1784
     55  OG1        8.0310    2.9690   28.9320 O.3   238  THR238     -0.2211
     56  CG2        7.2990    4.9160   27.6950 C.3   238  THR238      0.0376
     57  N         11.1950    3.5690   30.0020 N.am  239  ASN239     -0.1974
     58  CA        11.9590    3.2150   31.1760 C.3   239  ASN239      0.1688
     59  C         13.0930    2.3320   30.7210 C.2   239  ASN239      0.2292
     60  O         12.9630    1.6090   29.7360 O.2   239  ASN239     -0.2864
     61  CB        11.0880    2.4620   32.1800 C.3   239  ASN239      0.1181
     62  CG        10.4200    1.2400   31.5730 C.2   239  ASN239      0.2629
     63  OD1        9.6020    1.3520   30.6590 O.2   239  ASN239     -0.2716
     64  ND2       10.7580    0.0630   32.0890 N.am  239  ASN239     -0.0877
     65  N         15.0950   -0.9010   31.3370 N.3   241  SER241     -0.1217
     66  CA        14.8610   -2.1550   32.0300 C.3   241  SER241      0.1889
     67  C         15.9590   -2.3690   33.0510 C.2   241  SER241      0.2288
     68  O         17.1340   -2.1070   32.7840 O.2   241  SER241     -0.2866
     69  CB        14.8370   -3.3180   31.0420 C.3   241  SER241      0.2089
     70  OG        13.7220   -3.2240   30.1720 O.3   241  SER241     -0.2183
     71  N         10.7920   -0.2400   37.3700 N.3   251  PRO251     -0.2116
     72  CA         9.8100    0.3940   36.5000 C.3   251  PRO251      0.1372
     73  C          8.6770    0.9140   37.3560 C.2   251  PRO251      0.2244
     74  O          8.3320    0.3280   38.3820 O.2   251  PRO251     -0.2868
     75  CB         9.2950   -0.7580   35.6260 C.3   251  PRO251      0.0268
     76  CG         9.9890   -2.0010   36.0980 C.3   251  PRO251      0.0207
     77  CD        10.6570   -1.7030   37.3920 C.3   251  PRO251      0.0892
     78  N          6.4000    5.6510   33.5760 N.3   256  VAL256     -0.1245
     79  CA         6.2760    5.1710   32.2140 C.3   256  VAL256      0.1561
     80  C          5.3310    6.0740   31.4300 C.2   256  VAL256      0.2260
     81  O          5.6630    6.5480   30.3420 O.2   256  VAL256     -0.2867
     82  CB         5.7910    3.7110   32.1880 C.3   256  VAL256      0.0252
     83  CG1        5.1970    3.3680   30.8310 C.3   256  VAL256      0.0019
     84  CG2        6.9550    2.7790   32.5450 C.3   256  VAL256      0.0019
@<TRIPOS>BOND
     1     1     2    1
     2     2     3    1
     3     2     5    1
     4    31    32    1
     5    44    45    2
     6    44    43    1
     7     3     4    2
     8    38    39    1
     9    38    33   am
    10    32    33    1
    11    32    35    1
    12    39    40    1
    13    41    40    2
    14    40    42   am
    15    33    34    2
    16    42    43    1
    17    43    46    1
    18     9     8    2
    19    35    37    1
    20    35    36    1
    21    50    51    1
    22    56    54    1
    23     8     7    1
    24     6     7    1
    25    46    47    1
    26    51    54    1
    27    51    52    1
    28    54    55    1
    29    47    48    1
    30    60    59    2
    31    57    52   am
    32    57    58    1
    33    52    53    2
    34    70    69    1
    35    81    80    2
    36    30    28   ar
    37    48    49    1
    38    63    62    2
    39    59    58    1
    40    83    82    1
    41    69    66    1
    42    28    27    1
    43    28    29   ar
    44    58    61    1
    45    27    26    1
    46    65    66    1
    47    80    79    1
    48    62    64   am
    49    62    61    1
    50    66    67    1
    51    82    79    1
    52    82    84    1
    53    79    78    1
    54    26    23    1
    55    68    67    2
    56    19    17   ar
    57    19    20   ar
    58    17    15   ar
    59    23    22    1
    60    23    24    1
    61    22    12   am
    62    21    20    1
    63    20    18   ar
    64    11    12    1
    65    11    10    1
    66    11    14    1
    67    12    13    2
    68    15    14    1
    69    15    16   ar
    70    24    25    2
    71    18    16   ar
    72    75    76    1
    73    75    72    1
    74    76    77    1
    75    72    73    1
    76    72    71    1
    77    73    74    2
    78    71    77    1
