@<TRIPOS>MOLECULE
tmp/3fntA00.pdb
 187 170 0 0 0
SMALL
GASTEIGER

@<TRIPOS>ATOM
      1  N        -20.8590    7.0620   15.0630 N.3     9  ALA9       -0.1245
      2  CA       -20.0750    6.6150   16.2150 C.3     9  ALA9        0.1562
      3  C        -19.4330    5.3400   15.7250 C.2     9  ALA9        0.2260
      4  O        -19.8660    4.1710   16.0230 O.2     9  ALA9       -0.2867
      5  CB       -20.9840    6.3660   17.4460 C.3     9  ALA9        0.0290
      6  N        -20.2110    4.1490   13.1280 N.3    11  VAL11      -0.1245
      7  CA       -21.1710    3.6030   12.1850 C.3    11  VAL11       0.1561
      8  C        -21.5180    4.7380   11.2180 C.2    11  VAL11       0.2260
      9  O        -22.4020    5.6120   11.4760 O.2    11  VAL11      -0.2867
     10  CB       -22.3580    2.8970   12.8560 C.3    11  VAL11       0.0252
     11  CG1      -22.6470    3.5500   14.1290 C.3    11  VAL11       0.0019
     12  CG2      -23.5600    2.8790   11.9610 C.3    11  VAL11       0.0019
     13  N        -30.7880    6.3030    9.3210 N.3    29  LEU29      -0.1245
     14  CA       -29.9570    5.1890    9.3530 C.3    29  LEU29       0.1561
     15  C        -30.4690    4.2610    8.2900 C.2    29  LEU29       0.2260
     16  O        -31.5790    3.7950    8.3580 O.2    29  LEU29      -0.2867
     17  CB       -30.0160    4.5650   10.7110 C.3    29  LEU29       0.0270
     18  CG       -28.8060    3.6510   10.7900 C.3    29  LEU29       0.0019
     19  CD1      -27.6450    4.5010   11.1920 C.3    29  LEU29       0.0001
     20  CD2      -28.9960    2.5480   11.7880 C.3    29  LEU29       0.0001
     21  N        -30.8310    1.1270    6.9940 N.3    31  HIS31      -0.1241
     22  CA       -30.6700   -0.1920    7.4800 C.3    31  HIS31       0.1621
     23  C        -30.8930   -1.1400    6.3670 C.2    31  HIS31       0.2264
     24  O        -31.8160   -1.0190    5.5750 O.2    31  HIS31      -0.2867
     25  CB       -31.7760   -0.4590    8.4610 C.3    31  HIS31       0.0745
     26  CG       -31.4650   -1.5070    9.4590 C.ar   31  HIS31       0.0817
     27  ND1      -31.7990   -1.3650   10.7870 N.ar   31  HIS31      -0.2268
     28  CD2      -30.8410   -2.6990    9.3440 C.ar   31  HIS31       0.1154
     29  CE1      -31.4060   -2.4410   11.4490 C.ar   31  HIS31       0.1986
     30  NE2      -30.8120   -3.2610   10.5990 N.ar   31  HIS31      -0.2212
     31  N        -31.1500   -4.4060    7.2110 N.3    33  ALA33      -0.1245
     32  CA       -31.7750   -5.5900    7.7830 C.3    33  ALA33       0.1562
     33  C        -33.0600   -5.2220    8.4360 C.2    33  ALA33       0.2260
     34  O        -33.6800   -6.0390    9.1200 O.2    33  ALA33      -0.2867
     35  CB       -30.8440   -6.2860    8.7980 C.3    33  ALA33       0.0290
     36  N        -35.5120   -5.9800   19.0540 N.3    75  LYS75      -0.1231
     37  CA       -34.5670   -6.7510   19.8800 C.3    75  LYS75       0.1693
     38  C        -34.0320   -6.0410   21.1720 C.2    75  LYS75       0.2591
     39  O        -33.8790   -6.6720   22.2310 O.2    75  LYS75      -0.2718
     40  CB       -33.3870   -7.1510   18.9860 C.3    75  LYS75       0.0285
     41  CG       -33.7370   -7.8320   17.6180 C.3    75  LYS75       0.0035
     42  CD       -32.4300   -8.0110   16.7950 C.3    75  LYS75       0.0206
     43  CE       -31.2880   -8.7900   17.5800 C.3    75  LYS75       0.1093
     44  NZ       -30.2970   -7.9870   18.3900 N.3    75  LYS75      -0.1314
     45  N        -33.7450   -4.7400   21.0440 N.am   76  ALA76      -0.1980
     46  CA       -33.2940   -3.8770   22.1420 C.3    76  ALA76       0.1597
     47  C        -34.4220   -3.3650   23.0450 C.2    76  ALA76       0.2287
     48  O        -34.3170   -3.4050   24.2580 O.2    76  ALA76      -0.2864
     49  CB       -32.5130   -2.6810   21.5630 C.3    76  ALA76       0.0319
     50  N        -34.2430    1.7560   23.2940 N.3   108  PHE108     -0.1241
     51  CA       -33.2430    1.9830   22.2890 C.3   108  PHE108      0.1605
     52  C        -32.1910    2.9180   22.7630 C.2   108  PHE108      0.2264
     53  O        -31.1060    2.9760   22.2250 O.2   108  PHE108     -0.2867
     54  CB       -33.9080    2.4700   21.0400 C.3   108  PHE108      0.0534
     55  CG       -34.3210    1.3540   20.1300 C.ar  108  PHE108     -0.0203
     56  CD1      -35.6210    0.8060   20.2050 C.ar  108  PHE108     -0.0042
     57  CD2      -33.3850    0.8280   19.1820 C.ar  108  PHE108     -0.0042
     58  CE1      -35.9860   -0.2500   19.3250 C.ar  108  PHE108     -0.0003
     59  CE2      -33.7180   -0.2280   18.2900 C.ar  108  PHE108     -0.0003
     60  CZ       -35.0160   -0.7740   18.3640 C.ar  108  PHE108     -0.0000
     61  N        -28.3220    4.6740   23.4200 N.3   111  PHE111     -0.1241
     62  CA       -27.5720    4.8900   22.1910 C.3   111  PHE111      0.1605
     63  C        -28.2240    5.8810   21.2400 C.2   111  PHE111      0.2264
     64  O        -27.5960    6.4870   20.3900 O.2   111  PHE111     -0.2867
     65  CB       -27.3250    3.5210   21.5410 C.3   111  PHE111      0.0534
     66  CG       -26.6400    2.5260   22.4830 C.ar  111  PHE111     -0.0203
     67  CD1      -25.2280    2.5130   22.6120 C.ar  111  PHE111     -0.0042
     68  CD2      -27.3920    1.6350   23.2680 C.ar  111  PHE111     -0.0042
     69  CE1      -24.5510    1.5990   23.5000 C.ar  111  PHE111     -0.0003
     70  CE2      -26.7430    0.7200   24.1660 C.ar  111  PHE111     -0.0003
     71  CZ       -25.3140    0.7020   24.2750 C.ar  111  PHE111     -0.0000
     72  N        -34.8370    5.4910   11.3050 N.3   120  VAL120     -0.1245
     73  CA       -34.3970    4.2540   10.7100 C.3   120  VAL120      0.1561
     74  C        -35.0970    4.0950    9.3550 C.2   120  VAL120      0.2260
     75  O        -36.3190    3.9510    9.2620 O.2   120  VAL120     -0.2867
     76  CB       -34.5840    3.0480   11.6950 C.3   120  VAL120      0.0252
     77  CG1      -34.5200    1.6440   11.0150 C.3   120  VAL120      0.0019
     78  CG2      -33.5560    3.1480   12.7960 C.3   120  VAL120      0.0019
     79  N        -33.7490  -11.2560    4.5610 N.3   189  MET189     -0.1245
     80  CA       -32.7660  -10.1940    4.5450 C.3   189  MET189      0.1570
     81  C        -31.6960  -10.4500    3.4730 C.2   189  MET189      0.2261
     82  O        -31.6270  -11.5260    2.8460 O.2   189  MET189     -0.2867
     83  CB       -32.1140  -10.0370    5.9280 C.3   189  MET189      0.0387
     84  CG       -32.9680   -9.3490    6.9920 C.3   189  MET189      0.0595
     85  SD       -32.4780   -9.7650    8.7150 S.3   189  MET189     -0.1393
     86  CE       -32.6020  -11.5800    8.7380 C.3   189  MET189      0.0692
     87  N        -25.0140  -12.2140    7.0520 N.3   209  ILE209     -0.1245
     88  CA       -25.8940  -11.1010    6.7620 C.3   209  ILE209      0.1561
     89  C        -25.1310   -9.8540    6.7150 C.2   209  ILE209      0.2260
     90  O        -24.4000   -9.5420    7.6370 O.2   209  ILE209     -0.2867
     91  CB       -26.9100  -10.8270    7.8760 C.3   209  ILE209      0.0252
     92  CG1      -27.7700  -12.0510    8.1410 C.3   209  ILE209      0.0019
     93  CG2      -27.7960   -9.6660    7.5060 C.3   209  ILE209      0.0019
     94  CD1      -28.8730  -11.8330    9.1610 C.3   209  ILE209      0.0001
     95  N        -25.1800   -6.1560    7.3470 N.3   211  ASP211     -0.1239
     96  CA       -25.8750   -5.1950    8.2270 C.3   211  ASP211      0.1674
     97  C        -25.1440   -3.8560    8.4540 C.2   211  ASP211      0.2266
     98  O        -24.0890   -3.8030    9.1010 O.2   211  ASP211     -0.2867
     99  CB       -26.1240   -5.7930    9.5850 C.3   211  ASP211      0.1410
    100  CG       -27.1120   -5.0010   10.3590 C.2   211  ASP211      0.3668
    101  OD1      -27.7270   -4.0950    9.7640 O.co2 211  ASP211     -0.2456
    102  OD2      -27.3100   -5.3050   11.5460 O.co2 211  ASP211     -0.2456
    103  N        -26.3380   -1.3940   10.0360 N.3   213  ALA213     -0.1231
    104  CA       -26.8420   -0.9400   11.3290 C.3   213  ALA213      0.1694
    105  C        -25.8970   -1.3000   12.4580 C.2   213  ALA213      0.2593
    106  O        -25.9480   -0.7610   13.5760 O.2   213  ALA213     -0.2718
    107  CB       -28.1830   -1.5650   11.5700 C.3   213  ALA213      0.0304
    108  N        -25.0290   -2.2390   12.1400 N.am  214  THR214     -0.1939
    109  CA       -24.1390   -2.8190   13.1110 C.3   214  THR214      0.2028
    110  C        -22.7050   -2.4990   12.8330 C.2   214  THR214      0.2643
    111  O        -22.2260   -2.6830   11.6800 O.2   214  THR214     -0.2714
    112  CB       -24.2360   -4.3130   13.0750 C.3   214  THR214      0.1808
    113  OG1      -25.6300   -4.7100   13.0600 O.3   214  THR214     -0.2208
    114  CG2      -23.5140   -4.8780   14.2740 C.3   214  THR214      0.0379
    115  N        -22.0210   -2.0940   13.9080 N.am  215  SER215     -0.1935
    116  CA       -20.6850   -1.5710   13.8270 C.3   215  SER215      0.2055
    117  C        -19.5390   -2.5570   14.1120 C.2   215  SER215      0.2642
    118  O        -18.4150   -2.1320   14.3110 O.2   215  SER215     -0.2714
    119  CB       -20.5810   -0.4100   14.7540 C.3   215  SER215      0.2130
    120  OG       -20.5450   -0.9240   16.0670 O.3   215  SER215     -0.2179
    121  N        -19.7940   -3.8580   14.0580 N.am  216  VAL216     -0.1977
    122  CA       -18.7680   -4.8620   14.2910 C.3   216  VAL216      0.1596
    123  C        -19.0050   -6.1000   13.4770 C.2   216  VAL216      0.2287
    124  O        -20.1200   -6.4390   13.1970 O.2   216  VAL216     -0.2864
    125  CB       -18.8170   -5.2250   15.7500 C.3   216  VAL216      0.0276
    126  CG1      -18.6130   -6.6600   15.9960 C.3   216  VAL216      0.0022
    127  CG2      -17.8010   -4.4720   16.4450 C.3   216  VAL216      0.0022
    128  N        -19.7020   -9.8830   13.4210 N.3   218  THR218     -0.1218
    129  CA       -20.2070  -10.8700   14.3580 C.3   218  THR218      0.1862
    130  C        -19.9890  -12.2540   13.9630 C.2   218  THR218      0.2287
    131  O        -20.1280  -12.6230   12.8160 O.2   218  THR218     -0.2866
    132  CB       -21.6300  -10.7930   14.3660 C.3   218  THR218      0.1770
    133  OG1      -21.9290   -9.5200   14.9120 O.3   218  THR218     -0.2211
    134  CG2      -22.2040  -11.8910   15.2190 C.3   218  THR218      0.0375
    135  N        -19.2520   -6.1300   27.3720 N.3   240  SER240     -0.1217
    136  CA       -18.8130   -6.6050   26.0530 C.3   240  SER240      0.1889
    137  C        -17.8520   -5.6710   25.2880 C.2   240  SER240      0.2288
    138  O        -18.2640   -4.8360   24.4780 O.2   240  SER240     -0.2866
    139  CB       -20.0140   -7.0850   25.1750 C.3   240  SER240      0.2089
    140  OG       -20.6550   -6.0390   24.4360 O.3   240  SER240     -0.2183
    141  N         -8.9570   -2.6450   19.8880 N.3   283  MET283     -0.1245
    142  CA       -10.2160   -3.3540   20.1310 C.3   283  MET283      0.1570
    143  C        -10.7520   -4.0100   18.8890 C.2   283  MET283      0.2261
    144  O        -11.0070   -3.3190   17.9160 O.2   283  MET283     -0.2867
    145  CB       -11.2800   -2.3460   20.4780 C.3   283  MET283      0.0387
    146  CG       -11.4480   -2.1550   21.9420 C.3   283  MET283      0.0595
    147  SD       -13.2060   -2.1320   22.5210 S.3   283  MET283     -0.1393
    148  CE       -13.9790   -0.8730   21.4250 C.3   283  MET283      0.0692
    149  N        -17.6170   -9.2720   17.9470 N.3   287  VAL287     -0.1245
    150  CA       -18.2400   -9.6100   19.1740 C.3   287  VAL287      0.1561
    151  C        -18.8800  -10.9600   18.9120 C.2   287  VAL287      0.2260
    152  O        -19.3510  -11.2490   17.8080 O.2   287  VAL287     -0.2867
    153  CB       -19.2260   -8.5220   19.5980 C.3   287  VAL287      0.0252
    154  CG1      -20.1960   -8.2650   18.4820 C.3   287  VAL287      0.0019
    155  CG2      -19.9620   -8.8840   20.9070 C.3   287  VAL287      0.0019
    156  N        -21.6890  -13.6740   19.1230 N.3   289  ILE289     -0.1245
    157  CA       -23.1310  -13.5740   19.2000 C.3   289  ILE289      0.1561
    158  C        -23.8120  -14.7520   18.4460 C.2   289  ILE289      0.2260
    159  O        -23.4650  -15.0360   17.2730 O.2   289  ILE289     -0.2867
    160  CB       -23.5910  -12.1600   18.6980 C.3   289  ILE289      0.0252
    161  CG1      -22.9290  -11.0530   19.5290 C.3   289  ILE289      0.0019
    162  CG2      -25.1140  -12.0130   18.7350 C.3   289  ILE289      0.0019
    163  CD1      -23.6320   -9.7330   19.4180 C.3   289  ILE289      0.0001
    164  N        -27.1140  -15.0830   17.0710 N.3   291  LEU291     -0.1231
    165  CA       -28.3790  -14.5170   16.5940 C.3   291  LEU291      0.1693
    166  C        -29.3620  -15.6160   16.2830 C.2   291  LEU291      0.2591
    167  O        -30.5780  -15.4440   16.4110 O.2   291  LEU291     -0.2718
    168  CB       -28.1370  -13.7020   15.3130 C.3   291  LEU291      0.0284
    169  CG       -27.2950  -12.4230   15.5430 C.3   291  LEU291      0.0019
    170  CD1      -25.8610  -12.6870   16.1580 C.3   291  LEU291      0.0001
    171  CD2      -27.2200  -11.5390   14.2610 C.3   291  LEU291      0.0001
    172  N        -28.8060  -16.7610   15.9040 N.am  292  GLU292     -0.1979
    173  CA       -29.5580  -17.7750   15.1900 C.3   292  GLU292      0.1602
    174  C        -28.5440  -18.8260   14.8190 C.2   292  GLU292      0.2287
    175  O        -27.4490  -18.8910   15.3900 O.2   292  GLU292     -0.2864
    176  CB       -30.1790  -17.1310   13.9660 C.3   292  GLU292      0.0415
    177  CG       -31.2680  -17.9650   13.2970 C.3   292  GLU292      0.1163
    178  CD       -32.0280  -17.0990   12.3010 C.2   292  GLU292      0.3649
    179  OE1      -33.0190  -17.6280   11.7420 O.co2 292  GLU292     -0.2457
    180  OE2      -31.6290  -15.8870   12.0830 O.co2 292  GLU292     -0.2457
    181  N        -22.4400  -11.9660   11.0350 N.3   297  VAL297     -0.1245
    182  CA       -22.9390  -10.7130   10.5750 C.3   297  VAL297      0.1561
    183  C        -21.8060   -9.8190   10.1350 C.2   297  VAL297      0.2260
    184  O        -20.7810   -9.7660   10.7970 O.2   297  VAL297     -0.2867
    185  CB       -23.7120  -10.0210   11.6530 C.3   297  VAL297      0.0252
    186  CG1      -24.2870   -8.7310   11.1020 C.3   297  VAL297      0.0019
    187  CG2      -24.7860  -10.9190   12.1510 C.3   297  VAL297      0.0019
@<TRIPOS>BOND
     1    82    81    2
     2    81    80    1
     3    80    79    1
     4    80    83    1
     5    24    23    2
     6    83    84    1
     7    23    22    1
     8    89    88    1
     9    89    90    2
    10    88    87    1
    11    88    91    1
    12    84    85    1
    13    21    22    1
    14    31    32    1
    15    95    96    1
    16    22    25    1
    17    93    91    1
    18    32    33    1
    19    32    35    1
    20    91    92    1
    21    92    94    1
    22    96    97    1
    23    96    99    1
    24    15    16    2
    25    15    14    1
    26    33    34    2
    27    97    98    2
    28    25    26    1
    29    85    86    1
    30    75    74    2
    31    13    14    1
    32    28    26   ar
    33    28    30   ar
    34    14    17    1
    35    74    73    1
    36    26    27   ar
    37    99   100    1
    38   101   100   ar
    39   103   104    1
    40   183   182    1
    41   183   184    2
    42   100   102   ar
    43   182   181    1
    44   182   185    1
    45    30    29   ar
    46    73    72    1
    47    73    76    1
    48    17    18    1
    49    27    29   ar
    50    18    19    1
    51    18    20    1
    52    77    76    1
    53   186   185    1
    54     8     9    2
    55     8     7    1
    56   104   107    1
    57   104   105    1
    58   185   187    1
    59   111   110    2
    60    76    78    1
    61   179   178   ar
    62    12    10    1
    63   180   178   ar
    64   108   105   am
    65   108   109    1
    66     7    10    1
    67     7     6    1
    68   178   177    1
    69   105   106    2
    70   131   130    2
    71   110   109    1
    72   110   115   am
    73    10    11    1
    74   113   112    1
    75   112   109    1
    76   112   114    1
    77   124   123    2
    78   177   176    1
    79   128   129    1
    80   123   122    1
    81   116   115    1
    82   116   117    1
    83   116   119    1
    84   130   129    1
    85   176   173    1
    86   121   117   am
    87   121   122    1
    88   117   118    2
    89   171   169    1
    90   122   125    1
    91   129   132    1
    92   132   133    1
    93   132   134    1
    94   119   120    1
    95   174   173    1
    96   174   175    2
    97     1     2    1
    98   173   172    1
    99   168   169    1
   100   168   165    1
   101   169   170    1
   102     3     4    2
   103     3     2    1
   104   125   126    1
   105   125   127    1
   106   172   166   am
   107     2     5    1
   108   166   167    2
   109   166   165    1
   110   165   164    1
   111    42    43    1
   112    42    41    1
   113   159   158    2
   114    43    44    1
   115    41    40    1
   116   152   151    2
   117   144   143    2
   118   149   150    1
   119    59    60   ar
   120    59    57   ar
   121    60    58   ar
   122   158   157    1
   123   154   153    1
   124   160   162    1
   125   160   157    1
   126   160   161    1
   127   143   142    1
   128   151   150    1
   129    40    37    1
   130    36    37    1
   131   156   157    1
   132   150   153    1
   133    57    55   ar
   134    58    56   ar
   135   163   161    1
   136   153   155    1
   137    37    38    1
   138   141   142    1
   139    55    56   ar
   140    55    54    1
   141   142   145    1
   142    64    63    2
   143   145   146    1
   144    54    51    1
   145    45    38   am
   146    45    46    1
   147    38    39    2
   148    63    62    1
   149   148   147    1
   150    65    62    1
   151    65    66    1
   152    49    46    1
   153   146   147    1
   154    46    47    1
   155    62    61    1
   156    53    52    2
   157    51    52    1
   158    51    50    1
   159    66    67   ar
   160    66    68   ar
   161    67    69   ar
   162    47    48    2
   163    68    70   ar
   164    69    71   ar
   165    70    71   ar
   166   140   139    1
   167   138   137    2
   168   139   136    1
   169   137   136    1
   170   136   135    1
