@<TRIPOS>MOLECULE
tmp/3fnuB00.pdb
 204 192 0 0 0
SMALL
GASTEIGER

@<TRIPOS>ATOM
      1  N          3.4470  -31.2850  -60.5740 N.3    10  LEU10      -0.1231
      2  CA         3.1980  -32.6350  -61.1040 C.3    10  LEU10       0.1693
      3  C          3.4060  -32.8220  -62.6290 C.2    10  LEU10       0.2591
      4  O          4.5010  -33.2230  -63.0570 O.2    10  LEU10      -0.2718
      5  CB         1.8680  -33.2300  -60.5960 C.3    10  LEU10       0.0284
      6  CG         1.9230  -34.1730  -59.3690 C.3    10  LEU10       0.0019
      7  CD1        3.0430  -35.2370  -59.5030 C.3    10  LEU10       0.0001
      8  CD2        2.0460  -33.4650  -58.0170 C.3    10  LEU10       0.0001
      9  N          2.3920  -32.5640  -63.4520 N.am   11  ALA11      -0.1980
     10  CA         2.5960  -32.6840  -64.9020 C.3    11  ALA11       0.1597
     11  C          2.8240  -31.3040  -65.4780 C.2    11  ALA11       0.2287
     12  O          2.0960  -30.8480  -66.3700 O.2    11  ALA11      -0.2864
     13  CB         1.4190  -33.3500  -65.5580 C.3    11  ALA11       0.0319
     14  N          2.0940  -28.6350  -64.1450 N.3    13  VAL13      -0.1245
     15  CA         1.1560  -27.7160  -63.5240 C.3    13  VAL13       0.1561
     16  C          1.5050  -27.6070  -62.0410 C.2    13  VAL13       0.2260
     17  O          1.6220  -28.6030  -61.3520 O.2    13  VAL13      -0.2867
     18  CB        -0.3400  -28.0770  -63.8150 C.3    13  VAL13       0.0252
     19  CG1       -0.4620  -29.3500  -64.6030 C.3    13  VAL13       0.0019
     20  CG2       -1.1730  -28.1170  -62.5500 C.3    13  VAL13       0.0019
     21  N         -0.5790  -28.4080  -56.8460 N.3    16  PHE16      -0.1241
     22  CA        -0.9660  -29.5110  -55.9750 C.3    16  PHE16       0.1605
     23  C         -0.4910  -29.2920  -54.5540 C.2    16  PHE16       0.2264
     24  O          0.6650  -28.9830  -54.3210 O.2    16  PHE16      -0.2867
     25  CB        -0.4580  -30.8370  -56.5100 C.3    16  PHE16       0.0534
     26  CG        -0.9130  -31.1280  -57.8990 C.ar   16  PHE16      -0.0203
     27  CD1       -0.0860  -30.8700  -58.9860 C.ar   16  PHE16      -0.0042
     28  CD2       -2.1690  -31.6460  -58.1330 C.ar   16  PHE16      -0.0042
     29  CE1       -0.4990  -31.1470  -60.2910 C.ar   16  PHE16      -0.0003
     30  CE2       -2.5880  -31.9280  -59.4350 C.ar   16  PHE16      -0.0003
     31  CZ        -1.7430  -31.6780  -60.5140 C.ar   16  PHE16      -0.0000
     32  N         -5.6540  -31.0610  -56.1260 N.3    31  LEU31      -0.1245
     33  CA        -5.4460  -29.9960  -57.1060 C.3    31  LEU31       0.1561
     34  C         -6.2500  -28.7840  -56.6520 C.2    31  LEU31       0.2260
     35  O         -7.4870  -28.8480  -56.5690 O.2    31  LEU31      -0.2867
     36  CB        -5.8600  -30.4320  -58.5230 C.3    31  LEU31       0.0270
     37  CG        -5.8800  -29.3280  -59.5940 C.3    31  LEU31       0.0019
     38  CD1       -4.4950  -29.0610  -60.1140 C.3    31  LEU31       0.0001
     39  CD2       -6.7990  -29.6980  -60.7360 C.3    31  LEU31       0.0001
     40  N         -7.9380  -25.6750  -57.4590 N.3    33  HIS33      -0.1241
     41  CA        -8.4410  -25.3490  -58.7870 C.3    33  HIS33       0.1621
     42  C         -9.2670  -24.0890  -58.6920 C.2    33  HIS33       0.2264
     43  O        -10.3630  -24.0930  -58.1310 O.2    33  HIS33      -0.2867
     44  CB        -9.2850  -26.5050  -59.3370 C.3    33  HIS33       0.0745
     45  CG        -9.5970  -26.4010  -60.7940 C.ar   33  HIS33       0.0817
     46  ND1      -10.7680  -26.8810  -61.3340 N.ar   33  HIS33      -0.2268
     47  CD2       -8.8920  -25.8880  -61.8290 C.ar   33  HIS33       0.1154
     48  CE1      -10.7750  -26.6670  -62.6390 C.ar   33  HIS33       0.1986
     49  NE2       -9.6470  -26.0640  -62.9660 N.ar   33  HIS33      -0.2212
     50  N        -10.7140  -22.7230  -61.0470 N.3    35  ALA35      -0.1231
     51  CA       -11.7710  -22.7050  -62.0820 C.3    35  ALA35       0.1694
     52  C        -12.9270  -23.6680  -61.8130 C.2    35  ALA35       0.2593
     53  O        -13.7200  -23.9560  -62.7050 O.2    35  ALA35      -0.2718
     54  CB       -11.1930  -22.9060  -63.4910 C.3    35  ALA35       0.0304
     55  N        -13.0150  -24.1580  -60.5770 N.am   36  SER36      -0.1938
     56  CA       -14.1560  -24.9630  -60.1400 C.3    36  SER36       0.2055
     57  C        -14.4700  -24.7460  -58.6430 C.2    36  SER36       0.2644
     58  O        -13.6640  -24.1840  -57.9100 O.2    36  SER36      -0.2714
     59  CB       -13.9390  -26.4400  -60.4740 C.3    36  SER36       0.2130
     60  OG       -13.1800  -27.0850  -59.4780 O.3    36  SER36      -0.2179
     61  N        -15.6370  -25.1980  -58.1930 N.am   37  SER37      -0.1935
     62  CA       -16.1390  -24.7810  -56.8870 C.3    37  SER37       0.2055
     63  C        -16.6770  -25.8730  -55.9560 C.2    37  SER37       0.2643
     64  O        -17.6190  -25.6450  -55.2070 O.2    37  SER37      -0.2714
     65  CB       -17.1970  -23.6950  -57.0730 C.3    37  SER37       0.2130
     66  OG       -16.7260  -22.6760  -57.9290 O.3    37  SER37      -0.2179
     67  N        -16.0780  -27.0500  -55.9850 N.am   38  ASN38      -0.1971
     68  CA       -16.4160  -28.0750  -55.0190 C.3    38  ASN38       0.1688
     69  C        -15.1450  -28.7610  -54.5800 C.2    38  ASN38       0.2292
     70  O        -14.1240  -28.6910  -55.2750 O.2    38  ASN38      -0.2864
     71  CB       -17.3600  -29.1080  -55.6300 C.3    38  ASN38       0.1181
     72  CG       -18.7890  -28.6020  -55.7640 C.2    38  ASN38       0.2629
     73  OD1      -19.2060  -28.1720  -56.8380 O.2    38  ASN38      -0.2716
     74  ND2      -19.5500  -28.6670  -54.6770 N.am   38  ASN38      -0.0877
     75  N        -13.5410  -32.5180  -53.8260 N.3    40  TRP40      -0.1241
     76  CA       -13.8030  -33.9000  -54.1350 C.3    40  TRP40       0.1605
     77  C        -12.7470  -34.7570  -53.4920 C.2    40  TRP40       0.2264
     78  O        -11.5540  -34.4330  -53.5290 O.2    40  TRP40      -0.2867
     79  CB       -13.7310  -34.1120  -55.6280 C.3    40  TRP40       0.0550
     80  CG       -14.5300  -33.1580  -56.4250 C.ar   40  TRP40       0.0003
     81  CD1      -14.2620  -31.8360  -56.6410 C.ar   40  TRP40       0.0946
     82  CD2      -15.7140  -33.4570  -57.1770 C.ar   40  TRP40       0.0152
     83  NE1      -15.2200  -31.2890  -57.4660 N.ar   40  TRP40      -0.2442
     84  CE2      -16.1200  -32.2610  -57.8110 C.ar   40  TRP40       0.0810
     85  CE3      -16.4770  -34.6180  -57.3660 C.ar   40  TRP40       0.0012
     86  CZ2      -17.2580  -32.1910  -58.6230 C.ar   40  TRP40       0.0191
     87  CZ3      -17.6070  -34.5480  -58.1680 C.ar   40  TRP40       0.0001
     88  CH2      -17.9870  -33.3420  -58.7910 C.ar   40  TRP40       0.0015
     89  N        -21.4350  -36.3100  -61.8220 N.3    74  LEU74      -0.1245
     90  CA       -20.7890  -35.5020  -62.8560 C.3    74  LEU74       0.1561
     91  C        -20.3120  -36.4120  -63.9970 C.2    74  LEU74       0.2260
     92  O        -19.5700  -37.3640  -63.7520 O.2    74  LEU74      -0.2867
     93  CB       -19.5790  -34.7890  -62.2420 C.3    74  LEU74       0.0270
     94  CG       -18.9680  -33.4960  -62.7970 C.3    74  LEU74       0.0019
     95  CD1      -17.5090  -33.4860  -62.4400 C.3    74  LEU74       0.0001
     96  CD2      -19.1310  -33.3190  -64.3160 C.3    74  LEU74       0.0001
     97  N        -18.6490  -36.3560  -68.0690 N.3    76  SER76      -0.1217
     98  CA       -18.1790  -35.8590  -69.3640 C.3    76  SER76       0.1889
     99  C        -17.8640  -37.0210  -70.3240 C.2    76  SER76       0.2288
    100  O        -18.1920  -38.1800  -70.0260 O.2    76  SER76      -0.2866
    101  CB       -16.9600  -34.9690  -69.1580 C.3    76  SER76       0.2089
    102  OG       -16.1230  -35.4820  -68.1420 O.3    76  SER76      -0.2183
    103  N        -14.7430  -37.4660  -71.0200 N.3    78  ALA78      -0.1245
    104  CA       -13.4510  -37.7780  -70.4100 C.3    78  ALA78       0.1562
    105  C        -13.5290  -38.8300  -69.3140 C.2    78  ALA78       0.2260
    106  O        -12.6520  -39.6780  -69.1850 O.2    78  ALA78      -0.2867
    107  CB       -12.8150  -36.5230  -69.8830 C.3    78  ALA78       0.0290
    108  N        -17.9080  -39.7370  -62.7820 N.3    81  ILE81      -0.1245
    109  CA       -17.5960  -39.7510  -61.3750 C.3    81  ILE81       0.1561
    110  C        -18.8800  -39.5360  -60.5880 C.2    81  ILE81       0.2260
    111  O        -19.7060  -38.6970  -60.9450 O.2    81  ILE81      -0.2867
    112  CB       -16.4810  -38.7360  -61.0560 C.3    81  ILE81       0.0252
    113  CG1      -16.5190  -38.2620  -59.6130 C.3    81  ILE81       0.0019
    114  CG2      -16.5440  -37.5340  -61.9810 C.3    81  ILE81       0.0019
    115  CD1      -15.4150  -37.3010  -59.3530 C.3    81  ILE81       0.0001
    116  N        -16.3140  -39.4300  -53.1410 N.3   104  MET104     -0.1245
    117  CA       -16.4300  -40.1480  -54.3940 C.3   104  MET104      0.1570
    118  C        -16.6000  -41.6570  -54.2010 C.2   104  MET104      0.2261
    119  O        -15.7410  -42.3330  -53.6260 O.2   104  MET104     -0.2867
    120  CB       -15.2480  -39.8300  -55.2930 C.3   104  MET104      0.0387
    121  CG       -15.1080  -38.3430  -55.5940 C.3   104  MET104      0.0595
    122  SD       -13.7750  -38.0300  -56.7690 S.3   104  MET104     -0.1393
    123  CE       -12.2980  -38.4360  -55.8240 C.3   104  MET104      0.0692
    124  N        -15.4360  -43.8310  -59.7240 N.3   107  ILE107     -0.1245
    125  CA       -14.7320  -42.9720  -60.6730 C.3   107  ILE107      0.1561
    126  C        -14.1170  -43.7830  -61.8080 C.2   107  ILE107      0.2260
    127  O        -13.3620  -44.7320  -61.5830 O.2   107  ILE107     -0.2867
    128  CB       -13.7060  -42.0220  -59.9900 C.3   107  ILE107      0.0252
    129  CG1      -12.5760  -41.6430  -60.9450 C.3   107  ILE107      0.0019
    130  CG2      -13.1250  -42.6270  -58.7450 C.3   107  ILE107      0.0019
    131  CD1      -11.7320  -40.5170  -60.4230 C.3   107  ILE107      0.0001
    132  N        -10.5880  -40.3860  -66.9440 N.3   110  PHE110     -0.1241
    133  CA        -9.6220  -39.3410  -66.5940 C.3   110  PHE110      0.1605
    134  C         -8.1890  -39.8820  -66.5940 C.2   110  PHE110      0.2264
    135  O         -7.3550  -39.4980  -65.7760 O.2   110  PHE110     -0.2867
    136  CB       -10.0140  -38.6680  -65.2690 C.3   110  PHE110      0.0534
    137  CG       -11.4540  -38.2370  -65.2250 C.ar  110  PHE110     -0.0203
    138  CD1      -11.9260  -37.2390  -66.0780 C.ar  110  PHE110     -0.0042
    139  CD2      -12.3550  -38.8470  -64.3600 C.ar  110  PHE110     -0.0042
    140  CE1      -13.2710  -36.8440  -66.0600 C.ar  110  PHE110     -0.0003
    141  CE2      -13.7110  -38.4530  -64.3360 C.ar  110  PHE110     -0.0003
    142  CZ       -14.1590  -37.4490  -65.1810 C.ar  110  PHE110     -0.0000
    143  N         -3.8200  -39.1110  -66.5060 N.3   113  PHE113     -0.1227
    144  CA        -3.6210  -38.0440  -65.5110 C.3   113  PHE113      0.1736
    145  C         -3.7600  -38.5860  -64.0970 C.2   113  PHE113      0.2595
    146  O         -2.7870  -38.5870  -63.3370 O.2   113  PHE113     -0.2718
    147  CB        -4.6000  -36.8780  -65.7410 C.3   113  PHE113      0.0547
    148  CG        -4.7700  -35.9360  -64.5400 C.ar  113  PHE113     -0.0202
    149  CD1       -6.0390  -35.3910  -64.2310 C.ar  113  PHE113     -0.0042
    150  CD2       -3.6780  -35.5620  -63.7270 C.ar  113  PHE113     -0.0042
    151  CE1       -6.2200  -34.4700  -63.1070 C.ar  113  PHE113     -0.0003
    152  CE2       -3.8460  -34.6550  -62.6120 C.ar  113  PHE113     -0.0003
    153  CZ        -5.1230  -34.1130  -62.3130 C.ar  113  PHE113     -0.0000
    154  N         -4.9580  -39.0900  -63.7840 N.am  114  TYR114     -0.1976
    155  CA        -5.3790  -39.4080  -62.4090 C.3   114  TYR114      0.1639
    156  C         -4.5860  -40.5020  -61.7090 C.2   114  TYR114      0.2290
    157  O         -3.8830  -40.2450  -60.7510 O.2   114  TYR114     -0.2864
    158  CB        -6.8800  -39.7210  -62.3500 C.3   114  TYR114      0.0560
    159  CG        -7.3970  -39.8060  -60.9380 C.ar  114  TYR114     -0.0198
    160  CD1       -7.4600  -38.6720  -60.1290 C.ar  114  TYR114     -0.0009
    161  CD2       -7.8100  -41.0110  -60.4030 C.ar  114  TYR114     -0.0009
    162  CE1       -7.9260  -38.7400  -58.8340 C.ar  114  TYR114      0.0417
    163  CE2       -8.2770  -41.0910  -59.1020 C.ar  114  TYR114      0.0417
    164  CZ        -8.3350  -39.9530  -58.3320 C.ar  114  TYR114      0.1957
    165  OH        -8.7960  -40.0050  -57.0480 O.3   114  TYR114     -0.2866
    166  N         -7.7950  -35.8450  -55.0710 N.3   121  GLY121     -0.1210
    167  CA        -8.9660  -35.1530  -55.5860 C.3   121  GLY121      0.1956
    168  C         -8.7010  -33.6820  -55.8240 C.2   121  GLY121      0.2611
    169  O         -7.5800  -33.2120  -55.6720 O.2   121  GLY121     -0.2717
    170  N         -9.7390  -32.9410  -56.1900 N.am  122  VAL122     -0.1979
    171  CA        -9.6000  -31.5150  -56.4270 C.3   122  VAL122      0.1595
    172  C        -10.3220  -30.6690  -55.3750 C.2   122  VAL122      0.2287
    173  O        -11.3870  -31.0250  -54.8560 O.2   122  VAL122     -0.2864
    174  CB        -9.9420  -31.1210  -57.9120 C.3   122  VAL122      0.0276
    175  CG1      -10.5930  -32.2490  -58.6390 C.3   122  VAL122      0.0022
    176  CG2      -10.7790  -29.8260  -58.0040 C.3   122  VAL122      0.0022
    177  N        -21.6500  -27.3690  -57.5460 N.3   132  ILE132     -0.1245
    178  CA       -22.7680  -28.2890  -57.3970 C.3   132  ILE132      0.1561
    179  C        -23.2950  -28.1370  -55.9690 C.2   132  ILE132      0.2260
    180  O        -22.5190  -28.1990  -55.0100 O.2   132  ILE132     -0.2867
    181  CB       -22.3660  -29.7580  -57.6240 C.3   132  ILE132      0.0252
    182  CG1      -21.8000  -29.9480  -59.0240 C.3   132  ILE132      0.0019
    183  CG2      -23.5700  -30.6730  -57.4170 C.3   132  ILE132      0.0019
    184  CD1      -21.0470  -31.2380  -59.1790 C.3   132  ILE132      0.0001
    185  N         -6.6140  -19.7550  -64.5030 N.3   213  ASP213     -0.1239
    186  CA        -6.7170  -21.1840  -64.2130 C.3   213  ASP213      0.1674
    187  C         -5.3430  -21.7570  -63.8680 C.2   213  ASP213      0.2266
    188  O         -4.4570  -21.8510  -64.7230 O.2   213  ASP213     -0.2867
    189  CB        -7.3420  -21.9230  -65.4010 C.3   213  ASP213      0.1410
    190  CG        -7.6060  -23.3990  -65.1170 C.2   213  ASP213      0.3668
    191  OD1       -7.1490  -23.8980  -64.0610 O.co2 213  ASP213     -0.2456
    192  OD2       -8.2790  -24.0630  -65.9530 O.co2 213  ASP213     -0.2456
    193  N         -4.7750  -24.9230  -62.9630 N.3   215  ALA215     -0.1231
    194  CA        -4.7030  -26.2980  -63.4340 C.3   215  ALA215      0.1694
    195  C         -4.1740  -26.4090  -64.8620 C.2   215  ALA215      0.2592
    196  O         -3.9710  -27.5130  -65.3870 O.2   215  ALA215     -0.2718
    197  CB        -6.0730  -26.9590  -63.3250 C.3   215  ALA215      0.0304
    198  N         -3.9450  -25.2610  -65.4790 N.am  216  THR216     -0.1953
    199  CA        -3.4880  -25.2090  -66.8520 C.3   216  THR216      0.1897
    200  C         -1.9970  -24.8860  -66.9000 C.2   216  THR216      0.2313
    201  O         -1.5460  -23.9280  -66.2720 O.2   216  THR216     -0.2863
    202  CB        -4.2660  -24.1250  -67.6070 C.3   216  THR216      0.1794
    203  OG1       -5.6690  -24.3660  -67.4550 O.3   216  THR216     -0.2208
    204  CG2       -3.9000  -24.0900  -69.0860 C.3   216  THR216      0.0378
@<TRIPOS>BOND
     1   103   104    1
     2   104   107    1
     3   104   105    1
     4    99   100    2
     5    99    98    1
     6    98   101    1
     7    98    97    1
     8   105   106    2
     9   101   102    1
    10   204   202    1
    11   202   203    1
    12   202   199    1
    13   132   133    1
    14   200   199    1
    15   200   201    2
    16   199   198    1
    17   134   133    1
    18   134   135    2
    19   133   136    1
    20   143   144    1
    21    12    11    2
    22   138   140   ar
    23   138   137   ar
    24   140   142   ar
    25   192   190   ar
    26   147   144    1
    27   147   148    1
    28    13    10    1
    29   144   145    1
    30   198   195   am
    31    11    10    1
    32   189   190    1
    33   189   186    1
    34   196   195    2
    35   136   137    1
    36   137   139   ar
    37   142   141   ar
    38   190   191   ar
    39    10     9    1
    40   195   194    1
    41   188   187    2
    42    19    18    1
    43   148   149   ar
    44   148   150   ar
    45   185   186    1
    46   139   141   ar
    47    96    94    1
    48   149   151   ar
    49   186   187    1
    50    14    15    1
    51   145   154   am
    52   145   146    2
    53    91    92    2
    54    91    90    1
    55    18    15    1
    56    18    20    1
    57   154   155    1
    58   150   152   ar
    59    15    16    1
    60    54    51    1
    61     9     3   am
    62   194   197    1
    63   194   193    1
    64   151   153   ar
    65     4     3    2
    66    49    48   ar
    67    49    47   ar
    68    90    93    1
    69    90    89    1
    70    94    95    1
    71    94    93    1
    72   108   109    1
    73    53    52    2
    74    48    46   ar
    75     3     2    1
    76   152   153   ar
    77   155   158    1
    78   155   156    1
    79   158   159    1
    80    51    52    1
    81    51    50    1
    82    16    17    2
    83   114   112    1
    84    47    45   ar
    85    52    55   am
    86   126   127    2
    87   126   125    1
    88   156   157    2
    89   109   112    1
    90   109   110    1
    91    46    45   ar
    92     2     5    1
    93     2     1    1
    94   112   113    1
    95   129   131    1
    96   129   128    1
    97   111   110    2
    98   159   161   ar
    99   159   160   ar
   100    45    44    1
   101    39    37    1
   102   125   128    1
   103   125   124    1
   104     5     6    1
   105    55    56    1
   106    31    29   ar
   107    31    30   ar
   108    59    56    1
   109    59    60    1
   110   161   163   ar
   111    29    27   ar
   112    56    57    1
   113   160   162   ar
   114    38    37    1
   115   128   130    1
   116   113   115    1
   117    37    36    1
   118     7     6    1
   119    30    28   ar
   120     6     8    1
   121    44    41    1
   122   184   182    1
   123   163   164   ar
   124   182   181    1
   125    27    26   ar
   126   162   164   ar
   127    88    86   ar
   128    88    87   ar
   129    41    42    1
   130    41    40    1
   131    42    43    2
   132    57    61   am
   133    57    58    2
   134   175   174    1
   135    86    84   ar
   136    36    33    1
   137   164   165    1
   138    61    62    1
   139    87    85   ar
   140    28    26   ar
   141   176   174    1
   142    66    65    1
   143   174   171    1
   144    26    25    1
   145    84    83   ar
   146    84    82   ar
   147   181   183    1
   148   181   178    1
   149   177   178    1
   150    83    81   ar
   151   178   179    1
   152    85    82   ar
   153    82    80   ar
   154    33    34    1
   155    33    32    1
   156    65    62    1
   157    62    63    1
   158    21    22    1
   159    73    72    2
   160   122   123    1
   161   122   121    1
   162    34    35    2
   163    81    80   ar
   164    25    22    1
   165   171   170    1
   166   171   172    1
   167    80    79    1
   168   170   168   am
   169    67    63   am
   170    67    68    1
   171    22    23    1
   172   179   180    2
   173    63    64    2
   174   168   169    2
   175   168   167    1
   176    72    71    1
   177    72    74   am
   178    71    68    1
   179    79    76    1
   180   121   120    1
   181   167   166    1
   182   172   173    2
   183   120   117    1
   184    70    69    2
   185    68    69    1
   186    23    24    2
   187   117   118    1
   188   117   116    1
   189   118   119    2
   190    76    75    1
   191    76    77    1
   192    78    77    2
