@<TRIPOS>MOLECULE
tmp/3fo2D00.pdb
 88 86 0 0 0
SMALL
GASTEIGER

@<TRIPOS>ATOM
      1  N          1.2160   -0.2500   25.9400 N.3    35  ASP35      -0.1239
      2  CA        -0.2010   -0.5170   25.8060 C.3    35  ASP35       0.1674
      3  C         -0.7180   -0.0230   24.4790 C.2    35  ASP35       0.2266
      4  O         -0.1390    0.8810   23.8580 O.2    35  ASP35      -0.2867
      5  CB        -1.0140    0.2120   26.8790 C.3    35  ASP35       0.1410
      6  CG        -0.6230   -0.1890   28.2900 C.2    35  ASP35       0.3668
      7  OD1       -0.9870   -1.2820   28.7250 O.co2  35  ASP35      -0.2456
      8  OD2        0.0300    0.6180   28.9790 O.co2  35  ASP35      -0.2456
      9  N         -9.1890   -0.0580   26.7770 N.3    47  TRP47      -0.1241
     10  CA        -7.8900   -0.6850   26.8520 C.3    47  TRP47       0.1605
     11  C         -7.9140   -1.9480   25.9990 C.2    47  TRP47       0.2264
     12  O         -8.7920   -2.7630   26.1730 O.2    47  TRP47      -0.2867
     13  CB        -7.5310   -1.0210   28.2760 C.3    47  TRP47       0.0550
     14  CG        -6.2320   -1.7320   28.4070 C.ar   47  TRP47       0.0003
     15  CD1       -4.9920   -1.1680   28.4200 C.ar   47  TRP47       0.0946
     16  CD2       -6.0290   -3.1460   28.5500 C.ar   47  TRP47       0.0152
     17  NE1       -4.0380   -2.1280   28.6030 N.ar   47  TRP47      -0.2442
     18  CE2       -4.6380   -3.3570   28.6570 C.ar   47  TRP47       0.0810
     19  CE3       -6.8840   -4.2520   28.6040 C.ar   47  TRP47       0.0012
     20  CZ2       -4.0820   -4.6290   28.8110 C.ar   47  TRP47       0.0191
     21  CZ3       -6.3230   -5.5260   28.7720 C.ar   47  TRP47       0.0001
     22  CH2       -4.9400   -5.6970   28.8720 C.ar   47  TRP47       0.0015
     23  N         -1.5700   -5.1810   26.1970 N.3    50  VAL50      -0.1245
     24  CA        -0.2550   -4.8130   26.6930 C.3    50  VAL50       0.1561
     25  C          0.7910   -5.8250   26.2080 C.2    50  VAL50       0.2260
     26  O          0.5210   -7.0250   26.1290 O.2    50  VAL50      -0.2867
     27  CB        -0.2080   -4.7240   28.2440 C.3    50  VAL50       0.0252
     28  CG1       -0.5550   -6.0130   28.8790 C.3    50  VAL50       0.0019
     29  CG2        1.1600   -4.2530   28.6850 C.3    50  VAL50       0.0019
     30  N          4.5110   -6.6000   27.5560 N.3    52  TRP52      -0.1241
     31  CA         5.4410   -6.2220   28.5940 C.3    52  TRP52       0.1605
     32  C          6.8580   -6.2280   28.0540 C.2    52  TRP52       0.2264
     33  O          7.1170   -6.7220   26.9830 O.2    52  TRP52      -0.2867
     34  CB         5.3330   -7.1660   29.7680 C.3    52  TRP52       0.0550
     35  CG         3.9380   -7.2360   30.3420 C.ar   52  TRP52       0.0003
     36  CD1        2.9920   -8.1970   30.0990 C.ar   52  TRP52       0.0946
     37  CD2        3.3510   -6.3180   31.2580 C.ar   52  TRP52       0.0152
     38  NE1        1.8470   -7.9300   30.8170 N.ar   52  TRP52      -0.2442
     39  CE2        2.0390   -6.7770   31.5320 C.ar   52  TRP52       0.0810
     40  CE3        3.8090   -5.1550   31.8880 C.ar   52  TRP52       0.0012
     41  CZ2        1.1850   -6.1170   32.4210 C.ar   52  TRP52       0.0191
     42  CZ3        2.9710   -4.4980   32.7540 C.ar   52  TRP52       0.0001
     43  CH2        1.6650   -4.9830   33.0200 C.ar   52  TRP52       0.0015
     44  N         -0.9790   -9.4090   27.3990 N.3    58  ASN58      -0.1240
     45  CA        -2.3320   -9.5950   27.9150 C.3    58  ASN58       0.1653
     46  C         -3.2990   -8.7700   27.0760 C.2    58  ASN58       0.2266
     47  O         -2.9250   -7.7410   26.5130 O.2    58  ASN58      -0.2867
     48  CB        -2.4550   -9.1980   29.3740 C.3    58  ASN58       0.1155
     49  CG        -1.5900  -10.0530   30.3010 C.2    58  ASN58       0.2627
     50  OD1       -0.4960   -9.6500   30.6500 O.2    58  ASN58      -0.2716
     51  ND2       -2.0770  -11.2220   30.6820 N.am   58  ASN58      -0.0877
     52  N          4.6140    2.6630   29.1690 N.3    98  HIS98      -0.1241
     53  CA         4.5880    2.5040   30.6170 C.3    98  HIS98       0.1621
     54  C          5.5670    3.3760   31.3590 C.2    98  HIS98       0.2264
     55  O          6.6520    3.7100   30.8780 O.2    98  HIS98      -0.2867
     56  CB         4.8840    1.0790   30.9840 C.3    98  HIS98       0.0745
     57  CG         3.7630    0.1590   30.6950 C.ar   98  HIS98       0.0817
     58  ND1        3.7950   -1.1780   31.0170 N.ar   98  HIS98      -0.2268
     59  CD2        2.5680    0.3820   30.1130 C.ar   98  HIS98       0.1154
     60  CE1        2.6560   -1.7350   30.6390 C.ar   98  HIS98       0.1986
     61  NE2        1.8890   -0.8040   30.1060 N.ar   98  HIS98      -0.2212
     62  N          3.8930   -3.6220   37.7250 N.3   104  ILE104     -0.1231
     63  CA         2.6810   -2.9310   37.3230 C.3   104  ILE104      0.1678
     64  C          3.0230   -1.4460   37.2070 C.2   104  ILE104      0.2434
     65  O          3.5310   -0.8690   38.1330 O.2   104  ILE104     -0.2733
     66  CB         1.5190   -3.1690   38.3070 C.3   104  ILE104      0.0265
     67  CG1        1.3320   -4.6700   38.5570 C.3   104  ILE104      0.0019
     68  CG2        0.2200   -2.6110   37.7370 C.3   104  ILE104      0.0020
     69  CD1        0.7530   -5.0190   39.9580 C.3   104  ILE104      0.0001
     70  N          2.7700   -0.8340   36.0470 N.am  105  PRO105     -0.2729
     71  CA         3.1760    0.5340   35.9070 C.3   105  PRO105      0.1401
     72  C          2.2890    1.4660   36.7250 C.2   105  PRO105      0.2269
     73  O          1.1580    1.1020   37.1050 O.2   105  PRO105     -0.2865
     74  CB         3.0120    0.7930   34.3990 C.3   105  PRO105      0.0296
     75  CG         1.9220   -0.0620   34.0130 C.3   105  PRO105      0.0237
     76  CD         2.0770   -1.3230   34.8470 C.3   105  PRO105      0.0939
     77  N          1.6010    4.4790   35.4860 N.3   107  GLY107     -0.1210
     78  CA         0.8470    5.1700   34.4920 C.3   107  GLY107      0.1956
     79  C          1.4100    5.0490   33.1010 C.2   107  GLY107      0.2611
     80  O          2.3850    4.3720   32.8530 O.2   107  GLY107     -0.2717
     81  N          0.7500    5.7190   32.1720 N.am  108  MET108     -0.1979
     82  CA         1.1790    5.6830   30.7960 C.3   108  MET108      0.1605
     83  C          1.6420    7.0880   30.4630 C.2   108  MET108      0.2287
     84  O          0.8150    7.9530   30.1130 O.2   108  MET108     -0.2864
     85  CB         0.0100    5.2640   29.9210 C.3   108  MET108      0.0413
     86  CG        -0.3350    3.7780   30.0550 C.3   108  MET108      0.0598
     87  SD        -1.8720    3.3610   29.2090 S.3   108  MET108     -0.1393
     88  CE        -3.1490    3.8110   30.3710 C.3   108  MET108      0.0692
@<TRIPOS>BOND
     1     4     3    2
     2     3     2    1
     3     2     1    1
     4     2     5    1
     5    11    12    2
     6    11    10    1
     7    26    25    2
     8    23    24    1
     9    25    24    1
    10    47    46    2
    11    24    27    1
    12     9    10    1
    13    10    13    1
    14     5     6    1
    15    33    32    2
    16    46    45    1
    17    44    45    1
    18    30    31    1
    19    45    48    1
    20    32    31    1
    21    27    29    1
    22    27    28    1
    23    13    14    1
    24     6     7   ar
    25     6     8   ar
    26    14    15   ar
    27    14    16   ar
    28    15    17   ar
    29    16    19   ar
    30    16    18   ar
    31    31    34    1
    32    17    18   ar
    33    19    21   ar
    34    18    20   ar
    35    21    22   ar
    36    20    22   ar
    37    52    53    1
    38    87    86    1
    39    87    88    1
    40    48    49    1
    41    34    35    1
    42    85    86    1
    43    85    82    1
    44    36    35   ar
    45    36    38   ar
    46    61    59   ar
    47    61    60   ar
    48    84    83    2
    49    59    57   ar
    50    49    50    2
    51    49    51   am
    52    35    37   ar
    53    83    82    1
    54    53    56    1
    55    53    54    1
    56    60    58   ar
    57    57    56    1
    58    57    58   ar
    59    82    81    1
    60    38    39   ar
    61    55    54    2
    62    37    39   ar
    63    37    40   ar
    64    39    41   ar
    65    40    42   ar
    66    81    79   am
    67    41    43   ar
    68    42    43   ar
    69    80    79    2
    70    79    78    1
    71    75    74    1
    72    75    76    1
    73    74    71    1
    74    78    77    1
    75    76    70    1
    76    71    70    1
    77    71    72    1
    78    70    64   am
    79    72    73    2
    80    64    63    1
    81    64    65    2
    82    63    62    1
    83    63    66    1
    84    68    66    1
    85    66    67    1
    86    67    69    1
