@<TRIPOS>MOLECULE
tmp/3fo3B06.pdb
 83 79 0 0 0
SMALL
GASTEIGER

@<TRIPOS>ATOM
      1  N        -15.7900   67.4220  122.9820 N.3   165  GLN165     -0.1245
      2  CA       -14.5420   68.0870  122.6370 C.3   165  GLN165      0.1566
      3  C        -14.7670   69.5910  122.6420 C.2   165  GLN165      0.2260
      4  O        -15.5690   70.1240  121.8510 O.2   165  GLN165     -0.2867
      5  CB       -14.0350   67.6360  121.2770 C.3   165  GLN165      0.0367
      6  CG       -13.3180   66.3270  121.2990 C.3   165  GLN165      0.0905
      7  CD       -11.8560   66.4980  121.6850 C.2   165  GLN165      0.2608
      8  OE1      -11.5590   66.9650  122.7760 O.2   165  GLN165     -0.2717
      9  NE2      -10.9440   66.1060  120.7880 N.am  165  GLN165     -0.0878
     10  N         -8.9680   70.6220  118.9250 N.3   174  THR174     -0.1203
     11  CA        -9.6300   69.3970  119.3250 C.3   174  THR174      0.1994
     12  C         -9.5440   68.3920  118.1880 C.2   174  THR174      0.2618
     13  O        -10.5510   67.8220  117.7650 O.2   174  THR174     -0.2717
     14  CB       -11.0830   69.6860  119.7340 C.3   174  THR174      0.1784
     15  OG1      -11.7400   70.4060  118.6850 O.3   174  THR174     -0.2211
     16  CG2      -11.1220   70.4870  121.0140 C.3   174  THR174      0.0376
     17  N         -8.3320   68.1290  117.7100 N.am  175  ALA175     -0.1965
     18  CA        -8.1150   67.2530  116.5640 C.3   175  ALA175      0.1728
     19  C         -8.2740   65.7760  116.8940 C.2   175  ALA175      0.2616
     20  O         -8.4330   64.9560  115.9950 O.2   175  ALA175     -0.2715
     21  CB        -6.7280   67.5060  115.9720 C.3   175  ALA175      0.0334
     22  N         -8.1610   65.4040  118.1630 N.am  176  ALA176     -0.1963
     23  CA        -8.2140   63.9900  118.5050 C.3   176  ALA176      0.1728
     24  C         -9.5540   63.3860  118.0740 C.2   176  ALA176      0.2616
     25  O        -10.6070   64.0300  118.1820 O.2   176  ALA176     -0.2715
     26  CB        -7.9650   63.7450  119.9840 C.3   176  ALA176      0.0334
     27  N         -9.4650   62.1450  117.6450 N.am  177  ASN177     -0.1959
     28  CA       -10.6210   61.3240  117.3020 C.3   177  ASN177      0.1804
     29  C        -10.2470   59.8830  117.6130 C.2   177  ASN177      0.2463
     30  O         -9.0950   59.5880  117.9250 O.2   177  ASN177     -0.2730
     31  CB       -10.9970   61.5250  115.8370 C.3   177  ASN177      0.1195
     32  CG        -9.9040   61.0700  114.9370 C.2   177  ASN177      0.2630
     33  OD1       -9.6550   59.8780  114.8230 O.2   177  ASN177     -0.2716
     34  ND2       -9.2140   62.0100  114.3140 N.am  177  ASN177     -0.0877
     35  N        -11.2240   58.9620  117.6150 N.am  178  PRO178     -0.2727
     36  CA       -10.9200   57.6110  118.0330 C.3   178  PRO178      0.1402
     37  C         -9.8410   56.8850  117.2430 C.2   178  PRO178      0.2269
     38  O         -9.1680   56.0000  117.7860 O.2   178  PRO178     -0.2865
     39  CB       -12.2950   56.9120  117.9680 C.3   178  PRO178      0.0296
     40  CG       -13.2560   58.0230  118.1830 C.3   178  PRO178      0.0237
     41  CD       -12.6750   59.1500  117.4010 C.3   178  PRO178      0.0939
     42  N         -6.9830   57.9400  116.2130 N.3   180  CYS180     -0.1235
     43  CA        -5.6650   58.2520  116.7860 C.3   180  CYS180      0.1677
     44  C         -5.1830   57.1980  117.7740 C.2   180  CYS180      0.2270
     45  O         -4.0110   56.8510  117.8040 O.2   180  CYS180     -0.2867
     46  CB        -5.6910   59.5690  117.5740 C.3   180  CYS180      0.0956
     47  SG        -6.2860   61.0460  116.7830 S.3   180  CYS180     -0.0801
     48  N        -14.6780   60.9070  121.4120 N.3   210  VAL210     -0.1245
     49  CA       -13.2800   60.6080  121.7550 C.3   210  VAL210      0.1561
     50  C        -12.9270   60.8430  123.2280 C.2   210  VAL210      0.2260
     51  O        -12.1190   60.1110  123.7880 O.2   210  VAL210     -0.2867
     52  CB       -12.3230   61.3280  120.7910 C.3   210  VAL210      0.0252
     53  CG1      -12.3130   62.8310  121.0420 C.3   210  VAL210      0.0019
     54  CG2      -10.9010   60.6880  120.8690 C.3   210  VAL210      0.0019
     55  N         -6.1680   59.5760  109.7770 N.3   301  CYS301     -0.1221
     56  CA        -6.7430   59.2360  111.0840 C.3   301  CYS301      0.1808
     57  C         -7.5060   60.4650  111.5140 C.2   301  CYS301      0.2601
     58  O         -7.2500   61.0530  112.5690 O.2   301  CYS301     -0.2717
     59  CB        -5.6790   58.9180  112.1210 C.3   301  CYS301      0.0970
     60  SG        -4.4070   60.1740  112.2800 S.3   301  CYS301     -0.0800
     61  N         -8.4190   60.8970  110.6510 N.am  302  ASN302     -0.1961
     62  CA        -8.9450   62.2420  110.7110 C.3   302  ASN302      0.1804
     63  C         -9.9480   62.4470  109.6050 C.2   302  ASN302      0.2463
     64  O         -9.8740   61.7760  108.6040 O.2   302  ASN302     -0.2730
     65  CB        -7.8210   63.2910  110.5440 C.3   302  ASN302      0.1195
     66  CG        -6.9190   63.0330  109.3400 C.2   302  ASN302      0.2630
     67  OD1       -5.9090   62.3330  109.4480 O.2   302  ASN302     -0.2716
     68  ND2       -7.2490   63.6390  108.1960 N.am  302  ASN302     -0.0877
     69  N        -10.8340   63.4260  109.7780 N.am  303  PRO303     -0.2727
     70  CA       -11.6850   63.8360  108.6730 C.3   303  PRO303      0.1402
     71  C        -10.8850   64.6330  107.6670 C.2   303  PRO303      0.2269
     72  O         -9.7610   65.0920  107.9430 O.2   303  PRO303     -0.2865
     73  CB       -12.7430   64.6940  109.3440 C.3   303  PRO303      0.0296
     74  CG       -12.1600   65.1490  110.5710 C.3   303  PRO303      0.0237
     75  CD       -11.0790   64.2240  110.9730 C.3   303  PRO303      0.0939
     76  N        -15.5060   61.1890  109.9170 N.3   315  MET315     -0.1245
     77  CA       -15.0080   60.0190  110.6330 C.3   315  MET315      0.1570
     78  C        -15.7790   58.7590  110.3030 C.2   315  MET315      0.2261
     79  O        -15.2560   57.6640  110.4110 O.2   315  MET315     -0.2867
     80  CB       -15.0500   60.2380  112.1360 C.3   315  MET315      0.0387
     81  CG       -14.0490   61.2930  112.6610 C.3   315  MET315      0.0595
     82  SD       -12.3290   61.0260  112.1720 S.3   315  MET315     -0.1393
     83  CE       -12.0830   59.3330  112.6960 C.3   315  MET315      0.0692
@<TRIPOS>BOND
     1    71    72    2
     2    71    70    1
     3    68    66   am
     4    64    63    2
     5    70    73    1
     6    70    69    1
     7    66    67    2
     8    66    65    1
     9    73    74    1
    10    63    69   am
    11    63    62    1
    12    55    56    1
    13    69    75    1
    14    76    77    1
    15    78    79    2
    16    78    77    1
    17    65    62    1
    18    74    75    1
    19    77    80    1
    20    61    62    1
    21    61    57   am
    22    56    57    1
    23    56    59    1
    24    57    58    2
    25    59    60    1
    26    80    81    1
    27    82    81    1
    28    82    83    1
    29    34    32   am
    30    33    32    2
    31    32    31    1
    32    31    28    1
    33    21    18    1
    34    20    19    2
    35    42    43    1
    36    18    19    1
    37    18    17    1
    38    47    46    1
    39    43    46    1
    40    43    44    1
    41    19    22   am
    42    37    38    2
    43    37    36    1
    44    28    29    1
    45    28    27    1
    46    41    35    1
    47    41    40    1
    48    29    35   am
    49    29    30    2
    50    35    36    1
    51    27    24   am
    52    17    12   am
    53    13    12    2
    54    44    45    2
    55    39    36    1
    56    39    40    1
    57    24    25    2
    58    24    23    1
    59    22    23    1
    60    12    11    1
    61    23    26    1
    62    15    14    1
    63    10    11    1
    64    11    14    1
    65    14    16    1
    66     9     7   am
    67    52    54    1
    68    52    53    1
    69    52    49    1
    70     5     6    1
    71     5     2    1
    72     6     7    1
    73    48    49    1
    74     7     8    2
    75    49    50    1
    76     4     3    2
    77     2     3    1
    78     2     1    1
    79    50    51    2
