@<TRIPOS>MOLECULE
tmp/3fo3B00.pdb
 110 105 0 0 0
SMALL
GASTEIGER

@<TRIPOS>ATOM
      1  N        -11.3380   66.1580  103.2260 N.3   305  TYR305     -0.1241
      2  CA       -12.1610   66.6700  102.1150 C.3   305  TYR305      0.1605
      3  C        -11.8270   65.9210  100.8570 C.2   305  TYR305      0.2264
      4  O        -10.7640   65.3500  100.7410 O.2   305  TYR305     -0.2867
      5  CB       -11.9020   68.1530  101.8790 C.3   305  TYR305      0.0534
      6  CG       -12.1210   68.9980  103.0850 C.ar  305  TYR305     -0.0201
      7  CD1      -13.3710   69.4910  103.4290 C.ar  305  TYR305     -0.0009
      8  CD2      -11.0460   69.2730  103.9540 C.ar  305  TYR305     -0.0009
      9  CE1      -13.5350   70.2610  104.5890 C.ar  305  TYR305      0.0417
     10  CE2      -11.2120   70.0160  105.0920 C.ar  305  TYR305      0.0417
     11  CZ       -12.4430   70.5130  105.4140 C.ar  305  TYR305      0.1957
     12  OH       -12.5440   71.2810  106.5730 O.3   305  TYR305     -0.2866
     13  N        -10.7220   65.7810   96.9950 N.3   307  LEU307     -0.1231
     14  CA       -10.0430   66.5560   95.9660 C.3   307  LEU307      0.1693
     15  C        -10.9820   66.9010   94.8070 C.2   307  LEU307      0.2593
     16  O        -10.8690   67.9720   94.2120 O.2   307  LEU307     -0.2718
     17  CB        -8.8300   65.7990   95.4430 C.3   307  LEU307      0.0284
     18  CG        -7.5740   65.8130   96.3310 C.3   307  LEU307      0.0019
     19  CD1       -6.6010   64.7190   95.9320 C.3   307  LEU307      0.0001
     20  CD2       -6.8640   67.1820   96.2830 C.3   307  LEU307      0.0001
     21  N        -11.8820   65.9820   94.4840 N.am  308  SER308     -0.1938
     22  CA       -12.7470   66.1470   93.3070 C.3   308  SER308      0.2055
     23  C        -13.6970   67.3170   93.4760 C.2   308  SER308      0.2643
     24  O        -13.8100   68.1620   92.5770 O.2   308  SER308     -0.2714
     25  CB       -13.5220   64.8580   93.0770 C.3   308  SER308      0.2130
     26  OG       -14.3560   64.5510   94.1630 O.3   308  SER308     -0.2179
     27  N        -14.3890   67.3860   94.6090 N.am  309  ASP309     -0.1957
     28  CA       -15.4240   68.4060   94.7890 C.3   309  ASP309      0.1840
     29  C        -15.3790   69.1940   96.0860 C.2   309  ASP309      0.2622
     30  O        -16.2410   70.0260   96.3500 O.2   309  ASP309     -0.2715
     31  CB       -16.8060   67.7760   94.6030 C.3   309  ASP309      0.1450
     32  CG       -17.1880   66.8000   95.7150 C.2   309  ASP309      0.3671
     33  OD1      -16.3590   66.4870   96.6170 O.co2 309  ASP309     -0.2456
     34  OD2      -18.3470   66.3370   95.7190 O.co2 309  ASP309     -0.2456
     35  N        -14.3540   68.9510   96.9140 N.am  310  GLY310     -0.1954
     36  CA       -14.2470   69.6530   98.1700 C.3   310  GLY310      0.1869
     37  C        -15.1890   69.2210   99.2770 C.2   310  GLY310      0.2309
     38  O        -15.2020   69.8350  100.3420 O.2   310  GLY310     -0.2863
     39  N         -7.9810   65.0080  100.5970 N.3   341  PHE341     -0.1241
     40  CA        -6.9470   65.8900  101.1330 C.3   341  PHE341      0.1605
     41  C         -7.3040   66.3090  102.5300 C.2   341  PHE341      0.2264
     42  O         -8.4270   66.1320  103.0050 O.2   341  PHE341     -0.2867
     43  CB        -6.6740   67.0890  100.2290 C.3   341  PHE341      0.0534
     44  CG        -7.7580   68.1390  100.2190 C.ar  341  PHE341     -0.0203
     45  CD1       -8.8230   68.0670   99.3170 C.ar  341  PHE341     -0.0042
     46  CD2       -7.6790   69.2550  101.0380 C.ar  341  PHE341     -0.0042
     47  CE1       -9.7750   69.0690   99.2870 C.ar  341  PHE341     -0.0003
     48  CE2       -8.6280   70.2450  101.0040 C.ar  341  PHE341     -0.0003
     49  CZ        -9.6800   70.1510  100.1080 C.ar  341  PHE341     -0.0000
     50  N         -7.1730   72.9810  103.7140 N.3   344  ARG344     -0.1245
     51  CA        -6.9230   74.0510  102.7670 C.3   344  ARG344      0.1563
     52  C         -5.9950   75.0550  103.4240 C.2   344  ARG344      0.2260
     53  O         -6.2480   75.5120  104.5210 O.2   344  ARG344     -0.2867
     54  CB        -8.2250   74.7340  102.3620 C.3   344  ARG344      0.0307
     55  CG        -8.0300   75.5570  101.1770 C.3   344  ARG344      0.0489
     56  CD        -9.3620   76.0590  100.5980 C.3   344  ARG344      0.2205
     57  NE       -10.2810   74.9870  100.1940 N.pl3 344  ARG344     -0.0865
     58  CZ       -10.2040   74.2820   99.0590 C.cat 344  ARG344      0.5346
     59  NH1       -9.2340   74.4660   98.1730 N.pl3 344  ARG344      0.1354
     60  NH2      -11.1260   73.3760   98.7850 N.pl3 344  ARG344      0.1354
     61  N         -4.8250   76.5200   98.7250 N.3   350  ALA350     -0.1231
     62  CA        -4.5720   75.2430   98.1080 C.3   350  ALA350      0.1694
     63  C         -5.0730   74.0950   98.9750 C.2   350  ALA350      0.2591
     64  O         -4.8560   74.0920  100.1870 O.2   350  ALA350     -0.2718
     65  CB        -3.0700   75.0500   97.8730 C.3   350  ALA350      0.0304
     66  N         -5.6930   73.0980   98.3530 N.am  351  ALA351     -0.1980
     67  CA        -5.9160   71.8260   98.9870 C.3   351  ALA351      0.1597
     68  C         -4.5680   71.1500   99.1970 C.2   351  ALA351      0.2287
     69  O         -3.7610   71.0570   98.2640 O.2   351  ALA351     -0.2864
     70  CB        -6.8210   70.9370   98.1040 C.3   351  ALA351      0.0319
     71  N         -5.2130   79.1820   90.7760 N.3   462  ASN462     -0.1240
     72  CA        -5.4330   77.7400   90.8290 C.3   462  ASN462      0.1653
     73  C         -4.2640   76.9370   90.2650 C.2   462  ASN462      0.2266
     74  O         -3.9170   75.8750   90.7960 O.2   462  ASN462     -0.2867
     75  CB        -6.7840   77.3590   90.1780 C.3   462  ASN462      0.1155
     76  CG        -7.9600   77.6870   91.0730 C.2   462  ASN462      0.2627
     77  OD1       -7.8900   77.5930   92.3120 O.2   462  ASN462     -0.2716
     78  ND2       -9.0760   78.0440   90.4490 N.am  462  ASN462     -0.0877
     79  N         -1.8950   76.9510   93.0790 N.3   465  ARG465     -0.1231
     80  CA        -2.3800   76.0280   94.1010 C.3   465  ARG465      0.1694
     81  C         -2.0430   74.5860   93.7630 C.2   465  ARG465      0.2591
     82  O         -1.7100   73.8010   94.6560 O.2   465  ARG465     -0.2718
     83  CB        -3.8830   76.1880   94.3070 C.3   465  ARG465      0.0321
     84  CG        -4.2220   77.4610   94.9890 C.3   465  ARG465      0.0489
     85  CD        -5.7100   77.7620   94.9460 C.3   465  ARG465      0.2205
     86  NE        -5.9850   79.0210   95.6020 N.pl3 465  ARG465     -0.0865
     87  CZ        -6.8330   79.9510   95.1920 C.cat 465  ARG465      0.5346
     88  NH1       -7.5950   79.7820   94.1150 N.pl3 465  ARG465      0.1354
     89  NH2       -6.9260   81.0630   95.8930 N.pl3 465  ARG465      0.1354
     90  N         -2.1340   74.2100   92.4980 N.am  466  GLU466     -0.1979
     91  CA        -1.7700   72.8750   92.1140 C.3   466  GLU466      0.1602
     92  C         -0.2760   72.6330   92.3470 C.2   466  GLU466      0.2287
     93  O          0.1170   71.5510   92.7680 O.2   466  GLU466     -0.2864
     94  CB        -2.1420   72.6230   90.6510 C.3   466  GLU466      0.0415
     95  CG        -3.6300   72.5830   90.4090 C.3   466  GLU466      0.1163
     96  CD        -4.2890   71.3240   90.9450 C.2   466  GLU466      0.3649
     97  OE1       -3.5760   70.3680   91.3490 O.co2 466  GLU466     -0.2457
     98  OE2       -5.5340   71.2960   90.9700 O.co2 466  GLU466     -0.2457
     99  N          0.4180   72.0040   96.1310 N.3   469  TYR469     -0.1241
    100  CA         0.2360   70.6480   96.6040 C.3   469  TYR469      0.1605
    101  C          1.5460   69.8710   96.5260 C.2   469  TYR469      0.2264
    102  O          1.9690   69.2280   97.5040 O.2   469  TYR469     -0.2867
    103  CB        -0.8480   69.9310   95.7980 C.3   469  TYR469      0.0534
    104  CG        -1.1840   68.5590   96.3290 C.ar  469  TYR469     -0.0201
    105  CD1       -0.3380   67.4830   96.1050 C.ar  469  TYR469     -0.0009
    106  CD2       -2.3250   68.3500   97.0960 C.ar  469  TYR469     -0.0009
    107  CE1       -0.6160   66.2200   96.6270 C.ar  469  TYR469      0.0417
    108  CE2       -2.6320   67.0700   97.5960 C.ar  469  TYR469      0.0417
    109  CZ        -1.7630   66.0160   97.3630 C.ar  469  TYR469      0.1957
    110  OH        -2.0240   64.7520   97.8750 O.3   469  TYR469     -0.2866
@<TRIPOS>BOND
     1    75    72    1
     2    75    76    1
     3    73    74    2
     4    73    72    1
     5    95    94    1
     6    95    96    1
     7    78    76   am
     8    94    91    1
     9    71    72    1
    10    96    98   ar
    11    96    97   ar
    12    76    77    2
    13    91    92    1
    14    91    90    1
    15    92    93    2
    16    90    81   am
    17    24    23    2
    18    25    22    1
    19    25    26    1
    20    79    80    1
    21    22    23    1
    22    22    21    1
    23    23    27   am
    24    81    80    1
    25    81    82    2
    26    80    83    1
    27    88    87    1
    28    16    15    2
    29    83    84    1
    30    21    15   am
    31    31    28    1
    32    31    32    1
    33    27    28    1
    34    28    29    1
    35    15    14    1
    36    85    84    1
    37    85    86    1
    38    87    86    2
    39    87    89    1
    40    17    14    1
    41    17    18    1
    42    32    34   ar
    43    32    33   ar
    44   103   104    1
    45   103   100    1
    46    19    18    1
    47    14    13    1
    48    29    30    2
    49    29    35   am
    50   105   104   ar
    51   105   107   ar
    52    99   100    1
    53    20    18    1
    54   104   106   ar
    55   101   100    1
    56   101   102    2
    57   107   109   ar
    58    35    36    1
    59   106   108   ar
    60   109   108   ar
    61   109   110    1
    62    65    62    1
    63    70    67    1
    64    62    61    1
    65    62    63    1
    66    36    37    1
    67    59    58    1
    68    69    68    2
    69    66    63   am
    70    66    67    1
    71    60    58    1
    72    63    64    2
    73    67    68    1
    74    58    57    2
    75    37    38    2
    76    47    45   ar
    77    47    49   ar
    78    45    44   ar
    79    49    48   ar
    80    57    56    1
    81    44    43    1
    82    44    46   ar
    83    43    40    1
    84    39    40    1
    85    56    55    1
    86     4     3    2
    87     3     2    1
    88    48    46   ar
    89    40    41    1
    90    55    54    1
    91     5     2    1
    92     5     6    1
    93     2     1    1
    94    54    51    1
    95    41    42    2
    96    51    52    1
    97    51    50    1
    98     6     7   ar
    99     6     8   ar
   100    52    53    2
   101     7     9   ar
   102     8    10   ar
   103     9    11   ar
   104    10    11   ar
   105    11    12    1
