@<TRIPOS>MOLECULE
tmp/3fo3B02.pdb
 81 79 0 0 0
SMALL
GASTEIGER

@<TRIPOS>ATOM
      1  N         -4.0970   28.4160  138.6490 N.3     4  PRO4       -0.2116
      2  CA        -4.3580   28.1260  137.2380 C.3     4  PRO4        0.1372
      3  C         -5.7810   27.6170  137.0160 C.2     4  PRO4        0.2244
      4  O         -6.3780   26.9890  137.9230 O.2     4  PRO4       -0.2868
      5  CB        -3.3410   27.0310  136.9080 C.3     4  PRO4        0.0268
      6  CG        -3.0650   26.3700  138.2090 C.3     4  PRO4        0.0207
      7  CD        -3.1630   27.4450  139.2430 C.3     4  PRO4        0.0892
      8  N         -7.5090   25.0830  131.1450 N.3     7  ALA7       -0.1231
      9  CA        -7.5640   25.5940  129.7710 C.3     7  ALA7        0.1694
     10  C         -8.3900   24.7080  128.8380 C.2     7  ALA7        0.2591
     11  O         -8.9010   25.1800  127.8350 O.2     7  ALA7       -0.2718
     12  CB        -6.1580   25.7740  129.1950 C.3     7  ALA7        0.0304
     13  N         -8.5240   23.4240  129.1660 N.am    8  MET8       -0.1979
     14  CA        -9.3070   22.5210  128.3090 C.3     8  MET8        0.1605
     15  C        -10.7690   22.9310  128.2630 C.2     8  MET8        0.2287
     16  O        -11.4320   22.7940  127.2210 O.2     8  MET8       -0.2864
     17  CB        -9.1950   21.0810  128.7900 C.3     8  MET8        0.0413
     18  CG        -7.8210   20.4940  128.7590 C.3     8  MET8        0.0598
     19  SD        -6.8880   20.7460  127.2420 S.3     8  MET8       -0.1393
     20  CE        -7.9600   20.0130  125.9970 C.3     8  MET8        0.0692
     21  N        -10.8790   25.6350  125.7260 N.3    11  PHE11      -0.1241
     22  CA       -10.5960   25.1460  124.3910 C.3    11  PHE11       0.1605
     23  C        -11.8020   24.4910  123.7300 C.2    11  PHE11       0.2264
     24  O        -11.8820   24.4500  122.5190 O.2    11  PHE11      -0.2867
     25  CB        -9.4190   24.1850  124.4010 C.3    11  PHE11       0.0534
     26  CG        -8.0810   24.8330  124.7190 C.ar   11  PHE11      -0.0203
     27  CD1       -7.8470   26.1970  124.5080 C.ar   11  PHE11      -0.0042
     28  CD2       -7.0500   24.0520  125.1900 C.ar   11  PHE11      -0.0042
     29  CE1       -6.5760   26.7410  124.7990 C.ar   11  PHE11      -0.0003
     30  CE2       -5.7840   24.6010  125.4660 C.ar   11  PHE11      -0.0003
     31  CZ        -5.5690   25.9480  125.2460 C.ar   11  PHE11      -0.0000
     32  N         -2.2980   28.4260  120.9350 N.3    21  HIS21      -0.1226
     33  CA        -1.6750   28.2800  122.2580 C.3    21  HIS21       0.1752
     34  C         -0.9710   26.9560  122.4400 C.2    21  HIS21       0.2596
     35  O          0.1200   26.8810  122.9860 O.2    21  HIS21      -0.2718
     36  CB        -2.7400   28.4880  123.3220 C.3    21  HIS21       0.0759
     37  CG        -2.2270   28.5590  124.7210 C.ar   21  HIS21       0.0818
     38  ND1       -2.0520   27.4380  125.5080 N.ar   21  HIS21      -0.2268
     39  CD2       -1.8880   29.6210  125.4930 C.ar   21  HIS21       0.1154
     40  CE1       -1.6180   27.8090  126.7010 C.ar   21  HIS21       0.1986
     41  NE2       -1.5150   29.1260  126.7190 N.ar   21  HIS21      -0.2212
     42  N         -1.5900   25.8690  121.9750 N.am   22  THR22      -0.1953
     43  CA        -1.0040   24.5630  122.2250 C.3    22  THR22       0.1897
     44  C          0.2770   24.3150  121.4380 C.2    22  THR22       0.2313
     45  O          1.0990   23.5020  121.8260 O.2    22  THR22      -0.2863
     46  CB        -2.0290   23.4200  121.9580 C.3    22  THR22       0.1794
     47  OG1       -2.3650   23.4350  120.5830 O.3    22  THR22      -0.2208
     48  CG2       -3.2600   23.5970  122.8040 C.3    22  THR22       0.0378
     49  N          2.6630   27.5900  125.3410 N.3    27  ALA27      -0.1231
     50  CA         1.8040   26.4330  125.6210 C.3    27  ALA27       0.1694
     51  C          1.6960   26.1160  127.0980 C.2    27  ALA27       0.2593
     52  O          0.6850   25.5870  127.5570 O.2    27  ALA27      -0.2718
     53  CB         2.2990   25.2190  124.8430 C.3    27  ALA27       0.0304
     54  N          2.7190   26.4780  127.8770 N.am   28  THR28      -0.1939
     55  CA         2.6990   26.2510  129.3110 C.3    28  THR28       0.2028
     56  C          2.2180   27.4460  130.1280 C.2    28  THR28       0.2642
     57  O          2.1880   27.3720  131.3500 O.2    28  THR28      -0.2714
     58  CB         4.0820   25.8570  129.8420 C.3    28  THR28       0.1808
     59  OG1        4.9640   26.9930  129.7380 O.3    28  THR28      -0.2208
     60  CG2        4.6830   24.6870  129.0650 C.3    28  THR28       0.0379
     61  N          1.8290   28.5320  129.4630 N.am   29  VAL29      -0.1963
     62  CA         1.4290   29.7510  130.1480 C.3    29  VAL29       0.1727
     63  C         -0.0920   29.7220  130.3520 C.2    29  VAL29       0.2616
     64  O         -0.9050   29.7970  129.4120 O.2    29  VAL29      -0.2715
     65  CB         1.8930   31.0360  129.4170 C.3    29  VAL29       0.0290
     66  CG1        1.4120   32.2760  130.2040 C.3    29  VAL29       0.0023
     67  CG2        3.4110   31.0330  129.2500 C.3    29  VAL29       0.0023
     68  N         -0.4940   29.6040  131.5970 N.am   30  ASN30      -0.1958
     69  CA        -1.9050   29.4910  131.8980 C.3    30  ASN30       0.1819
     70  C         -2.7090   30.7490  131.6860 C.2    30  ASN30       0.2621
     71  O         -2.2400   31.8570  131.9260 O.2    30  ASN30      -0.2715
     72  CB        -2.0990   28.9780  133.3300 C.3    30  ASN30       0.1195
     73  CG        -3.5380   28.5570  133.6020 C.2    30  ASN30       0.2630
     74  OD1       -4.3370   29.3150  134.1470 O.2    30  ASN30      -0.2716
     75  ND2       -3.8740   27.3410  133.1720 N.am   30  ASN30      -0.0877
     76  N         -3.9620   30.5710  131.2630 N.am   31  CYS31      -0.1968
     77  CA        -4.8420   31.6760  130.9470 C.3    31  CYS31       0.1712
     78  C         -5.0180   32.6770  132.0800 C.2    31  CYS31       0.2296
     79  O         -5.2950   33.8510  131.8350 O.2    31  CYS31      -0.2864
     80  CB        -6.2300   31.1700  130.5130 C.3    31  CYS31       0.0983
     81  SG        -6.2330   29.6490  129.5150 S.3    31  CYS31      -0.0798
@<TRIPOS>BOND
     1    47    46    1
     2    32    33    1
     3    44    45    2
     4    44    43    1
     5    46    43    1
     6    46    48    1
     7    42    43    1
     8    42    34   am
     9    33    34    1
    10    33    36    1
    11    34    35    2
    12    24    23    2
    13    36    37    1
    14    23    22    1
    15    22    25    1
    16    22    21    1
    17    25    26    1
    18    27    26   ar
    19    27    29   ar
    20    26    28   ar
    21    37    39   ar
    22    37    38   ar
    23    29    31   ar
    24    53    50    1
    25    28    30   ar
    26    31    30   ar
    27    49    50    1
    28    39    41   ar
    29    38    40   ar
    30    50    51    1
    31    20    19    1
    32    40    41   ar
    33    51    52    2
    34    51    54   am
    35    16    15    2
    36    19    18    1
    37    11    10    2
    38    54    55    1
    39    15    14    1
    40    14    17    1
    41    14    13    1
    42    18    17    1
    43    10    13   am
    44    10     9    1
    45    60    58    1
    46    12     9    1
    47    67    65    1
    48    55    58    1
    49    55    56    1
    50    64    63    2
    51    65    62    1
    52    65    66    1
    53    61    56   am
    54    61    62    1
    55    81    80    1
    56    59    58    1
    57     9     8    1
    58    56    57    2
    59    62    63    1
    60    63    68   am
    61    80    77    1
    62    77    76    1
    63    77    78    1
    64    76    70   am
    65    68    69    1
    66    70    69    1
    67    70    71    2
    68    79    78    2
    69    69    72    1
    70    75    73   am
    71    72    73    1
    72    73    74    2
    73     5     2    1
    74     5     6    1
    75     3     2    1
    76     3     4    2
    77     2     1    1
    78     6     7    1
    79     1     7    1
