@<TRIPOS>MOLECULE
tmp/3fo5A01.pdb
 88 83 0 0 0
SMALL
GASTEIGER

@<TRIPOS>ATOM
      1  N         35.5260   35.1460   67.7520 N.3     4  TYR4       -0.1241
      2  CA        34.5050   36.0080   67.1860 C.3     4  TYR4        0.1605
      3  C         33.1260   35.3540   67.1560 C.2     4  TYR4        0.2264
      4  O         32.1370   36.0180   67.4050 O.2     4  TYR4       -0.2867
      5  CB        34.9280   36.4630   65.7940 C.3     4  TYR4        0.0534
      6  CG        36.1050   37.4020   65.8460 C.ar    4  TYR4       -0.0201
      7  CD1       35.9270   38.7440   66.1450 C.ar    4  TYR4       -0.0009
      8  CD2       37.3990   36.9450   65.6270 C.ar    4  TYR4       -0.0009
      9  CE1       37.0060   39.6110   66.2210 C.ar    4  TYR4        0.0417
     10  CE2       38.4870   37.8110   65.6890 C.ar    4  TYR4        0.0417
     11  CZ        38.2780   39.1450   65.9850 C.ar    4  TYR4        0.1957
     12  OH        39.3480   40.0170   66.0560 O.3     4  TYR4       -0.2866
     13  N         31.7830   35.4160   70.7250 N.3     7  ALA7       -0.1231
     14  CA        31.2270   36.7460   70.9780 C.3     7  ALA7        0.1694
     15  C         29.8150   36.8400   70.4290 C.2     7  ALA7        0.2592
     16  O         28.9100   37.2480   71.1400 O.2     7  ALA7       -0.2718
     17  CB        32.0860   37.8300   70.3540 C.3     7  ALA7        0.0304
     18  N         29.6500   36.5050   69.1470 N.am    8  SER8       -0.1952
     19  CA        28.3170   36.4280   68.5270 C.3     8  SER8        0.1924
     20  C         27.3220   35.6350   69.3740 C.2     8  SER8        0.2314
     21  O         26.2300   36.1280   69.6530 O.2     8  SER8       -0.2863
     22  CB        28.3990   35.7800   67.1420 C.3     8  SER8        0.2116
     23  OG        29.0510   36.6320   66.2200 O.3     8  SER8       -0.2180
     24  N         26.2500   37.4320   72.4370 N.3    11  LYS11      -0.1245
     25  CA        25.4200   38.5490   72.1120 C.3    11  LYS11       0.1561
     26  C         23.9960   38.0800   71.9140 C.2    11  LYS11       0.2260
     27  O         23.0930   38.7130   72.4130 O.2    11  LYS11      -0.2867
     28  CB        25.9260   39.2820   70.8770 C.3    11  LYS11       0.0271
     29  CG        25.0800   40.4850   70.5500 C.3    11  LYS11       0.0035
     30  CD        25.6800   41.4320   69.5350 C.3    11  LYS11       0.0206
     31  CE        24.7170   42.5580   69.2380 C.3    11  LYS11       0.1093
     32  NZ        25.2460   43.5840   68.2920 N.3    11  LYS11      -0.1314
     33  N         22.4270   37.4140   75.3240 N.3    14  ARG14      -0.1245
     34  CA        22.0940   38.6840   75.9940 C.3    14  ARG14       0.1563
     35  C         20.7810   39.2430   75.4510 C.2    14  ARG14       0.2260
     36  O         19.8540   39.5630   76.2060 O.2    14  ARG14      -0.2867
     37  CB        23.2130   39.7190   75.8160 C.3    14  ARG14       0.0307
     38  CG        22.8590   41.0820   76.4230 C.3    14  ARG14       0.0489
     39  CD        24.0160   42.0880   76.4000 C.3    14  ARG14       0.2205
     40  NE        24.3250   42.5690   75.0480 N.pl3  14  ARG14      -0.0865
     41  CZ        23.5590   43.3830   74.3310 C.cat  14  ARG14       0.5346
     42  NH1       22.3980   43.8410   74.7940 N.pl3  14  ARG14       0.1354
     43  NH2       23.9560   43.7390   73.1220 N.pl3  14  ARG14       0.1354
     44  N         25.5050   51.2400   64.7480 N.3    61  LEU61      -0.1231
     45  CA        25.9290   50.4410   63.5960 C.3    61  LEU61       0.1693
     46  C         26.4750   49.1320   64.1080 C.2    61  LEU61       0.2593
     47  O         27.5170   49.1370   64.7440 O.2    61  LEU61      -0.2718
     48  CB        26.9880   51.1730   62.7580 C.3    61  LEU61       0.0284
     49  CG        27.6040   50.3590   61.6170 C.3    61  LEU61       0.0019
     50  CD1       26.5300   49.9090   60.6650 C.3    61  LEU61       0.0001
     51  CD2       28.6970   51.1110   60.8720 C.3    61  LEU61       0.0001
     52  N         25.7850   48.0170   63.8470 N.am   62  SER62      -0.1938
     53  CA        26.1530   46.7110   64.4220 C.3    62  SER62       0.2055
     54  C         27.0820   45.8420   63.5700 C.2    62  SER62       0.2644
     55  O         27.9150   45.0940   64.1050 O.2    62  SER62      -0.2714
     56  CB        24.9020   45.9340   64.8120 C.3    62  SER62       0.2130
     57  OG        24.1970   46.6500   65.8200 O.3    62  SER62      -0.2179
     58  N         26.9580   45.9530   62.2540 N.am   63  SER63      -0.1935
     59  CA        27.8550   45.2470   61.3520 C.3    63  SER63       0.2055
     60  C         27.8080   45.8490   59.9540 C.2    63  SER63       0.2642
     61  O         26.9240   46.6570   59.6500 O.2    63  SER63      -0.2714
     62  CB        27.4760   43.7590   61.3000 C.3    63  SER63       0.2130
     63  OG        26.1400   43.5820   60.8850 O.3    63  SER63      -0.2179
     64  N         28.7480   45.4320   59.1160 N.am   64  GLU64      -0.1976
     65  CA        28.7890   45.8140   57.7130 C.3    64  GLU64       0.1602
     66  C         29.4950   44.7520   56.8790 C.2    64  GLU64       0.2287
     67  O         30.4940   44.2080   57.2900 O.2    64  GLU64      -0.2864
     68  CB        29.5160   47.1460   57.5250 C.3    64  GLU64       0.0415
     69  CG        29.9150   47.4260   56.0550 C.3    64  GLU64       0.1163
     70  CD        30.6420   48.7480   55.8530 C.2    64  GLU64       0.3649
     71  OE1       31.6260   48.7620   55.0700 O.co2  64  GLU64      -0.2457
     72  OE2       30.2220   49.7630   56.4600 O.co2  64  GLU64      -0.2457
     73  N         21.2360   39.7760   64.0870 N.3   217  VAL217     -0.1231
     74  CA        21.8500   40.9430   64.7250 C.3   217  VAL217      0.1692
     75  C         23.1340   40.5960   65.4710 C.2   217  VAL217      0.2592
     76  O         24.1310   41.3210   65.4090 O.2   217  VAL217     -0.2718
     77  CB        20.7930   41.6480   65.6210 C.3   217  VAL217      0.0266
     78  CG1       21.4510   42.5520   66.6410 C.3   217  VAL217      0.0020
     79  CG2       19.8470   42.3830   64.7070 C.3   217  VAL217      0.0020
     80  N         23.1260   39.4380   66.1190 N.am  218  ALA218     -0.1966
     81  CA        24.2930   38.9360   66.8140 C.3   218  ALA218      0.1728
     82  C         25.4040   38.5450   65.8410 C.2   218  ALA218      0.2616
     83  O         26.5280   38.3850   66.2610 O.2   218  ALA218     -0.2715
     84  CB        23.9160   37.7250   67.7060 C.3   218  ALA218      0.0334
     85  N         25.0760   38.3430   64.5660 N.am  219  GLY219     -0.1955
     86  CA        26.0550   37.9330   63.5540 C.3   219  GLY219      0.1869
     87  C         26.2130   36.4230   63.3940 C.2   219  GLY219      0.2309
     88  O         27.1420   35.9660   62.7240 O.2   219  GLY219     -0.2863
@<TRIPOS>BOND
     1    71    70   ar
     2    70    69    1
     3    70    72   ar
     4    69    68    1
     5    66    67    2
     6    66    65    1
     7    68    65    1
     8    65    64    1
     9    64    60   am
    10    61    60    2
    11    60    59    1
    12    50    49    1
    13    51    49    1
    14    63    62    1
    15    62    59    1
    16    59    58    1
    17    49    48    1
    18    58    54   am
    19    88    87    2
    20    48    45    1
    21    87    86    1
    22    86    85    1
    23    54    55    2
    24    54    53    1
    25    45    46    1
    26    45    44    1
    27    52    46   am
    28    52    53    1
    29    73    74    1
    30    46    47    2
    31    53    56    1
    32    85    82   am
    33    79    77    1
    34    74    75    1
    35    74    77    1
    36    56    57    1
    37    76    75    2
    38    75    80   am
    39    77    78    1
    40     8    10   ar
    41     8     6   ar
    42    10    11   ar
    43     5     6    1
    44     5     2    1
    45    82    83    2
    46    82    81    1
    47     6     7   ar
    48    11    12    1
    49    11     9   ar
    50    80    81    1
    51     7     9   ar
    52    23    22    1
    53    81    84    1
    54    22    19    1
    55     3     2    1
    56     3     4    2
    57     2     1    1
    58    32    31    1
    59    19    18    1
    60    19    20    1
    61    18    15   am
    62    31    30    1
    63    20    21    2
    64    30    29    1
    65    17    14    1
    66    15    14    1
    67    15    16    2
    68    29    28    1
    69    13    14    1
    70    28    25    1
    71    26    25    1
    72    26    27    2
    73    25    24    1
    74    43    41    1
    75    41    42    1
    76    41    40    2
    77    40    39    1
    78    33    34    1
    79    35    34    1
    80    35    36    2
    81    37    34    1
    82    37    38    1
    83    39    38    1
