@<TRIPOS>MOLECULE
tmp/3fo5A00.pdb
 230 219 0 0 0
SMALL
GASTEIGER

@<TRIPOS>ATOM
      1  N         15.6340   47.0610   64.0380 N.3    81  PHE81      -0.1241
      2  CA        16.8240   47.0260   63.1960 C.3    81  PHE81       0.1605
      3  C         16.5910   47.7540   61.8890 C.2    81  PHE81       0.2264
      4  O         15.4360   48.0220   61.4920 O.2    81  PHE81      -0.2867
      5  CB        17.3090   45.5700   62.9330 C.3    81  PHE81       0.0534
      6  CG        16.3900   44.7580   62.0470 C.ar   81  PHE81      -0.0203
      7  CD1       16.5680   44.7190   60.6810 C.ar   81  PHE81      -0.0042
      8  CD2       15.3370   44.0170   62.6020 C.ar   81  PHE81      -0.0042
      9  CE1       15.7190   43.9650   59.8890 C.ar   81  PHE81      -0.0003
     10  CE2       14.5250   43.2670   61.8140 C.ar   81  PHE81      -0.0003
     11  CZ        14.7110   43.2380   60.4600 C.ar   81  PHE81      -0.0000
     12  N         18.5990   47.9840   57.7420 N.3    83  MET83      -0.1245
     13  CA        19.6510   47.6500   56.7950 C.3    83  MET83       0.1570
     14  C         19.7850   48.8050   55.8240 C.2    83  MET83       0.2261
     15  O         18.7970   49.4620   55.4910 O.2    83  MET83      -0.2867
     16  CB        19.2770   46.4110   55.9740 C.3    83  MET83       0.0387
     17  CG        19.1540   45.0960   56.7210 C.3    83  MET83       0.0595
     18  SD        20.6960   44.2770   56.9250 S.3    83  MET83      -0.1393
     19  CE        21.0600   43.6190   55.2850 C.3    83  MET83       0.0692
     20  N          7.3180   41.2170   45.9200 N.3   104  ARG104     -0.1245
     21  CA         8.3310   40.9540   46.9530 C.3   104  ARG104      0.1563
     22  C          8.7050   39.4710   47.1210 C.2   104  ARG104      0.2260
     23  O          9.8690   39.1800   47.3950 O.2   104  ARG104     -0.2867
     24  CB         7.9720   41.6200   48.2890 C.3   104  ARG104      0.0307
     25  CG         9.0700   41.5220   49.3500 C.3   104  ARG104      0.0489
     26  CD         8.8520   42.5400   50.4710 C.3   104  ARG104      0.2205
     27  NE         9.7020   42.2740   51.6260 N.pl3 104  ARG104     -0.0865
     28  CZ         9.5780   42.8500   52.8210 C.cat 104  ARG104      0.5346
     29  NH1        8.6170   43.7350   53.0780 N.pl3 104  ARG104      0.1354
     30  NH2       10.4230   42.5120   53.7820 N.pl3 104  ARG104      0.1354
     31  N         12.0330   38.2550   45.3950 N.3   107  TRP107     -0.1227
     32  CA        13.3730   38.5380   45.9210 C.3   107  TRP107      0.1737
     33  C         13.5510   38.2930   47.4050 C.2   107  TRP107      0.2595
     34  O         14.6960   38.2300   47.8690 O.2   107  TRP107     -0.2718
     35  CB        13.7990   39.9650   45.5830 C.3   107  TRP107      0.0564
     36  CG        12.9840   41.0370   46.1830 C.ar  107  TRP107      0.0003
     37  CD1       11.9360   41.6980   45.5830 C.ar  107  TRP107      0.0946
     38  CD2       13.1350   41.6220   47.4750 C.ar  107  TRP107      0.0152
     39  NE1       11.4290   42.6450   46.4300 N.ar  107  TRP107     -0.2442
     40  CE2       12.1240   42.6100   47.6060 C.ar  107  TRP107      0.0810
     41  CE3       13.9860   41.3910   48.5540 C.ar  107  TRP107      0.0012
     42  CZ2       11.9550   43.3650   48.7810 C.ar  107  TRP107      0.0191
     43  CZ3       13.8270   42.1530   49.7190 C.ar  107  TRP107      0.0001
     44  CH2       12.8240   43.1420   49.8090 C.ar  107  TRP107      0.0015
     45  N         12.4370   38.1690   48.1370 N.am  108  ASP108     -0.1974
     46  CA        12.4570   37.9950   49.5790 C.3   108  ASP108      0.1709
     47  C         11.8190   36.6700   49.9510 C.2   108  ASP108      0.2293
     48  O         10.6010   36.4890   49.9070 O.2   108  ASP108     -0.2864
     49  CB        11.7230   39.1490   50.2670 C.3   108  ASP108      0.1436
     50  CG        11.8940   39.1500   51.7820 C.2   108  ASP108      0.3671
     51  OD1       12.4780   38.1870   52.3540 O.co2 108  ASP108     -0.2456
     52  OD2       11.4230   40.1180   52.4110 O.co2 108  ASP108     -0.2456
     53  N         11.3170   35.5940   52.7590 N.3   110  HIS110     -0.1226
     54  CA        10.3920   35.7710   53.8940 C.3   110  HIS110      0.1752
     55  C          8.9590   36.0370   53.4640 C.2   110  HIS110      0.2596
     56  O          8.0230   35.7850   54.2390 O.2   110  HIS110     -0.2718
     57  CB        10.8830   36.8970   54.7920 C.3   110  HIS110      0.0759
     58  CG        12.3110   36.7410   55.1990 C.ar  110  HIS110      0.0818
     59  ND1       13.3240   37.5200   54.6760 N.ar  110  HIS110     -0.2268
     60  CD2       12.9050   35.8600   56.0380 C.ar  110  HIS110      0.1154
     61  CE1       14.4780   37.1340   55.1880 C.ar  110  HIS110      0.1986
     62  NE2       14.2510   36.1330   56.0230 N.ar  110  HIS110     -0.2212
     63  N          8.7850   36.5240   52.2350 N.am  111  TYR111     -0.1976
     64  CA         7.4670   36.6670   51.6440 C.3   111  TYR111      0.1639
     65  C          7.1130   35.4400   50.8050 C.2   111  TYR111      0.2290
     66  O          7.4680   35.3370   49.6290 O.2   111  TYR111     -0.2864
     67  CB         7.3950   37.9400   50.8030 C.3   111  TYR111      0.0560
     68  CG         6.9740   39.1670   51.5800 C.ar  111  TYR111     -0.0198
     69  CD1        7.6130   39.5470   52.7510 C.ar  111  TYR111     -0.0009
     70  CD2        5.9540   39.9580   51.1130 C.ar  111  TYR111     -0.0009
     71  CE1        7.2130   40.6600   53.4470 C.ar  111  TYR111      0.0417
     72  CE2        5.5630   41.0770   51.7720 C.ar  111  TYR111      0.0417
     73  CZ         6.1970   41.4350   52.9420 C.ar  111  TYR111      0.1957
     74  OH         5.7600   42.5880   53.5530 O.3   111  TYR111     -0.2866
     75  N         -0.0920   38.6510   53.6190 N.3   129  VAL129     -0.1245
     76  CA         1.2110   38.1140   53.3380 C.3   129  VAL129      0.1561
     77  C          1.3140   36.8240   54.1390 C.2   129  VAL129      0.2260
     78  O          0.8450   36.7800   55.2920 O.2   129  VAL129     -0.2867
     79  CB         2.3280   39.0860   53.7630 C.3   129  VAL129      0.0252
     80  CG1        3.7930   38.4520   53.5710 C.3   129  VAL129      0.0019
     81  CG2        2.1920   40.4530   53.0380 C.3   129  VAL129      0.0019
     82  N          4.3570   33.8900   55.3160 N.3   131  SER131     -0.1217
     83  CA         5.8020   33.8170   55.5090 C.3   131  SER131      0.1889
     84  C          6.1300   32.3940   55.9520 C.2   131  SER131      0.2288
     85  O          5.3740   31.8210   56.7310 O.2   131  SER131     -0.2866
     86  CB         6.2430   34.8280   56.5620 C.3   131  SER131      0.2089
     87  OG         7.6490   34.9880   56.5880 O.3   131  SER131     -0.2183
     88  N          9.7060   29.8170   60.5190 N.3   134  LEU134     -0.1245
     89  CA        11.0770   29.9290   60.9500 C.3   134  LEU134      0.1561
     90  C         11.3980   28.7490   61.8860 C.2   134  LEU134      0.2260
     91  O         10.5070   27.9640   62.2320 O.2   134  LEU134     -0.2867
     92  CB        11.2720   31.2650   61.6590 C.3   134  LEU134      0.0270
     93  CG        11.0780   32.4870   60.7360 C.3   134  LEU134      0.0019
     94  CD1       11.1350   33.7340   61.5450 C.3   134  LEU134      0.0001
     95  CD2       12.1330   32.5220   59.6330 C.3   134  LEU134      0.0001
     96  N          3.6450   31.7160   59.0280 N.3   141  GLN141     -0.1245
     97  CA         3.0520   32.9070   59.6420 C.3   141  GLN141      0.1566
     98  C          2.2720   33.6260   58.5560 C.2   141  GLN141      0.2260
     99  O          2.5730   33.4420   57.3670 O.2   141  GLN141     -0.2867
    100  CB         4.1120   33.8700   60.1500 C.3   141  GLN141      0.0367
    101  CG         4.5070   33.7030   61.5810 C.3   141  GLN141      0.0905
    102  CD         5.4230   34.7970   62.0420 C.2   141  GLN141      0.2608
    103  OE1        6.5170   34.9770   61.4960 O.2   141  GLN141     -0.2717
    104  NE2        4.9900   35.5420   63.0420 N.am  141  GLN141     -0.0878
    105  N          0.3360   37.7350   57.9230 N.3   143  PHE143     -0.1241
    106  CA         0.2320   39.1370   58.2940 C.3   143  PHE143      0.1605
    107  C         -0.8190   39.8400   57.3820 C.2   143  PHE143      0.2264
    108  O         -1.0320   39.4460   56.2350 O.2   143  PHE143     -0.2867
    109  CB         1.5590   39.8720   58.0950 C.3   143  PHE143      0.0534
    110  CG         2.7490   39.2950   58.8640 C.ar  143  PHE143     -0.0203
    111  CD1        3.1840   39.8890   60.0270 C.ar  143  PHE143     -0.0042
    112  CD2        3.4370   38.1790   58.3910 C.ar  143  PHE143     -0.0042
    113  CE1        4.2960   39.3640   60.7380 C.ar  143  PHE143     -0.0003
    114  CE2        4.5240   37.6560   59.0820 C.ar  143  PHE143     -0.0003
    115  CZ         4.9290   38.2440   60.2790 C.ar  143  PHE143     -0.0000
    116  N         -1.2910   43.7130   56.2360 N.3   145  ILE145     -0.1245
    117  CA        -0.4070   44.8800   56.2430 C.3   145  ILE145      0.1561
    118  C         -0.9710   46.0250   55.3740 C.2   145  ILE145      0.2260
    119  O         -1.4020   45.8180   54.2220 O.2   145  ILE145     -0.2867
    120  CB         0.9930   44.4490   55.7700 C.3   145  ILE145      0.0252
    121  CG1        1.6780   43.6110   56.8710 C.3   145  ILE145      0.0019
    122  CG2        1.9000   45.6550   55.4370 C.3   145  ILE145      0.0019
    123  CD1        2.7060   42.7650   56.3140 C.3   145  ILE145      0.0001
    124  N          5.0150   50.2680   56.1580 N.3   163  LEU163     -0.1245
    125  CA         4.2120   49.0840   56.3980 C.3   163  LEU163      0.1561
    126  C          3.8570   49.0180   57.8630 C.2   163  LEU163      0.2260
    127  O          4.7110   49.3050   58.7320 O.2   163  LEU163     -0.2867
    128  CB         4.9530   47.8250   56.0200 C.3   163  LEU163      0.0270
    129  CG         5.6300   47.8060   54.6600 C.3   163  LEU163      0.0019
    130  CD1        6.5250   46.5670   54.5830 C.3   163  LEU163      0.0001
    131  CD2        4.5580   47.8980   53.5320 C.3   163  LEU163      0.0001
    132  N          3.4820   43.4890   62.5370 N.3   182  THR182     -0.1218
    133  CA         4.5890   44.4120   62.4850 C.3   182  THR182      0.1862
    134  C          4.0700   45.8220   62.8110 C.2   182  THR182      0.2287
    135  O          3.0750   46.2740   62.2740 O.2   182  THR182     -0.2866
    136  CB         5.3570   44.3030   61.1510 C.3   182  THR182      0.1770
    137  OG1        6.6850   44.8350   61.2950 O.3   182  THR182     -0.2211
    138  CG2        4.6540   45.0450   60.0110 C.3   182  THR182      0.0375
    139  N          7.4290   49.1470   59.7940 N.3   185  SER185     -0.1217
    140  CA         8.5240   48.6700   58.9590 C.3   185  SER185      0.1889
    141  C          8.4500   49.3590   57.5970 C.2   185  SER185      0.2288
    142  O          7.4730   50.0740   57.2920 O.2   185  SER185     -0.2866
    143  CB         8.3530   47.1590   58.7710 C.3   185  SER185      0.2089
    144  OG         8.5100   46.4780   60.0040 O.3   185  SER185     -0.2183
    145  N         10.5160   50.7850   53.7280 N.3   187  PHE187     -0.1241
    146  CA        11.7140   51.3000   53.0730 C.3   187  PHE187      0.1605
    147  C         11.7390   52.8110   53.0420 C.2   187  PHE187      0.2264
    148  O         10.7050   53.4680   52.9460 O.2   187  PHE187     -0.2867
    149  CB        11.8190   50.8130   51.6480 C.3   187  PHE187      0.0534
    150  CG        11.8550   49.3330   51.5060 C.ar  187  PHE187     -0.0203
    151  CD1       13.0550   48.6650   51.3650 C.ar  187  PHE187     -0.0042
    152  CD2       10.6970   48.6100   51.4330 C.ar  187  PHE187     -0.0042
    153  CE1       13.0830   47.2970   51.1770 C.ar  187  PHE187     -0.0003
    154  CE2       10.7400   47.2370   51.2650 C.ar  187  PHE187     -0.0003
    155  CZ        11.9150   46.5940   51.1310 C.ar  187  PHE187     -0.0000
    156  N         15.9290   49.4860   54.5950 N.3   201  TYR201     -0.1241
    157  CA        14.7840   48.7760   55.1250 C.3   201  TYR201      0.1605
    158  C         14.8100   48.8360   56.6590 C.2   201  TYR201      0.2264
    159  O         15.8560   48.5840   57.2800 O.2   201  TYR201     -0.2867
    160  CB        14.7590   47.3240   54.6490 C.3   201  TYR201      0.0534
    161  CG        13.7280   46.5120   55.3890 C.ar  201  TYR201     -0.0201
    162  CD1       12.3930   46.5390   54.9930 C.ar  201  TYR201     -0.0009
    163  CD2       14.0700   45.7260   56.4940 C.ar  201  TYR201     -0.0009
    164  CE1       11.4000   45.7920   55.6840 C.ar  201  TYR201      0.0417
    165  CE2       13.0720   44.9940   57.1950 C.ar  201  TYR201      0.0417
    166  CZ        11.7530   45.0290   56.7670 C.ar  201  TYR201      0.1957
    167  OH        10.7630   44.3280   57.4530 O.3   201  TYR201     -0.2866
    168  N         12.7150   47.8280   60.4310 N.3   203  ASN203     -0.1240
    169  CA        11.7640   46.9860   61.1520 C.3   203  ASN203      0.1653
    170  C         11.8300   47.2990   62.6580 C.2   203  ASN203      0.2266
    171  O         12.7940   46.9210   63.3580 O.2   203  ASN203     -0.2867
    172  CB        12.0620   45.5250   60.8800 C.3   203  ASN203      0.1155
    173  CG        10.9440   44.6060   61.3370 C.2   203  ASN203      0.2627
    174  OD1       10.6390   44.4950   62.5440 O.2   203  ASN203     -0.2716
    175  ND2       10.3330   43.9310   60.3830 N.am  203  ASN203     -0.0877
    176  N          8.6780   43.2910   65.3140 N.3   206  THR206     -0.1218
    177  CA         7.9210   42.1440   64.7850 C.3   206  THR206      0.1862
    178  C          8.1500   41.0490   65.8180 C.2   206  THR206      0.2287
    179  O          9.0210   40.1830   65.6640 O.2   206  THR206     -0.2866
    180  CB         8.3550   41.7440   63.3540 C.3   206  THR206      0.1770
    181  OG1        8.5770   42.9290   62.5650 O.3   206  THR206     -0.2211
    182  CG2        7.2700   40.8320   62.6640 C.3   206  THR206      0.0375
    183  N          9.1160   37.2940   65.3680 N.3   209  VAL209     -0.1245
    184  CA        10.3400   36.8390   64.7170 C.3   209  VAL209      0.1561
    185  C         11.6030   37.2380   65.4970 C.2   209  VAL209      0.2260
    186  O         12.7240   37.2400   64.9450 O.2   209  VAL209     -0.2867
    187  CB        10.4280   37.3290   63.2630 C.3   209  VAL209      0.0252
    188  CG1        9.1810   36.8240   62.4170 C.3   209  VAL209      0.0019
    189  CG2       10.5900   38.8360   63.2090 C.3   209  VAL209      0.0019
    190  N         14.9350   35.1470   65.2850 N.3   212  TYR212     -0.1241
    191  CA        15.5570   35.2680   63.9830 C.3   212  TYR212      0.1605
    192  C         16.3440   36.5670   63.8900 C.2   212  TYR212      0.2264
    193  O         17.4870   36.5860   63.4120 O.2   212  TYR212     -0.2867
    194  CB        14.4540   35.2260   62.9150 C.3   212  TYR212      0.0534
    195  CG        14.9170   35.2420   61.4760 C.ar  212  TYR212     -0.0201
    196  CD1       15.5810   34.1570   60.9320 C.ar  212  TYR212     -0.0009
    197  CD2       14.6110   36.3060   60.6360 C.ar  212  TYR212     -0.0009
    198  CE1       15.9820   34.1550   59.6040 C.ar  212  TYR212      0.0417
    199  CE2       14.9970   36.3060   59.3000 C.ar  212  TYR212      0.0417
    200  CZ        15.6860   35.2340   58.7990 C.ar  212  TYR212      0.1957
    201  OH        16.0680   35.2230   57.4810 O.3   212  TYR212     -0.2866
    202  N         19.6870   38.3210   56.7410 N.3   224  PHE224     -0.1241
    203  CA        19.3860   39.6890   56.4350 C.3   224  PHE224      0.1605
    204  C         20.2500   40.1620   55.2490 C.2   224  PHE224      0.2264
    205  O         19.7080   40.6720   54.2830 O.2   224  PHE224     -0.2867
    206  CB        19.5530   40.5970   57.6660 C.3   224  PHE224      0.0534
    207  CG        18.5040   40.4000   58.7450 C.ar  224  PHE224     -0.0203
    208  CD1       17.4300   39.5320   58.5890 C.ar  224  PHE224     -0.0042
    209  CD2       18.5740   41.1520   59.9030 C.ar  224  PHE224     -0.0042
    210  CE1       16.4990   39.3910   59.5770 C.ar  224  PHE224     -0.0003
    211  CE2       17.6180   41.0190   60.9050 C.ar  224  PHE224     -0.0003
    212  CZ        16.5920   40.1520   60.7460 C.ar  224  PHE224     -0.0000
    213  N         19.2000   38.4350   51.8750 N.3   227  THR227     -0.1203
    214  CA        17.9510   38.9890   51.3490 C.3   227  THR227      0.1994
    215  C         18.1400   40.3800   50.7790 C.2   227  THR227      0.2617
    216  O         17.5890   40.7040   49.7250 O.2   227  THR227     -0.2717
    217  CB        16.9140   39.0470   52.4000 C.3   227  THR227      0.1784
    218  OG1       16.7770   37.7430   52.9350 O.3   227  THR227     -0.2211
    219  CG2       15.5310   39.5600   51.8050 C.3   227  THR227      0.0376
    220  N         18.9380   41.1930   51.4600 N.am  228  PHE228     -0.1975
    221  CA        19.2220   42.5340   50.9860 C.3   228  PHE228      0.1639
    222  C         20.0340   42.5000   49.6970 C.2   228  PHE228      0.2290
    223  O         19.8110   43.3460   48.8110 O.2   228  PHE228     -0.2864
    224  CB        19.9000   43.3870   52.0660 C.3   228  PHE228      0.0560
    225  CG        19.3220   44.7730   52.2030 C.ar  228  PHE228     -0.0200
    226  CD1       17.9490   44.9870   52.1360 C.ar  228  PHE228     -0.0042
    227  CD2       20.1380   45.8630   52.4440 C.ar  228  PHE228     -0.0042
    228  CE1       17.4350   46.2520   52.2610 C.ar  228  PHE228     -0.0003
    229  CE2       19.5980   47.1440   52.5770 C.ar  228  PHE228     -0.0003
    230  CZ        18.2640   47.3270   52.4940 C.ar  228  PHE228     -0.0000
@<TRIPOS>BOND
     1    31    32    1
     2    35    32    1
     3    35    36    1
     4    37    36   ar
     5    37    39   ar
     6    20    21    1
     7    32    33    1
     8    36    38   ar
     9    39    40   ar
    10    21    22    1
    11    21    24    1
    12    22    23    2
    13    33    34    2
    14    33    45   am
    15    38    40   ar
    16    38    41   ar
    17    40    42   ar
    18    45    46    1
    19    24    25    1
    20    41    43   ar
    21    42    44   ar
    22   223   222    2
    23    25    26    1
    24    46    47    1
    25    46    49    1
    26    66    65    2
    27   222   221    1
    28    43    44   ar
    29   216   215    2
    30    48    47    2
    31    49    50    1
    32    26    27    1
    33   215   214    1
    34   215   220   am
    35    67    68    1
    36    67    64    1
    37    65    64    1
    38   221   220    1
    39   221   224    1
    40    70    68   ar
    41    70    72   ar
    42   155   153   ar
    43   155   154   ar
    44   153   151   ar
    45   154   152   ar
    46   214   213    1
    47   214   217    1
    48   151   150   ar
    49   152   150   ar
    50   150   149    1
    51    68    69   ar
    52    27    28    2
    53    64    63    1
    54   149   146    1
    55    72    73   ar
    56    50    51   ar
    57    50    52   ar
    58   219   217    1
    59   224   225    1
    60   226   225   ar
    61   226   228   ar
    62   225   227   ar
    63    63    55   am
    64   228   230   ar
    65   217   218    1
    66   227   229   ar
    67   230   229   ar
    68    69    71   ar
    69    53    54    1
    70    28    29    1
    71    28    30    1
    72    73    71   ar
    73    73    74    1
    74   148   147    2
    75    81    79    1
    76   147   146    1
    77   146   145    1
    78    76    75    1
    79    76    79    1
    80    76    77    1
    81    55    54    1
    82    55    56    2
    83   131   129    1
    84    80    79    1
    85    54    57    1
    86    77    78    2
    87   119   118    2
    88   205   204    2
    89   130   129    1
    90   156   157    1
    91   160   157    1
    92   160   161    1
    93   129   128    1
    94    59    61   ar
    95    59    58   ar
    96    57    58    1
    97   162   161   ar
    98   162   164   ar
    99   157   158    1
   100    61    62   ar
   101    58    60   ar
   102   204   203    1
   103    19    18    1
   104    82    83    1
   105   118   117    1
   106   161   163   ar
   107   122   120    1
   108    15    14    2
   109    83    84    1
   110    83    86    1
   111   164   166   ar
   112   120   117    1
   113   120   121    1
   114    14    13    1
   115    84    85    2
   116    16    17    1
   117    16    13    1
   118   128   125    1
   119    62    60   ar
   120   124   125    1
   121   108   107    2
   122   116   117    1
   123   123   121    1
   124   125   126    1
   125   203   202    1
   126   203   206    1
   127   163   165   ar
   128    86    87    1
   129   158   159    2
   130    17    18    1
   131   166   165   ar
   132   166   167    1
   133    13    12    1
   134   142   141    2
   135    99    98    2
   136   107   106    1
   137   201   200    1
   138   141   140    1
   139   206   207    1
   140   126   127    2
   141   105   106    1
   142   109   106    1
   143   109   110    1
   144   112   110   ar
   145   112   114   ar
   146    98    97    1
   147   208   207   ar
   148   208   210   ar
   149   207   209   ar
   150   143   140    1
   151   143   144    1
   152   200   199   ar
   153   200   198   ar
   154   110   111   ar
   155   140   139    1
   156    96    97    1
   157   114   115   ar
   158   199   197   ar
   159   210   212   ar
   160   198   196   ar
   161    95    93    1
   162    97   100    1
   163     9    11   ar
   164     9     7   ar
   165   209   211   ar
   166   138   136    1
   167   111   113   ar
   168   100   101    1
   169   115   113   ar
   170   175   173   am
   171   168   169    1
   172    11    10   ar
   173    88    89    1
   174   197   195   ar
   175     7     6   ar
   176    93    94    1
   177    93    92    1
   178   212   211   ar
   179   172   169    1
   180   172   173    1
   181   196   195   ar
   182    89    92    1
   183    89    90    1
   184   136   137    1
   185   136   133    1
   186   169   170    1
   187   173   174    2
   188   195   194    1
   189     4     3    2
   190   103   102    2
   191   101   102    1
   192    10     8   ar
   193    90    91    2
   194     3     2    1
   195   102   104   am
   196     6     8   ar
   197     6     5    1
   198   135   134    2
   199   188   187    1
   200   133   132    1
   201   133   134    1
   202   181   180    1
   203   170   171    2
   204   182   180    1
   205   194   191    1
   206     5     2    1
   207     2     1    1
   208   189   187    1
   209   187   184    1
   210   180   177    1
   211   193   192    2
   212   192   191    1
   213   191   190    1
   214   184   183    1
   215   184   185    1
   216   177   176    1
   217   177   178    1
   218   186   185    2
   219   179   178    2
