@<TRIPOS>MOLECULE
tmp/3fo9D00.pdb
 125 126 0 0 0
SMALL
GASTEIGER

@<TRIPOS>ATOM
      1  N         17.1090   74.2310   63.0770 N.3    33  TRP33      -0.1241
      2  CA        18.2480   73.3120   63.0630 C.3    33  TRP33       0.1605
      3  C         18.1080   72.3200   61.9260 C.2    33  TRP33       0.2264
      4  O         16.9860   71.9290   61.5690 O.2    33  TRP33      -0.2867
      5  CB        18.3060   72.5190   64.3800 C.3    33  TRP33       0.0550
      6  CG        18.5390   73.3360   65.6220 C.ar   33  TRP33       0.0003
      7  CD1       18.6850   74.7000   65.7050 C.ar   33  TRP33       0.0946
      8  CD2       18.6160   72.8440   66.9640 C.ar   33  TRP33       0.0152
      9  NE1       18.8760   75.0740   67.0120 N.ar   33  TRP33      -0.2442
     10  CE2       18.8330   73.9570   67.8070 C.ar   33  TRP33       0.0810
     11  CE3       18.5370   71.5660   67.5370 C.ar   33  TRP33       0.0012
     12  CZ2       18.9630   73.8330   69.1950 C.ar   33  TRP33       0.0191
     13  CZ3       18.6700   71.4390   68.9110 C.ar   33  TRP33       0.0001
     14  CH2       18.8780   72.5700   69.7280 C.ar   33  TRP33       0.0015
     15  N         20.1140   68.6860   59.8560 N.3    35  SER35      -0.1217
     16  CA        21.0140   67.5390   59.9800 C.3    35  SER35       0.1889
     17  C         21.1290   66.7990   58.6520 C.2    35  SER35       0.2288
     18  O         20.2470   66.9010   57.7930 O.2    35  SER35      -0.2866
     19  CB        20.4930   66.5660   61.0390 C.3    35  SER35       0.2089
     20  OG        20.9010   66.9350   62.3390 O.3    35  SER35      -0.2183
     21  N         21.4750   62.6670   57.7060 N.3    37  VAL37      -0.1245
     22  CA        21.3070   61.3010   58.2330 C.3    37  VAL37       0.1561
     23  C         21.5760   60.3810   57.0430 C.2    37  VAL37       0.2260
     24  O         21.1600   60.6980   55.9360 O.2    37  VAL37      -0.2867
     25  CB        19.8380   61.0500   58.7280 C.3    37  VAL37       0.0252
     26  CG1       19.6250   59.5850   59.1790 C.3    37  VAL37       0.0019
     27  CG2       19.4770   62.0170   59.8460 C.3    37  VAL37       0.0019
     28  N         22.5710   59.0340   62.1360 N.3    47  TRP47      -0.1241
     29  CA        22.7050   60.4910   62.1250 C.3    47  TRP47       0.1605
     30  C         24.1870   60.8520   61.9150 C.2    47  TRP47       0.2264
     31  O         25.0760   60.2350   62.5060 O.2    47  TRP47      -0.2867
     32  CB        22.1290   61.0910   63.4050 C.3    47  TRP47       0.0550
     33  CG        22.4810   62.5090   63.5900 C.ar   47  TRP47       0.0003
     34  CD1       21.8520   63.6070   63.0290 C.ar   47  TRP47       0.0946
     35  CD2       23.5310   63.0190   64.4030 C.ar   47  TRP47       0.0152
     36  NE1       22.4710   64.7640   63.4420 N.ar   47  TRP47      -0.2442
     37  CE2       23.5100   64.4290   64.2800 C.ar   47  TRP47       0.0810
     38  CE3       24.5190   62.4190   65.2130 C.ar   47  TRP47       0.0012
     39  CZ2       24.4300   65.2500   64.9480 C.ar   47  TRP47       0.0191
     40  CZ3       25.4290   63.2420   65.8720 C.ar   47  TRP47       0.0001
     41  CH2       25.3700   64.6390   65.7400 C.ar   47  TRP47       0.0015
     42  N         24.7620   67.7340   62.6740 N.3    50  GLU50      -0.1245
     43  CA        23.7630   68.8090   62.8790 C.3    50  GLU50       0.1567
     44  C         24.3840   70.1980   62.7850 C.2    50  GLU50       0.2260
     45  O         25.5260   70.4100   63.2170 O.2    50  GLU50      -0.2867
     46  CB        23.1390   68.6700   64.2640 C.3    50  GLU50       0.0388
     47  CG        22.1590   69.7810   64.6660 C.3    50  GLU50       0.1160
     48  CD        21.5000   69.5010   65.9970 C.2    50  GLU50       0.3649
     49  OE1       22.1180   69.7790   67.0380 O.co2  50  GLU50      -0.2457
     50  OE2       20.3580   69.0100   66.0160 O.co2  50  GLU50      -0.2457
     51  N         17.5240   66.8650   56.5370 N.3    99  LYS99      -0.1245
     52  CA        16.3300   66.8860   57.3740 C.3    99  LYS99       0.1561
     53  C         16.2300   68.1830   58.1460 C.2    99  LYS99       0.2260
     54  O         17.2420   68.7120   58.6290 O.2    99  LYS99      -0.2867
     55  CB        16.3270   65.6050   58.2250 C.3    99  LYS99       0.0271
     56  CG        15.9340   65.7360   59.6920 C.3    99  LYS99       0.0035
     57  CD        16.7940   64.8020   60.5320 C.3    99  LYS99       0.0206
     58  CE        15.9800   63.7020   61.1980 C.3    99  LYS99       0.1093
     59  NZ        15.9470   63.8840   62.6410 N.3    99  LYS99      -0.1314
     60  N         13.9030   70.3290   61.2320 N.3   101  TYR101     -0.1227
     61  CA        13.1320   69.9550   62.4150 C.3   101  TYR101      0.1736
     62  C         13.0200   71.0450   63.4870 C.2   101  TYR101      0.2595
     63  O         13.7850   72.0160   63.5030 O.2   101  TYR101     -0.2718
     64  CB        13.6790   68.6450   63.0270 C.3   101  TYR101      0.0548
     65  CG        15.1730   68.6470   63.2290 C.ar  101  TYR101     -0.0200
     66  CD1       16.0310   68.2740   62.1970 C.ar  101  TYR101     -0.0009
     67  CD2       15.7350   69.0320   64.4500 C.ar  101  TYR101     -0.0009
     68  CE1       17.4010   68.2870   62.3650 C.ar  101  TYR101      0.0417
     69  CE2       17.1110   69.0460   64.6240 C.ar  101  TYR101      0.0417
     70  CZ        17.9330   68.6720   63.5730 C.ar  101  TYR101      0.1957
     71  OH        19.2930   68.6580   63.7380 O.3   101  TYR101     -0.2866
     72  N         12.0450   70.8450   64.3700 N.am  102  PHE102     -0.1962
     73  CA        11.6380   71.7770   65.4130 C.3   102  PHE102      0.1771
     74  C         10.8900   70.8830   66.3990 C.2   102  PHE102      0.2619
     75  O         10.6940   69.6880   66.1260 O.2   102  PHE102     -0.2715
     76  CB        10.7050   72.8220   64.7960 C.3   102  PHE102      0.0574
     77  CG        10.3960   73.9980   65.6890 C.ar  102  PHE102     -0.0200
     78  CD1       11.4120   74.8190   66.1850 C.ar  102  PHE102     -0.0042
     79  CD2        9.0790   74.3140   65.9960 C.ar  102  PHE102     -0.0042
     80  CE1       11.1100   75.9260   67.0010 C.ar  102  PHE102     -0.0003
     81  CE2        8.7700   75.4170   66.8040 C.ar  102  PHE102     -0.0003
     82  CZ         9.7870   76.2220   67.3030 C.ar  102  PHE102     -0.0000
     83  N         10.4590   71.4450   67.5290 N.am  103  TYR103     -0.1974
     84  CA         9.7650   70.6700   68.5590 C.3   103  TYR103      0.1639
     85  C          8.5850   69.8840   67.9950 C.2   103  TYR103      0.2290
     86  O          8.2980   68.7660   68.4370 O.2   103  TYR103     -0.2864
     87  CB         9.2450   71.5810   69.6640 C.3   103  TYR103      0.0560
     88  CG        10.2760   72.4450   70.3570 C.ar  103  TYR103     -0.0198
     89  CD1       11.0340   71.9420   71.4080 C.ar  103  TYR103     -0.0009
     90  CD2       10.4600   73.7770   69.9870 C.ar  103  TYR103     -0.0009
     91  CE1       11.9630   72.7330   72.0680 C.ar  103  TYR103      0.0417
     92  CE2       11.3880   74.5800   70.6390 C.ar  103  TYR103      0.0417
     93  CZ        12.1360   74.0480   71.6830 C.ar  103  TYR103      0.1957
     94  OH        13.0650   74.8270   72.3450 O.3   103  TYR103     -0.2866
     95  N          7.7830   69.3950   64.4400 N.3   105  PHE105     -0.1227
     96  CA         7.8910   68.8270   63.0990 C.3   105  PHE105      0.1736
     97  C          9.2760   68.2660   62.7630 C.2   105  PHE105      0.2596
     98  O         10.2680   68.6110   63.4080 O.2   105  PHE105     -0.2718
     99  CB         7.4120   69.8070   62.0110 C.3   105  PHE105      0.0547
    100  CG         8.3050   71.0160   61.8080 C.ar  105  PHE105     -0.0202
    101  CD1        9.5210   70.9080   61.1290 C.ar  105  PHE105     -0.0042
    102  CD2        7.9020   72.2750   62.2530 C.ar  105  PHE105     -0.0042
    103  CE1       10.3280   72.0260   60.9220 C.ar  105  PHE105     -0.0003
    104  CE2        8.7030   73.3980   62.0540 C.ar  105  PHE105     -0.0003
    105  CZ         9.9200   73.2750   61.3840 C.ar  105  PHE105     -0.0000
    106  N          9.3070   67.4170   61.7370 N.am  106  SER106     -0.1952
    107  CA        10.5220   66.8480   61.1790 C.3   106  SER106      0.1924
    108  C         10.2480   66.4280   59.7360 C.2   106  SER106      0.2314
    109  O          9.3270   65.6500   59.4870 O.2   106  SER106     -0.2863
    110  CB        10.9280   65.6160   61.9900 C.3   106  SER106      0.2116
    111  OG        11.9980   64.9390   61.3460 O.3   106  SER106     -0.2180
    112  N         12.0650   65.0160   55.9350 N.3   108  TRP108     -0.1241
    113  CA        13.2730   64.4650   55.2850 C.3   108  TRP108      0.1605
    114  C         13.2050   64.6570   53.7810 C.2   108  TRP108      0.2264
    115  O         12.1180   64.6210   53.2220 O.2   108  TRP108     -0.2867
    116  CB        13.4000   62.9610   55.5310 C.3   108  TRP108      0.0550
    117  CG        13.4480   62.5030   56.9450 C.ar  108  TRP108      0.0003
    118  CD1       12.6170   62.8680   57.9640 C.ar  108  TRP108      0.0946
    119  CD2       14.3660   61.5390   57.4940 C.ar  108  TRP108      0.0152
    120  NE1       12.9600   62.1900   59.1180 N.ar  108  TRP108     -0.2442
    121  CE2       14.0350   61.3760   58.8580 C.ar  108  TRP108      0.0810
    122  CE3       15.4380   60.8070   56.9640 C.ar  108  TRP108      0.0012
    123  CZ2       14.7260   60.4920   59.7020 C.ar  108  TRP108      0.0191
    124  CZ3       16.1360   59.9180   57.8140 C.ar  108  TRP108      0.0001
    125  CH2       15.7730   59.7790   59.1630 C.ar  108  TRP108      0.0015
@<TRIPOS>BOND
     1   115   114    2
     2   114   113    1
     3   113   116    1
     4   113   112    1
     5   116   117    1
     6    24    23    2
     7    51    52    1
     8   117   119   ar
     9   117   118   ar
    10   122   119   ar
    11   122   124   ar
    12    23    22    1
    13    52    53    1
    14    52    55    1
    15   119   121   ar
    16    21    22    1
    17    18    17    2
    18   124   125   ar
    19   118   120   ar
    20    53    54    2
    21    55    56    1
    22    22    25    1
    23    17    16    1
    24    25    26    1
    25    25    27    1
    26   121   120   ar
    27   121   123   ar
    28   125   123   ar
    29   109   108    2
    30    56    57    1
    31   108   107    1
    32    15    16    1
    33    16    19    1
    34    57    58    1
    35   103   101   ar
    36   103   105   ar
    37    19    20    1
    38   101   100   ar
    39   107   106    1
    40   107   110    1
    41    58    59    1
    42    60    61    1
    43   111   110    1
    44   105   104   ar
    45     4     3    2
    46   106    97   am
    47   100    99    1
    48   100   102   ar
    49    30    29    1
    50    30    31    2
    51     3     2    1
    52    99    96    1
    53   104   102   ar
    54    29    28    1
    55    29    32    1
    56    66    68   ar
    57    66    65   ar
    58    68    70   ar
    59    61    64    1
    60    61    62    1
    61    42    43    1
    62    97    96    1
    63    97    98    2
    64    44    43    1
    65    44    45    2
    66    43    46    1
    67    64    65    1
    68    34    36   ar
    69    34    33   ar
    70     2     1    1
    71     2     5    1
    72    96    95    1
    73    65    67   ar
    74    32    33    1
    75    36    37   ar
    76    62    63    2
    77    62    72   am
    78    70    71    1
    79    70    69   ar
    80    33    35   ar
    81    46    47    1
    82    37    35   ar
    83    37    39   ar
    84    72    73    1
    85     5     6    1
    86    35    38   ar
    87    67    69   ar
    88    47    48    1
    89    76    73    1
    90    76    77    1
    91    39    41   ar
    92    38    40   ar
    93    73    74    1
    94     6     7   ar
    95     6     8   ar
    96    77    79   ar
    97    77    78   ar
    98     7     9   ar
    99    41    40   ar
   100    79    81   ar
   101    48    50   ar
   102    48    49   ar
   103    75    74    2
   104    78    80   ar
   105    74    83   am
   106    81    82   ar
   107     8    11   ar
   108     8    10   ar
   109    80    82   ar
   110     9    10   ar
   111    83    84    1
   112    11    13   ar
   113    10    12   ar
   114    85    86    2
   115    85    84    1
   116    84    87    1
   117    13    14   ar
   118    12    14   ar
   119    87    88    1
   120    90    88   ar
   121    90    92   ar
   122    88    89   ar
   123    92    93   ar
   124    89    91   ar
   125    93    91   ar
   126    93    94    1
