@<TRIPOS>MOLECULE
tmp/3fooB01.pdb
 75 73 0 0 0
SMALL
GASTEIGER

@<TRIPOS>ATOM
      1  N        -11.4650   -5.1600  -20.0960 N.3    41  GLN41      -0.1231
      2  CA       -12.0460   -5.6120  -18.8320 C.3    41  GLN41       0.1698
      3  C        -12.7500   -6.9680  -18.9460 C.2    41  GLN41       0.2592
      4  O        -12.8090   -7.7290  -17.9610 O.2    41  GLN41      -0.2718
      5  CB       -13.0160   -4.5520  -18.2740 C.3    41  GLN41       0.0381
      6  CG       -13.3620   -4.7460  -16.8000 C.3    41  GLN41       0.0905
      7  CD       -14.3430   -3.7080  -16.2720 C.2    41  GLN41       0.2608
      8  OE1      -15.4570   -3.5690  -16.7820 O.2    41  GLN41      -0.2717
      9  NE2      -13.9300   -2.9760  -15.2270 N.am   41  GLN41      -0.0878
     10  N        -13.2620   -7.2630  -20.1420 N.am   42  LYS42      -0.1966
     11  CA       -13.9590   -8.5200  -20.4380 C.3    42  LYS42       0.1728
     12  C        -13.0190   -9.6990  -20.7020 C.2    42  LYS42       0.2616
     13  O        -13.4560  -10.8520  -20.7250 O.2    42  LYS42      -0.2715
     14  CB       -14.8830   -8.3450  -21.6520 C.3    42  LYS42       0.0311
     15  CG       -16.1300   -7.5430  -21.3810 C.3    42  LYS42       0.0038
     16  CD       -16.7570   -7.0560  -22.6760 C.3    42  LYS42       0.0206
     17  CE       -17.9990   -6.2130  -22.3980 C.3    42  LYS42       0.1093
     18  NZ       -18.6350   -5.7200  -23.6550 N.3    42  LYS42      -0.1314
     19  N        -11.7370   -9.3960  -20.9080 N.am   43  ALA43      -0.1963
     20  CA       -10.7400  -10.3910  -21.2870 C.3    43  ALA43       0.1728
     21  C        -10.0390  -11.0140  -20.0870 C.2    43  ALA43       0.2616
     22  O         -9.8910  -10.3780  -19.0370 O.2    43  ALA43      -0.2715
     23  CB        -9.7180   -9.7800  -22.2190 C.3    43  ALA43       0.0334
     24  N         -9.6070  -12.2610  -20.2630 N.am   44  THR44      -0.1951
     25  CA        -8.7140  -12.9060  -19.3160 C.3    44  THR44       0.1897
     26  C         -7.2740  -12.7630  -19.8070 C.2    44  THR44       0.2313
     27  O         -6.9410  -13.2040  -20.9130 O.2    44  THR44      -0.2863
     28  CB        -9.0530  -14.3990  -19.1050 C.3    44  THR44       0.1794
     29  OG1      -10.4760  -14.5750  -19.0160 O.3    44  THR44      -0.2208
     30  CG2       -8.3850  -14.9180  -17.8340 C.3    44  THR44       0.0378
     31  N        -13.0300  -16.8090  -11.9600 N.3    53  PRO53      -0.2102
     32  CA       -13.5520  -15.4380  -12.1120 C.3    53  PRO53       0.1504
     33  C        -13.6930  -14.7330  -10.7570 C.2    53  PRO53       0.2575
     34  O        -13.6170  -13.5070  -10.6640 O.2    53  PRO53      -0.2718
     35  CB       -14.9180  -15.6520  -12.7710 C.3    53  PRO53       0.0282
     36  CG       -15.2870  -17.0750  -12.4360 C.3    53  PRO53       0.0208
     37  CD       -14.0100  -17.8310  -12.3770 C.3    53  PRO53       0.0893
     38  N        -13.8290  -15.5560   -9.7260 N.am   54  ASP54      -0.1974
     39  CA       -13.9910  -15.1920   -8.3300 C.3    54  ASP54       0.1708
     40  C        -12.6720  -14.7870   -7.6520 C.2    54  ASP54       0.2293
     41  O        -12.6790  -14.2410   -6.5490 O.2    54  ASP54      -0.2864
     42  CB       -14.5410  -16.4340   -7.6110 C.3    54  ASP54       0.1436
     43  CG       -15.5800  -16.0970   -6.5670 C.2    54  ASP54       0.3671
     44  OD1      -16.1090  -17.0360   -5.9220 O.co2  54  ASP54      -0.2456
     45  OD2      -15.8750  -14.8900   -6.3990 O.co2  54  ASP54      -0.2456
     46  N         -8.5150  -11.9010  -10.5750 N.3    58  MET58      -0.1230
     47  CA        -9.4170  -11.4960  -11.6590 C.3    58  MET58       0.1702
     48  C        -10.2300  -10.2650  -11.2800 C.2    58  MET58       0.2592
     49  O        -10.4340   -9.3560  -12.0960 O.2    58  MET58      -0.2718
     50  CB       -10.3250  -12.6580  -12.0690 C.3    58  MET58       0.0401
     51  CG        -9.5860  -13.7700  -12.8100 C.3    58  MET58       0.0596
     52  SD        -9.3310  -13.3900  -14.5600 S.3    58  MET58      -0.1393
     53  CE       -10.8250  -14.0870  -15.2530 C.3    58  MET58       0.0692
     54  N        -10.6740  -10.2290  -10.0280 N.am   59  CYS59      -0.1970
     55  CA       -11.3930   -9.0790   -9.4860 C.3    59  CYS59       0.1712
     56  C        -10.5350   -7.8050   -9.4180 C.2    59  CYS59       0.2296
     57  O        -11.0070   -6.7210   -9.7770 O.2    59  CYS59      -0.2864
     58  CB       -11.9880   -9.4230   -8.1210 C.3    59  CYS59       0.0983
     59  SG       -13.4640  -10.4890   -8.2200 S.3    59  CYS59      -0.0798
     60  N         -7.9350   -7.2090  -11.3050 N.3    61  PHE61      -0.1227
     61  CA        -7.7600   -6.8930  -12.7300 C.3    61  PHE61       0.1736
     62  C         -8.9650   -6.1120  -13.2550 C.2    61  PHE61       0.2595
     63  O         -8.8240   -4.9910  -13.7490 O.2    61  PHE61      -0.2718
     64  CB        -7.6140   -8.1990  -13.5120 C.3    61  PHE61       0.0547
     65  CG        -7.3400   -8.0150  -14.9690 C.ar   61  PHE61      -0.0202
     66  CD1       -6.0660   -7.6440  -15.4100 C.ar   61  PHE61      -0.0042
     67  CD2       -8.3380   -8.2690  -15.9180 C.ar   61  PHE61      -0.0042
     68  CE1       -5.7940   -7.4890  -16.7790 C.ar   61  PHE61      -0.0003
     69  CE2       -8.0790   -8.1210  -17.2780 C.ar   61  PHE61      -0.0003
     70  CZ        -6.8010   -7.7250  -17.7110 C.ar   61  PHE61      -0.0000
     71  N        -10.1550   -6.7070  -13.1410 N.am   62  ALA62      -0.1980
     72  CA       -11.3900   -6.0100  -13.4830 C.3    62  ALA62       0.1597
     73  C        -11.4770   -4.6230  -12.8290 C.2    62  ALA62       0.2287
     74  O        -11.8380   -3.6610  -13.4980 O.2    62  ALA62      -0.2864
     75  CB       -12.6120   -6.8590  -13.1300 C.3    62  ALA62       0.0319
@<TRIPOS>BOND
     1    18    17    1
     2    16    17    1
     3    16    15    1
     4    23    20    1
     5    14    15    1
     6    14    11    1
     7    20    19    1
     8    20    21    1
     9    27    26    2
    10    19    12   am
    11    13    12    2
    12    12    11    1
    13    11    10    1
    14    24    21   am
    15    24    25    1
    16    10     3   am
    17     1     2    1
    18    21    22    2
    19    26    25    1
    20    25    28    1
    21    28    29    1
    22    28    30    1
    23     3     2    1
    24     3     4    2
    25     2     5    1
    26     5     6    1
    27    70    69   ar
    28    70    68   ar
    29    69    67   ar
    30     6     7    1
    31     8     7    2
    32    68    66   ar
    33     7     9   am
    34    67    65   ar
    35    66    65   ar
    36    53    52    1
    37    65    64    1
    38    52    51    1
    39    63    62    2
    40    64    61    1
    41    74    73    2
    42    72    71    1
    43    72    75    1
    44    72    73    1
    45    62    71   am
    46    62    61    1
    47    51    50    1
    48    35    36    1
    49    35    32    1
    50    61    60    1
    51    36    37    1
    52    37    31    1
    53    32    31    1
    54    32    33    1
    55    49    48    2
    56    50    47    1
    57    47    48    1
    58    47    46    1
    59    48    54   am
    60    33    34    2
    61    33    38   am
    62    54    55    1
    63    57    56    2
    64    38    39    1
    65    55    56    1
    66    55    58    1
    67    39    40    1
    68    39    42    1
    69    59    58    1
    70    40    41    2
    71    42    43    1
    72    43    45   ar
    73    43    44   ar
