@<TRIPOS>MOLECULE
tmp/3forA00.pdb
 149 144 0 0 0
SMALL
GASTEIGER

@<TRIPOS>ATOM
      1  N        -14.0660  -46.9070    1.5570 N.3   111  ASN111     -0.1225
      2  CA       -12.9230  -46.0350    1.8190 C.3   111  ASN111      0.1785
      3  C        -12.6440  -45.0330    0.7050 C.2   111  ASN111      0.2597
      4  O        -11.5410  -44.9950    0.1630 O.2   111  ASN111     -0.2718
      5  CB       -11.6540  -46.8690    2.0590 C.3   111  ASN111      0.1169
      6  CG       -11.7200  -47.6830    3.3370 C.2   111  ASN111      0.2627
      7  OD1      -12.0320  -47.1590    4.4020 O.2   111  ASN111     -0.2716
      8  ND2      -11.4120  -48.9710    3.2370 N.am  111  ASN111     -0.0877
      9  N        -13.6290  -44.2140    0.3630 N.am  112  ASN112     -0.1960
     10  CA       -13.4200  -43.2250   -0.6810 C.3   112  ASN112      0.1819
     11  C        -14.5570  -42.2140   -0.7310 C.2   112  ASN112      0.2621
     12  O        -15.5670  -42.3580   -0.0420 O.2   112  ASN112     -0.2715
     13  CB       -13.2920  -43.9130   -2.0420 C.3   112  ASN112      0.1195
     14  CG       -12.1520  -43.3530   -2.8760 C.2   112  ASN112      0.2630
     15  OD1      -12.0520  -42.1470   -3.0860 O.2   112  ASN112     -0.2716
     16  ND2      -11.2850  -44.2360   -3.3600 N.am  112  ASN112     -0.0877
     17  N        -14.3640  -41.1870   -1.5500 N.am  113  ALA113     -0.1963
     18  CA       -15.3510  -40.1370   -1.7560 C.3   113  ALA113      0.1728
     19  C        -15.1480  -39.7050   -3.1990 C.2   113  ALA113      0.2616
     20  O        -14.0550  -39.8590   -3.7430 O.2   113  ALA113     -0.2715
     21  CB       -15.0990  -38.9710   -0.8130 C.3   113  ALA113      0.0334
     22  N        -16.1880  -39.1770   -3.8280 N.am  114  PHE114     -0.1974
     23  CA       -16.0620  -38.7590   -5.2130 C.3   114  PHE114      0.1639
     24  C        -17.2040  -37.8900   -5.6990 C.2   114  PHE114      0.2290
     25  O        -18.2440  -37.7710   -5.0450 O.2   114  PHE114     -0.2864
     26  CB       -15.9610  -39.9830   -6.1370 C.3   114  PHE114      0.0560
     27  CG       -17.1370  -40.9380   -6.0330 C.ar  114  PHE114     -0.0200
     28  CD1      -17.2110  -41.8710   -5.0000 C.ar  114  PHE114     -0.0042
     29  CD2      -18.1690  -40.8950   -6.9660 C.ar  114  PHE114     -0.0042
     30  CE1      -18.2950  -42.7460   -4.8990 C.ar  114  PHE114     -0.0003
     31  CE2      -19.2580  -41.7650   -6.8760 C.ar  114  PHE114     -0.0003
     32  CZ       -19.3220  -42.6930   -5.8400 C.ar  114  PHE114     -0.0000
     33  N         -9.8860  -45.4870    6.8930 N.3   130  PHE130     -0.1241
     34  CA       -10.6030  -44.2130    6.8720 C.3   130  PHE130      0.1605
     35  C        -11.7700  -44.1810    7.8490 C.2   130  PHE130      0.2264
     36  O        -12.3070  -45.2210    8.2300 O.2   130  PHE130     -0.2867
     37  CB       -11.2070  -43.9620    5.4830 C.3   130  PHE130      0.0534
     38  CG       -10.2670  -43.3430    4.4900 C.ar  130  PHE130     -0.0203
     39  CD1       -9.8560  -42.0230    4.6310 C.ar  130  PHE130     -0.0042
     40  CD2       -9.8280  -44.0670    3.3880 C.ar  130  PHE130     -0.0042
     41  CE1       -9.0220  -41.4310    3.6840 C.ar  130  PHE130     -0.0003
     42  CE2       -8.9930  -43.4830    2.4360 C.ar  130  PHE130     -0.0003
     43  CZ        -8.5920  -42.1640    2.5860 C.ar  130  PHE130     -0.0000
     44  N        -15.2830  -39.9560    5.4050 N.3   133  LEU133     -0.1245
     45  CA       -14.4780  -39.0170    4.6300 C.3   133  LEU133      0.1561
     46  C        -14.9130  -37.5600    4.5700 C.2   133  LEU133      0.2260
     47  O        -14.0860  -36.6860    4.2900 O.2   133  LEU133     -0.2867
     48  CB       -14.2760  -39.5500    3.2040 C.3   133  LEU133      0.0270
     49  CG       -13.3110  -40.7390    3.1040 C.3   133  LEU133      0.0019
     50  CD1      -14.0370  -42.0260    3.4390 C.3   133  LEU133      0.0001
     51  CD2      -12.7240  -40.8090    1.7040 C.3   133  LEU133      0.0001
     52  N        -10.8320  -32.9600    1.7080 N.3   139  VAL139     -0.1245
     53  CA       -11.4690  -34.0130    0.9110 C.3   139  VAL139      0.1561
     54  C        -12.7350  -33.4620    0.2540 C.2   139  VAL139      0.2260
     55  O        -12.9800  -33.6770   -0.9350 O.2   139  VAL139     -0.2867
     56  CB       -11.8620  -35.2250    1.7890 C.3   139  VAL139      0.0252
     57  CG1      -12.7400  -36.1940    0.9940 C.3   139  VAL139      0.0019
     58  CG2      -10.6110  -35.9370    2.2740 C.3   139  VAL139      0.0019
     59  N        -11.7740  -30.9060   -2.3440 N.3   142  HIS142     -0.1226
     60  CA       -11.1190  -31.6170   -3.4370 C.3   142  HIS142      0.1752
     61  C        -12.1850  -32.1430   -4.3950 C.2   142  HIS142      0.2595
     62  O        -12.1110  -31.9370   -5.6060 O.2   142  HIS142     -0.2718
     63  CB       -10.2980  -32.7830   -2.8720 C.3   142  HIS142      0.0759
     64  CG        -9.7550  -33.7140   -3.9150 C.ar  142  HIS142      0.0818
     65  ND1       -8.4170  -33.7750   -4.2350 N.ar  142  HIS142     -0.2268
     66  CD2      -10.3710  -34.6260   -4.7010 C.ar  142  HIS142      0.1154
     67  CE1       -8.2300  -34.6850   -5.1740 C.ar  142  HIS142      0.1986
     68  NE2       -9.4010  -35.2170   -5.4740 N.ar  142  HIS142     -0.2212
     69  N        -13.1880  -32.8140   -3.8390 N.am  143  GLU143     -0.1979
     70  CA       -14.2580  -33.3750   -4.6490 C.3   143  GLU143      0.1602
     71  C        -15.0980  -32.3070   -5.3500 C.2   143  GLU143      0.2287
     72  O        -15.3870  -32.4190   -6.5410 O.2   143  GLU143     -0.2864
     73  CB       -15.1590  -34.2490   -3.7850 C.3   143  GLU143      0.0415
     74  CG       -14.4650  -35.3960   -3.0630 C.3   143  GLU143      0.1163
     75  CD       -13.6670  -36.2860   -3.9910 C.2   143  GLU143      0.3649
     76  OE1      -13.9730  -36.3290   -5.2010 O.co2 143  GLU143     -0.2457
     77  OE2      -12.7340  -36.9560   -3.5000 O.co2 143  GLU143     -0.2457
     78  N        -13.6160  -30.8990   -8.4240 N.3   146  HIS146     -0.1241
     79  CA       -13.7310  -31.6800   -9.6580 C.3   146  HIS146      0.1621
     80  C        -14.9180  -31.1720  -10.4710 C.2   146  HIS146      0.2264
     81  O        -14.8880  -31.1810  -11.6990 O.2   146  HIS146     -0.2867
     82  CB       -13.9380  -33.1600   -9.3600 C.3   146  HIS146      0.0745
     83  CG       -12.6650  -33.9000   -9.1160 C.ar  146  HIS146      0.0817
     84  ND1      -11.5980  -33.8390   -9.9840 N.ar  146  HIS146     -0.2268
     85  CD2      -12.2830  -34.7110   -8.1020 C.ar  146  HIS146      0.1154
     86  CE1      -10.6110  -34.5810   -9.5150 C.ar  146  HIS146      0.1986
     87  NE2      -11.0020  -35.1200   -8.3750 N.ar  146  HIS146     -0.2212
     88  N        -10.0020  -37.1590  -17.5830 N.3   157  TYR157     -0.1241
     89  CA        -9.4920  -37.8960  -16.4330 C.3   157  TYR157      0.1605
     90  C         -8.5780  -39.0740  -16.7420 C.2   157  TYR157      0.2264
     91  O         -8.8810  -40.2180  -16.3990 O.2   157  TYR157     -0.2867
     92  CB       -10.6590  -38.3700  -15.5690 C.3   157  TYR157      0.0534
     93  CG       -10.3060  -38.5380  -14.1100 C.ar  157  TYR157     -0.0201
     94  CD1       -9.8950  -37.4450  -13.3440 C.ar  157  TYR157     -0.0009
     95  CD2      -10.4070  -39.7800  -13.4840 C.ar  157  TYR157     -0.0009
     96  CE1       -9.5960  -37.5830  -11.9910 C.ar  157  TYR157      0.0417
     97  CE2      -10.1110  -39.9290  -12.1260 C.ar  157  TYR157      0.0417
     98  CZ        -9.7080  -38.8250  -11.3880 C.ar  157  TYR157      0.1957
     99  OH        -9.4360  -38.9590  -10.0450 O.3   157  TYR157     -0.2866
    100  N         -6.4620  -33.9780  -11.0090 N.3   166  GLU166     -0.1245
    101  CA        -6.2710  -34.3730   -9.6130 C.3   166  GLU166      0.1567
    102  C         -5.5450  -33.3140   -8.7940 C.2   166  GLU166      0.2260
    103  O         -5.9510  -33.0000   -7.6690 O.2   166  GLU166     -0.2867
    104  CB        -5.4850  -35.6830   -9.5290 C.3   166  GLU166      0.0388
    105  CG        -6.3580  -36.9140   -9.5040 C.3   166  GLU166      0.1160
    106  CD        -7.3700  -36.8630   -8.3840 C.2   166  GLU166      0.3649
    107  OE1       -6.9600  -36.7080   -7.2130 O.co2 166  GLU166     -0.2457
    108  OE2       -8.5750  -36.9770   -8.6780 O.co2 166  GLU166     -0.2457
    109  N         -2.8200  -34.2810    2.2850 N.3   188  ILE188     -0.1231
    110  CA        -4.1800  -34.5170    1.8090 C.3   188  ILE188      0.1692
    111  C         -4.9130  -35.6020    2.5900 C.2   188  ILE188      0.2592
    112  O         -4.4470  -36.7370    2.6700 O.2   188  ILE188     -0.2718
    113  CB        -4.2000  -34.9190    0.3210 C.3   188  ILE188      0.0266
    114  CG1       -3.4930  -33.8530   -0.5250 C.3   188  ILE188      0.0019
    115  CG2       -5.6460  -35.1180   -0.1430 C.3   188  ILE188      0.0020
    116  CD1       -4.1740  -32.5000   -0.5330 C.3   188  ILE188      0.0001
    117  N         -6.0560  -35.2320    3.1640 N.am  189  GLY189     -0.1957
    118  CA        -6.8850  -36.1740    3.8990 C.3   189  GLY189      0.1869
    119  C         -6.4300  -36.6540    5.2630 C.2   189  GLY189      0.2309
    120  O         -6.9920  -37.6140    5.7920 O.2   189  GLY189     -0.2863
    121  N         -2.9860  -39.2680    2.9910 N.3   202  LEU202     -0.1231
    122  CA        -3.1470  -40.0090    1.7490 C.3   202  LEU202      0.1693
    123  C         -2.0800  -39.5670    0.7530 C.2   202  LEU202      0.2591
    124  O         -1.4610  -40.3940    0.0850 O.2   202  LEU202     -0.2718
    125  CB        -4.5470  -39.7550    1.1800 C.3   202  LEU202      0.0284
    126  CG        -5.1220  -40.7040    0.1290 C.3   202  LEU202      0.0019
    127  CD1       -5.1040  -42.1390    0.6420 C.3   202  LEU202      0.0001
    128  CD2       -6.5500  -40.2680   -0.1860 C.3   202  LEU202      0.0001
    129  N         -1.8760  -38.2570    0.6590 N.am  203  ARG203     -0.1980
    130  CA        -0.8780  -37.6880   -0.2410 C.3   203  ARG203      0.1597
    131  C         -0.2420  -36.4830    0.4320 C.2   203  ARG203      0.2287
    132  O         -0.7880  -35.9380    1.3920 O.2   203  ARG203     -0.2864
    133  CB        -1.5120  -37.2160   -1.5580 C.3   203  ARG203      0.0334
    134  CG        -2.0200  -38.3030   -2.4870 C.3   203  ARG203      0.0492
    135  CD        -2.4850  -37.6900   -3.8100 C.3   203  ARG203      0.2205
    136  NE        -3.7300  -36.9250   -3.6900 N.pl3 203  ARG203     -0.0865
    137  CZ        -4.9390  -37.4730   -3.5890 C.cat 203  ARG203      0.5346
    138  NH1       -5.0740  -38.7930   -3.5870 N.pl3 203  ARG203      0.1354
    139  NH2       -6.0200  -36.7040   -3.5170 N.pl3 203  ARG203      0.1354
    140  N         -3.5820  -40.1000   -9.7900 N.3   231  HIS231     -0.1241
    141  CA        -3.3720  -39.8060   -8.3720 C.3   231  HIS231      0.1621
    142  C         -1.8940  -39.9280   -8.0150 C.2   231  HIS231      0.2264
    143  O         -1.4850  -39.6090   -6.8970 O.2   231  HIS231     -0.2867
    144  CB        -4.1660  -40.7690   -7.4800 C.3   231  HIS231      0.0745
    145  CG        -5.6500  -40.6430   -7.6170 C.ar  231  HIS231      0.0817
    146  ND1       -6.3950  -41.4610   -8.4400 N.ar  231  HIS231     -0.2268
    147  CD2       -6.5290  -39.7900   -7.0390 C.ar  231  HIS231      0.1154
    148  CE1       -7.6690  -41.1160   -8.3620 C.ar  231  HIS231      0.1986
    149  NE2       -7.7760  -40.1050   -7.5190 N.ar  231  HIS231     -0.2212
@<TRIPOS>BOND
     1    88    89    1
     2    90    89    1
     3    90    91    2
     4    89    92    1
     5    92    93    1
     6    93    95   ar
     7    93    94   ar
     8    95    97   ar
     9    94    96   ar
    10    97    98   ar
    11    96    98   ar
    12    81    80    2
    13    98    99    1
    14   100   101    1
    15    80    79    1
    16    84    86   ar
    17    84    83   ar
    18   140   141    1
    19    79    82    1
    20    79    78    1
    21   101   104    1
    22   101   102    1
    23   104   105    1
    24    86    87   ar
    25   105   106    1
    26    82    83    1
    27    83    85   ar
    28   102   103    2
    29   108   106   ar
    30   146   148   ar
    31   146   145   ar
    32   106   107   ar
    33    87    85   ar
    34   141   142    1
    35   141   144    1
    36   148   149   ar
    37   142   143    2
    38   145   144    1
    39   145   147   ar
    40   149   147   ar
    41    29    31   ar
    42    29    27   ar
    43    31    32   ar
    44    72    71    2
    45    26    27    1
    46    26    23    1
    47    27    28   ar
    48    32    30   ar
    49    24    23    1
    50    24    25    2
    51    62    61    2
    52    68    67   ar
    53    68    66   ar
    54    71    70    1
    55    23    22    1
    56    76    75   ar
    57    67    65   ar
    58    28    30   ar
    59    66    64   ar
    60    70    69    1
    61    70    73    1
    62    61    69   am
    63    61    60    1
    64    65    64   ar
    65    75    77   ar
    66    75    74    1
    67    64    63    1
    68    22    19   am
    69   135   136    1
    70   135   134    1
    71    73    74    1
    72    20    19    2
    73   136   137    2
    74   137   138    1
    75   137   139    1
    76    60    63    1
    77    60    59    1
    78    16    14   am
    79    19    18    1
    80    15    14    2
    81    14    13    1
    82   134   133    1
    83    13    10    1
    84    18    17    1
    85    18    21    1
    86   133   130    1
    87    17    11   am
    88    55    54    2
    89    11    10    1
    90    11    12    2
    91    10     9    1
    92   116   114    1
    93   114   113    1
    94   130   131    1
    95   130   129    1
    96   128   126    1
    97   115   113    1
    98   124   123    2
    99   126   127    1
   100   126   125    1
   101     4     3    2
   102    54    53    1
   103   113   110    1
   104     9     3   am
   105   131   132    2
   106   129   123   am
   107     3     2    1
   108   123   122    1
   109    53    52    1
   110    53    56    1
   111    57    56    1
   112   125   122    1
   113     1     2    1
   114    51    49    1
   115   122   121    1
   116    56    58    1
   117   110   109    1
   118   110   111    1
   119     2     5    1
   120     5     6    1
   121    42    43   ar
   122    42    40   ar
   123    43    41   ar
   124   111   112    2
   125   111   117   am
   126    49    48    1
   127    49    50    1
   128   117   118    1
   129    48    45    1
   130     8     6   am
   131     6     7    2
   132    40    38   ar
   133    41    39   ar
   134   118   119    1
   135    47    46    2
   136    38    39   ar
   137    38    37    1
   138    46    45    1
   139    45    44    1
   140   119   120    2
   141    37    34    1
   142    34    33    1
   143    34    35    1
   144    35    36    2
