@<TRIPOS>MOLECULE
tmp/3fp0A01.pdb
 91 87 0 0 0
SMALL
GASTEIGER

@<TRIPOS>ATOM
      1  N         14.6460   -0.8440  -14.0100 N.3   275  VAL275     -0.1231
      2  CA        15.0970   -0.4990  -12.6540 C.3   275  VAL275      0.1692
      3  C         15.1950    1.0340  -12.6070 C.2   275  VAL275      0.2592
      4  O         15.6490    1.6440  -13.5650 O.2   275  VAL275     -0.2718
      5  CB        16.4920   -1.1170  -12.3560 C.3   275  VAL275      0.0266
      6  CG1       16.9040   -0.9130  -10.8790 C.3   275  VAL275      0.0020
      7  CG2       16.5160   -2.5940  -12.7310 C.3   275  VAL275      0.0020
      8  N         14.7630    1.6350  -11.5040 N.am  276  ILE276     -0.1966
      9  CA        14.6380    3.0960  -11.4080 C.3   276  ILE276      0.1727
     10  C         15.3830    3.5560  -10.1540 C.2   276  ILE276      0.2616
     11  O         15.3540    2.8670   -9.0870 O.2   276  ILE276     -0.2715
     12  CB        13.1380    3.5070  -11.2720 C.3   276  ILE276      0.0290
     13  CG1       12.2880    3.0300  -12.4660 C.3   276  ILE276      0.0022
     14  CG2       12.9750    5.0520  -11.0410 C.3   276  ILE276      0.0023
     15  CD1       10.7670    3.0990  -12.1650 C.3   276  ILE276      0.0001
     16  N         16.0490    4.7060  -10.2610 N.am  277  HIS277     -0.1959
     17  CA        16.6390    5.3680   -9.1100 C.3   277  HIS277      0.1787
     18  C         16.2070    6.8220   -9.1820 C.2   277  HIS277      0.2620
     19  O         16.6030    7.5930  -10.0790 O.2   277  HIS277     -0.2715
     20  CB        18.1790    5.2670   -9.0600 C.3   277  HIS277      0.0785
     21  CG        18.7650    5.8320   -7.8070 C.ar  277  HIS277      0.0821
     22  ND1       19.2960    5.0420   -6.8150 N.ar  277  HIS277     -0.2267
     23  CD2       18.8690    7.1080   -7.3670 C.ar  277  HIS277      0.1154
     24  CE1       19.6830    5.8050   -5.8060 C.ar  277  HIS277      0.1986
     25  NE2       19.4200    7.0610   -6.1110 N.ar  277  HIS277     -0.2212
     26  N         15.3760    7.1810   -8.2190 N.am  278  LYS278     -0.1963
     27  CA        14.9010    8.5220   -8.0900 C.3   278  LYS278      0.1728
     28  C         15.8550    9.1870   -7.0790 C.2   278  LYS278      0.2616
     29  O         15.8150    8.8630   -5.8830 O.2   278  LYS278     -0.2715
     30  CB        13.4430    8.4760   -7.6040 C.3   278  LYS278      0.0311
     31  CG        12.4820    7.8800   -8.6450 C.3   278  LYS278      0.0038
     32  CD        10.9840    8.1470   -8.3520 C.3   278  LYS278      0.0206
     33  CE        10.1280    8.2050   -9.6430 C.3   278  LYS278      0.1093
     34  NZ        10.5160    9.2550  -10.7070 N.3   278  LYS278     -0.1314
     35  N         16.7530   10.0410   -7.5630 N.am  279  LEU279     -0.1963
     36  CA        17.5520   10.8770   -6.6720 C.3   279  LEU279      0.1728
     37  C         16.6400   11.8950   -5.9990 C.2   279  LEU279      0.2616
     38  O         15.6290   12.3400   -6.5830 O.2   279  LEU279     -0.2715
     39  CB        18.6550   11.6190   -7.4250 C.3   279  LEU279      0.0311
     40  CG        19.7660   10.8370   -8.1440 C.3   279  LEU279      0.0022
     41  CD1       20.4860   11.7200   -9.1500 C.3   279  LEU279      0.0001
     42  CD2       20.7650   10.2280   -7.2070 C.3   279  LEU279      0.0001
     43  N         16.9780   12.2690   -4.7640 N.am  280  SER280     -0.1950
     44  CA        16.2140   13.3430   -4.0940 C.3   280  SER280      0.1924
     45  C         16.4020   14.7070   -4.7330 C.2   280  SER280      0.2314
     46  O         17.3700   14.9610   -5.4450 O.2   280  SER280     -0.2863
     47  CB        16.5320   13.4150   -2.5900 C.3   280  SER280      0.2116
     48  OG        17.8990   13.7300   -2.3700 O.3   280  SER280     -0.2180
     49  N         19.8110   15.8940   -3.3940 N.3   283  GLU283     -0.1245
     50  CA        20.9250   15.2960   -4.1260 C.3   283  GLU283      0.1567
     51  C         21.0860   15.8750   -5.5170 C.2   283  GLU283      0.2260
     52  O         22.2090   16.1470   -5.9520 O.2   283  GLU283     -0.2867
     53  CB        20.7570   13.7800   -4.2620 C.3   283  GLU283      0.0388
     54  CG        20.7630   13.0340   -2.9330 C.3   283  GLU283      0.1160
     55  CD        20.4220   11.5780   -3.0840 C.2   283  GLU283      0.3649
     56  OE1       19.6820   11.1910   -4.0450 O.co2 283  GLU283     -0.2457
     57  OE2       20.8860   10.8060   -2.2230 O.co2 283  GLU283     -0.2457
     58  N         20.5760   -3.4970  -11.3490 N.3   496  GLN496     -0.1245
     59  CA        20.5540   -2.7200  -10.1120 C.3   496  GLN496      0.1566
     60  C         21.9830   -2.3360   -9.7030 C.2   496  GLN496      0.2260
     61  O         22.2430   -1.2020   -9.3290 O.2   496  GLN496     -0.2867
     62  CB        19.9470   -3.5330   -8.9670 C.3   496  GLN496      0.0367
     63  CG        18.4500   -3.7560   -9.0210 C.3   496  GLN496      0.0905
     64  CD        17.9890   -4.6930   -7.9150 C.2   496  GLN496      0.2608
     65  OE1       18.4440   -5.8380   -7.8190 O.2   496  GLN496     -0.2717
     66  NE2       17.0920   -4.2100   -7.0750 N.am  496  GLN496     -0.0878
     67  N         23.2680    0.3310  -12.1850 N.3   499  LEU499     -0.1231
     68  CA        22.6360    1.6220  -11.9160 C.3   499  LEU499      0.1693
     69  C         23.1860    2.2810  -10.6300 C.2   499  LEU499      0.2591
     70  O         23.4230    3.4920  -10.5840 O.2   499  LEU499     -0.2718
     71  CB        21.1110    1.4580  -11.8120 C.3   499  LEU499      0.0284
     72  CG        20.3020    2.7400  -11.5790 C.3   499  LEU499      0.0019
     73  CD1       20.6580    3.9320  -12.5460 C.3   499  LEU499      0.0001
     74  CD2       18.8260    2.3500  -11.6680 C.3   499  LEU499      0.0001
     75  N         23.3750    1.4820   -9.5830 N.am  500  GLN500     -0.1979
     76  CA        23.8940    1.9900   -8.3020 C.3   500  GLN500      0.1601
     77  C         25.3010    2.5550   -8.4600 C.2   500  GLN500      0.2287
     78  O         25.6550    3.6120   -7.8690 O.2   500  GLN500     -0.2864
     79  CB        23.8880    0.8790   -7.2540 C.3   500  GLN500      0.0394
     80  CG        22.4970    0.5140   -6.7480 C.3   500  GLN500      0.0908
     81  CD        21.7000    1.7270   -6.2920 C.2   500  GLN500      0.2608
     82  OE1       20.9590    2.3500   -7.0790 O.2   500  GLN500     -0.2717
     83  NE2       21.8710    2.0900   -5.0320 N.am  500  GLN500     -0.0878
     84  N         27.0800   11.0300   -7.4340 N.3   507  LEU507     -0.1245
     85  CA        27.0910   11.5390   -6.0500 C.3   507  LEU507      0.1561
     86  C         28.5020   11.9790   -5.6170 C.2   507  LEU507      0.2260
     87  O         28.6800   13.0160   -4.9250 O.2   507  LEU507     -0.2867
     88  CB        26.4950   10.4730   -5.0880 C.3   507  LEU507      0.0270
     89  CG        24.9600   10.3410   -5.1630 C.3   507  LEU507      0.0019
     90  CD1       24.4230    9.1490   -4.3980 C.3   507  LEU507      0.0001
     91  CD2       24.2530   11.6240   -4.7170 C.3   507  LEU507      0.0001
@<TRIPOS>BOND
     1     1     2    1
     2     4     3    2
     3     7     5    1
     4     2     3    1
     5     2     5    1
     6     3     8   am
     7    73    72    1
     8    13    15    1
     9    13    12    1
    10     5     6    1
    11    67    68    1
    12    68    71    1
    13    68    69    1
    14    71    72    1
    15    74    72    1
    16     8     9    1
    17     9    12    1
    18     9    10    1
    19    58    59    1
    20    12    14    1
    21    34    33    1
    22    69    70    2
    23    69    75   am
    24    16    10   am
    25    16    17    1
    26    10    11    2
    27    59    60    1
    28    59    62    1
    29    19    18    2
    30    60    61    2
    31    33    32    1
    32    75    76    1
    33    18    17    1
    34    18    26   am
    35    41    40    1
    36    17    20    1
    37    20    21    1
    38    63    62    1
    39    63    64    1
    40    31    32    1
    41    31    30    1
    42    77    76    1
    43    77    78    2
    44    76    79    1
    45    26    27    1
    46    40    39    1
    47    40    42    1
    48    27    30    1
    49    27    28    1
    50    64    65    2
    51    64    66   am
    52    21    23   ar
    53    21    22   ar
    54    35    28   am
    55    35    36    1
    56    84    85    1
    57    39    36    1
    58    23    25   ar
    59    79    80    1
    60    28    29    2
    61    82    81    2
    62    22    24   ar
    63    80    81    1
    64    36    37    1
    65    38    37    2
    66    81    83   am
    67    25    24   ar
    68    85    86    1
    69    85    88    1
    70    37    43   am
    71    52    51    2
    72    86    87    2
    73    51    50    1
    74    46    45    2
    75    89    88    1
    76    89    91    1
    77    89    90    1
    78    43    44    1
    79    45    44    1
    80    53    50    1
    81    53    54    1
    82    50    49    1
    83    44    47    1
    84    56    55   ar
    85    55    54    1
    86    55    57   ar
    87    47    48    1
