@<TRIPOS>MOLECULE
tmp/3fp0A00.pdb
 182 169 0 0 0
SMALL
GASTEIGER

@<TRIPOS>ATOM
      1  N         14.0200    7.9660  -37.5860 N.3    32  ALA32      -0.1245
      2  CA        13.7920    7.0750  -36.4270 C.3    32  ALA32       0.1562
      3  C         12.4090    6.4350  -36.4400 C.2    32  ALA32       0.2260
      4  O         12.2300    5.3720  -35.8390 O.2    32  ALA32      -0.2867
      5  CB        14.0030    7.8340  -35.1280 C.3    32  ALA32       0.0290
      6  N         12.7750    2.9730  -37.8000 N.3    35  ILE35      -0.1231
      7  CA        13.3470    2.0240  -36.8270 C.3    35  ILE35       0.1692
      8  C         12.2330    1.4680  -35.9210 C.2    35  ILE35       0.2591
      9  O         12.0450    0.2600  -35.8650 O.2    35  ILE35      -0.2718
     10  CB        14.4970    2.6100  -35.9470 C.3    35  ILE35       0.0266
     11  CG1       15.6730    3.1090  -36.8270 C.3    35  ILE35       0.0019
     12  CG2       14.9520    1.5360  -34.8910 C.3    35  ILE35       0.0020
     13  CD1       16.7860    3.9010  -36.0930 C.3    35  ILE35       0.0001
     14  N         11.5010    2.3470  -35.2280 N.am   36  VAL36      -0.1980
     15  CA        10.4610    1.8730  -34.3220 C.3    36  VAL36       0.1595
     16  C          9.3100    1.1730  -35.0320 C.2    36  VAL36       0.2287
     17  O          8.6360    0.3330  -34.4430 O.2    36  VAL36      -0.2864
     18  CB         9.9100    2.9730  -33.3340 C.3    36  VAL36       0.0276
     19  CG1       11.0620    3.4490  -32.4460 C.3    36  VAL36       0.0022
     20  CG2        9.2970    4.1320  -34.0720 C.3    36  VAL36       0.0022
     21  N         10.0830   -0.9020  -27.9840 N.3    47  TYR47      -0.1241
     22  CA        10.1160    0.5490  -27.8210 C.3    47  TYR47       0.1605
     23  C          8.7570    1.2500  -27.5360 C.2    47  TYR47       0.2264
     24  O          8.7260    2.4890  -27.4780 O.2    47  TYR47      -0.2867
     25  CB        10.8210    1.1860  -29.0450 C.3    47  TYR47       0.0534
     26  CG        12.2810    0.7250  -29.2320 C.ar   47  TYR47      -0.0201
     27  CD1       13.1020    0.4430  -28.1120 C.ar   47  TYR47      -0.0009
     28  CD2       12.8390    0.6120  -30.5100 C.ar   47  TYR47      -0.0009
     29  CE1       14.4610    0.0030  -28.2800 C.ar   47  TYR47       0.0417
     30  CE2       14.1770    0.1980  -30.6940 C.ar   47  TYR47       0.0417
     31  CZ        14.9800   -0.0830  -29.5900 C.ar   47  TYR47       0.1957
     32  OH        16.2780   -0.4710  -29.7730 O.3    47  TYR47      -0.2866
     33  N          5.4390    3.8260  -30.0380 N.3   182  HIS182     -0.1241
     34  CA         6.4890    4.8300  -30.2360 C.3   182  HIS182      0.1621
     35  C          6.4470    5.3940  -31.6760 C.2   182  HIS182      0.2264
     36  O          7.0330    6.4300  -31.9170 O.2   182  HIS182     -0.2867
     37  CB         7.8730    4.2400  -29.9360 C.3   182  HIS182      0.0745
     38  CG         8.9180    5.2380  -29.5210 C.ar  182  HIS182      0.0817
     39  ND1        8.9760    6.5310  -30.0100 N.ar  182  HIS182     -0.2268
     40  CD2        9.9900    5.0980  -28.6980 C.ar  182  HIS182      0.1154
     41  CE1       10.0490    7.1370  -29.5150 C.ar  182  HIS182      0.1986
     42  NE2       10.6530    6.3090  -28.6810 N.ar  182  HIS182     -0.2212
     43  N         28.7890    8.6400  -39.2480 N.3   250  TYR250     -0.1241
     44  CA        27.7830    8.1510  -38.3280 C.3   250  TYR250      0.1605
     45  C         27.5230    6.6770  -38.5680 C.2   250  TYR250      0.2264
     46  O         27.6070    5.9090  -37.6280 O.2   250  TYR250     -0.2867
     47  CB        26.4930    8.9510  -38.4000 C.3   250  TYR250      0.0534
     48  CG        25.5540    8.5610  -37.3000 C.ar  250  TYR250     -0.0201
     49  CD1       25.5980    9.2340  -36.0740 C.ar  250  TYR250     -0.0009
     50  CD2       24.7000    7.4740  -37.4320 C.ar  250  TYR250     -0.0009
     51  CE1       24.7660    8.8560  -35.0360 C.ar  250  TYR250      0.0417
     52  CE2       23.8500    7.0790  -36.3810 C.ar  250  TYR250      0.0417
     53  CZ        23.9050    7.7840  -35.1880 C.ar  250  TYR250      0.1957
     54  OH        23.0880    7.4540  -34.1340 O.3   250  TYR250     -0.2866
     55  N         28.0210    3.5670  -35.9830 N.3   254  LEU254     -0.1245
     56  CA        26.8840    2.7530  -35.6800 C.3   254  LEU254      0.1561
     57  C         27.2800    1.2720  -35.7160 C.2   254  LEU254      0.2260
     58  O         27.1060    0.5470  -34.7270 O.2   254  LEU254     -0.2867
     59  CB        25.7790    3.0980  -36.6800 C.3   254  LEU254      0.0270
     60  CG        24.3220    2.7840  -36.4360 C.3   254  LEU254      0.0019
     61  CD1       23.7620    3.3860  -35.1200 C.3   254  LEU254      0.0001
     62  CD2       23.5330    3.2370  -37.6640 C.3   254  LEU254      0.0001
     63  N         26.7880    6.2580  -30.3920 N.3   328  PRO328     -0.2102
     64  CA        25.7100    7.0490  -31.0270 C.3   328  PRO328      0.1504
     65  C         24.6740    7.4020  -29.9560 C.2   328  PRO328      0.2576
     66  O         24.2850    6.5380  -29.2110 O.2   328  PRO328     -0.2718
     67  CB        25.1310    6.0650  -32.0490 C.3   328  PRO328      0.0282
     68  CG        26.2940    5.1240  -32.3550 C.3   328  PRO328      0.0208
     69  CD        26.9650    4.9440  -31.0310 C.3   328  PRO328      0.0893
     70  N         24.3150    8.6740  -29.8100 N.am  329  THR329     -0.1939
     71  CA        23.4080    9.1010  -28.7500 C.3   329  THR329      0.2028
     72  C         22.4030   10.0630  -29.3480 C.2   329  THR329      0.2642
     73  O         22.7760   10.9850  -30.0810 O.2   329  THR329     -0.2714
     74  CB        24.1340    9.7690  -27.5610 C.3   329  THR329      0.1808
     75  OG1       25.1470    8.8750  -27.0780 O.3   329  THR329     -0.2208
     76  CG2       23.1860   10.0200  -26.4060 C.3   329  THR329      0.0379
     77  N         21.1350    9.8460  -29.0280 N.am  330  SER330     -0.1949
     78  CA        20.0620   10.5650  -29.6990 C.3   330  SER330      0.1924
     79  C         19.9030   11.9390  -29.0900 C.2   330  SER330      0.2314
     80  O         20.2110   12.1680  -27.9150 O.2   330  SER330     -0.2863
     81  CB        18.7420    9.7980  -29.5900 C.3   330  SER330      0.2116
     82  OG        18.4170    9.6690  -28.2200 O.3   330  SER330     -0.2180
     83  N          7.6380   12.1490  -34.0290 N.3   348  MET348     -0.1245
     84  CA         9.0660   11.8730  -33.8800 C.3   348  MET348      0.1570
     85  C          9.9150   13.0020  -34.4980 C.2   348  MET348      0.2261
     86  O          9.7110   13.3940  -35.6540 O.2   348  MET348     -0.2867
     87  CB         9.4200   10.5440  -34.5560 C.3   348  MET348      0.0387
     88  CG        10.9040   10.1430  -34.4510 C.3   348  MET348      0.0595
     89  SD        11.1940    9.2360  -32.8750 S.3   348  MET348     -0.1393
     90  CE        10.3610    7.6740  -33.2750 C.3   348  MET348      0.0692
     91  N         13.8960   13.3530  -34.0480 N.3   350  GLN350     -0.1245
     92  CA        15.1040   12.9450  -33.3810 C.3   350  GLN350      0.1566
     93  C         16.2870   12.9640  -34.3710 C.2   350  GLN350      0.2260
     94  O         16.1320   12.7370  -35.5530 O.2   350  GLN350     -0.2867
     95  CB        14.9570   11.5100  -32.8210 C.3   350  GLN350      0.0367
     96  CG        13.9560   11.4150  -31.7080 C.3   350  GLN350      0.0905
     97  CD        14.5110   12.0410  -30.4330 C.2   350  GLN350      0.2608
     98  OE1       15.6210   11.6960  -30.0220 O.2   350  GLN350     -0.2717
     99  NE2       13.7770   12.9990  -29.8370 N.am  350  GLN350     -0.0878
    100  N         20.9470   12.5930  -33.8290 N.3   352  ALA352     -0.1245
    101  CA        21.9530   11.8880  -33.0520 C.3   352  ALA352      0.1562
    102  C         23.3380   12.5050  -33.2070 C.2   352  ALA352      0.2260
    103  O         23.6040   13.2160  -34.1680 O.2   352  ALA352     -0.2867
    104  CB        22.0010   10.3960  -33.4310 C.3   352  ALA352      0.0290
    105  N         19.0560    7.1900  -39.8610 N.3   406  HIS406     -0.1241
    106  CA        18.0700    6.2830  -39.2900 C.3   406  HIS406      0.1621
    107  C         17.2670    5.4980  -40.3540 C.2   406  HIS406      0.2264
    108  O         16.9150    4.3570  -40.1170 O.2   406  HIS406     -0.2867
    109  CB        17.1880    6.9900  -38.2390 C.3   406  HIS406      0.0745
    110  CG        17.9320    7.3480  -36.9870 C.ar  406  HIS406      0.0817
    111  ND1       17.6110    8.4370  -36.2170 N.ar  406  HIS406     -0.2268
    112  CD2       18.9720    6.7450  -36.3680 C.ar  406  HIS406      0.1154
    113  CE1       18.4130    8.4920  -35.1650 C.ar  406  HIS406      0.1986
    114  NE2       19.2600    7.4820  -35.2410 N.ar  406  HIS406     -0.2212
    115  N         19.6380    2.7200  -40.8660 N.3   409  GLU409     -0.1245
    116  CA        19.6250    1.8280  -39.7040 C.3   409  GLU409      0.1567
    117  C         18.3970    0.9380  -39.6660 C.2   409  GLU409      0.2260
    118  O         18.4960   -0.2270  -39.2210 O.2   409  GLU409     -0.2867
    119  CB        19.7150    2.6390  -38.4100 C.3   409  GLU409      0.0388
    120  CG        19.9600    1.8460  -37.1340 C.3   409  GLU409      0.1160
    121  CD        20.2930    2.7060  -35.9350 C.2   409  GLU409      0.3649
    122  OE1       20.3710    3.9740  -36.0670 O.co2 409  GLU409     -0.2457
    123  OE2       20.4850    2.0840  -34.8460 O.co2 409  GLU409     -0.2457
    124  N         23.4900    2.3790  -23.7550 N.3   427  LEU427     -0.1245
    125  CA        23.0870    3.5690  -24.5150 C.3   427  LEU427      0.1561
    126  C         22.5130    4.5770  -23.5330 C.2   427  LEU427      0.2260
    127  O         21.7810    4.1840  -22.5950 O.2   427  LEU427     -0.2867
    128  CB        22.0520    3.1960  -25.5860 C.3   427  LEU427      0.0270
    129  CG        21.3730    4.3750  -26.3140 C.3   427  LEU427      0.0019
    130  CD1       22.4050    5.2350  -27.0580 C.3   427  LEU427      0.0001
    131  CD2       20.2960    3.8990  -27.2750 C.3   427  LEU427      0.0001
    132  N         20.1740    8.0380  -22.8660 N.3   429  ILE429     -0.1245
    133  CA        19.0650    8.8300  -23.3950 C.3   429  ILE429      0.1561
    134  C         18.7920   10.0050  -22.4410 C.2   429  ILE429      0.2260
    135  O         18.4470    9.8010  -21.2690 O.2   429  ILE429     -0.2867
    136  CB        17.7550    7.9790  -23.5990 C.3   429  ILE429      0.0252
    137  CG1       18.0550    6.6980  -24.3930 C.3   429  ILE429      0.0019
    138  CG2       16.6500    8.8310  -24.2940 C.3   429  ILE429      0.0019
    139  CD1       17.0780    5.5710  -24.2180 C.3   429  ILE429      0.0001
    140  N         10.1880    2.4590  -21.2670 N.3   461  VAL461     -0.1245
    141  CA        10.1560    1.9940  -22.6740 C.3   461  VAL461      0.1561
    142  C         10.3780    0.4800  -22.7090 C.2   461  VAL461      0.2260
    143  O         11.1790   -0.0460  -21.9220 O.2   461  VAL461     -0.2867
    144  CB        11.1980    2.7570  -23.5300 C.3   461  VAL461      0.0252
    145  CG1       11.2200    2.3280  -25.0090 C.3   461  VAL461      0.0019
    146  CG2       10.9600    4.2780  -23.4070 C.3   461  VAL461      0.0019
    147  N         20.6770   -4.7150  -25.0970 N.3   467  TYR467     -0.1241
    148  CA        21.5170   -3.6590  -24.5360 C.3   467  TYR467      0.1605
    149  C         20.8230   -2.9240  -23.3780 C.2   467  TYR467      0.2264
    150  O         19.5940   -2.8510  -23.3010 O.2   467  TYR467     -0.2867
    151  CB        21.9930   -2.6650  -25.6090 C.3   467  TYR467      0.0534
    152  CG        20.9110   -1.8010  -26.2600 C.ar  467  TYR467     -0.0201
    153  CD1       20.7180   -0.4720  -25.8460 C.ar  467  TYR467     -0.0009
    154  CD2       20.1090   -2.3140  -27.2960 C.ar  467  TYR467     -0.0009
    155  CE1       19.7360    0.3470  -26.4540 C.ar  467  TYR467      0.0417
    156  CE2       19.1120   -1.5250  -27.9060 C.ar  467  TYR467      0.0417
    157  CZ        18.9480   -0.1790  -27.4860 C.ar  467  TYR467      0.1957
    158  OH        17.9870    0.6010  -28.0900 O.3   467  TYR467     -0.2866
    159  N         19.7100    0.4670  -21.7820 N.3   469  ALA469     -0.1245
    160  CA        19.4730    1.8770  -22.1270 C.3   469  ALA469      0.1562
    161  C         19.1800    2.6250  -20.8630 C.2   469  ALA469      0.2260
    162  O         18.3200    2.2080  -20.0720 O.2   469  ALA469     -0.2867
    163  CB        18.2970    2.0360  -23.1280 C.3   469  ALA469      0.0290
    164  N         18.0840    6.2150  -19.1010 N.3   471  ARG471     -0.1245
    165  CA        17.3230    7.4160  -19.3800 C.3   471  ARG471      0.1563
    166  C         17.2940    8.3300  -18.1730 C.2   471  ARG471      0.2260
    167  O         16.9450    7.9130  -17.0630 O.2   471  ARG471     -0.2867
    168  CB        15.9060    7.0260  -19.7730 C.3   471  ARG471      0.0307
    169  CG        15.0780    8.1010  -20.3820 C.3   471  ARG471      0.0489
    170  CD        13.8290    7.4030  -20.9430 C.3   471  ARG471      0.2205
    171  NE        13.3490    8.1970  -22.0360 N.pl3 471  ARG471     -0.0865
    172  CZ        13.2610    7.8320  -23.3080 C.cat 471  ARG471      0.5346
    173  NH1       12.8130    8.7340  -24.1250 N.pl3 471  ARG471      0.1354
    174  NH2       13.5690    6.6110  -23.7600 N.pl3 471  ARG471      0.1354
    175  N         16.3480    0.3590  -18.7840 N.3   484  ILE484     -0.1245
    176  CA        15.5550   -0.7030  -19.4180 C.3   484  ILE484      0.1561
    177  C         16.4480   -1.8440  -19.9190 C.2   484  ILE484      0.2260
    178  O         17.5740   -1.6440  -20.3560 O.2   484  ILE484     -0.2867
    179  CB        14.5890   -0.1580  -20.5210 C.3   484  ILE484      0.0252
    180  CG1       15.3700    0.2980  -21.7880 C.3   484  ILE484      0.0019
    181  CG2       13.6770    0.9430  -19.8810 C.3   484  ILE484      0.0019
    182  CD1       14.4760    0.9410  -22.9320 C.3   484  ILE484      0.0001
@<TRIPOS>BOND
     1   115   116    1
     2   107   108    2
     3   107   106    1
     4   105   106    1
     5   116   117    1
     6   116   119    1
     7   117   118    2
     8   106   109    1
     9    43    44    1
    10    45    44    1
    11    45    46    2
    12   119   120    1
    13    47    44    1
    14    47    48    1
    15   109   110    1
    16     6     7    1
    17    62    60    1
    18     1     2    1
    19    50    48   ar
    20    50    52   ar
    21    48    49   ar
    22   120   121    1
    23   110   112   ar
    24   110   111   ar
    25     7    10    1
    26     7     8    1
    27    11    13    1
    28    11    10    1
    29    59    60    1
    30    59    56    1
    31     3     2    1
    32     3     4    2
    33    60    61    1
    34     2     5    1
    35    52    53   ar
    36   112   114   ar
    37   111   113   ar
    38    49    51   ar
    39   122   121   ar
    40    55    56    1
    41    10    12    1
    42   121   123   ar
    43     8     9    2
    44     8    14   am
    45    57    56    1
    46    57    58    2
    47    86    85    2
    48    94    93    2
    49   114   113   ar
    50    14    15    1
    51    53    51   ar
    52    53    54    1
    53    16    17    2
    54    16    15    1
    55    87    88    1
    56    87    84    1
    57    85    84    1
    58    88    89    1
    59    93    92    1
    60    15    18    1
    61   103   102    2
    62    20    18    1
    63    91    92    1
    64    83    84    1
    65   100   101    1
    66   104   101    1
    67    92    95    1
    68    18    19    1
    69    90    89    1
    70   102   101    1
    71    95    96    1
    72    68    67    1
    73    68    69    1
    74    67    64    1
    75    36    35    2
    76    96    97    1
    77    35    34    1
    78    69    63    1
    79    64    63    1
    80    64    65    1
    81    30    28   ar
    82    30    31   ar
    83    28    26   ar
    84    97    98    2
    85    97    99   am
    86    34    33    1
    87    34    37    1
    88    73    72    2
    89    39    38   ar
    90    39    41   ar
    91    65    70   am
    92    65    66    2
    93    37    38    1
    94    70    71    1
    95    32    31    1
    96    78    81    1
    97    78    79    1
    98    78    77    1
    99    31    29   ar
   100    81    82    1
   101    38    40   ar
   102    41    42   ar
   103    72    77   am
   104    72    71    1
   105    26    25    1
   106    26    27   ar
   107    79    80    2
   108    25    22    1
   109    71    74    1
   110    40    42   ar
   111    29    27   ar
   112   158   157    1
   113    21    22    1
   114   156   157   ar
   115   156   154   ar
   116    22    23    1
   117    74    75    1
   118    74    76    1
   119    23    24    2
   120   157   155   ar
   121   154   152   ar
   122   131   129    1
   123   130   129    1
   124   155   153   ar
   125   129   128    1
   126   152   153   ar
   127   152   151    1
   128   151   148    1
   129   128   125    1
   130   147   148    1
   131   145   144    1
   132   148   149    1
   133   125   124    1
   134   125   126    1
   135   137   139    1
   136   137   136    1
   137   138   136    1
   138   173   172    1
   139   174   172    1
   140   136   133    1
   141   126   127    2
   142   144   146    1
   143   144   141    1
   144   133   132    1
   145   133   134    1
   146   149   150    2
   147   172   171    2
   148   163   160    1
   149   182   180    1
   150   142   141    1
   151   142   143    2
   152   141   140    1
   153   134   135    2
   154   160   159    1
   155   160   161    1
   156   171   170    1
   157   180   179    1
   158   170   169    1
   159   161   162    2
   160   179   181    1
   161   179   176    1
   162   169   168    1
   163   178   177    2
   164   177   176    1
   165   168   165    1
   166   176   175    1
   167   165   164    1
   168   165   166    1
   169   166   167    2
