@<TRIPOS>MOLECULE
tmp/3fp5A00.pdb
 96 93 0 0 0
SMALL
GASTEIGER

@<TRIPOS>ATOM
      1  N         12.5800    8.1360   10.9110 N.3    12  VAL12      -0.1245
      2  CA        12.7370    8.5700    9.5230 C.3    12  VAL12       0.1561
      3  C         13.1700    7.3930    8.6350 C.2    12  VAL12       0.2260
      4  O         12.6210    7.1840    7.5560 O.2    12  VAL12      -0.2867
      5  CB        13.7700    9.7080    9.4220 C.3    12  VAL12       0.0252
      6  CG1       14.1660    9.9770    7.9630 C.3    12  VAL12       0.0019
      7  CG2       13.2090   10.9690   10.0700 C.3    12  VAL12       0.0019
      8  N         10.0910    5.2050    8.1580 N.3    15  VAL15      -0.1231
      9  CA         9.1310    5.8310    7.2650 C.3    15  VAL15       0.1692
     10  C          9.6070    5.7560    5.8130 C.2    15  VAL15       0.2591
     11  O          8.8330    5.4000    4.9150 O.2    15  VAL15      -0.2718
     12  CB         8.8630    7.2960    7.6690 C.3    15  VAL15       0.0266
     13  CG1        8.1200    8.0120    6.5590 C.3    15  VAL15       0.0020
     14  CG2        8.0750    7.3360    8.9820 C.3    15  VAL15       0.0020
     15  N         10.8830    6.0620    5.5890 N.am   16  GLN16      -0.1979
     16  CA        11.4490    5.9940    4.2340 C.3    16  GLN16       0.1601
     17  C         11.4300    4.5800    3.6710 C.2    16  GLN16       0.2287
     18  O         11.4580    4.3900    2.4480 O.2    16  GLN16      -0.2864
     19  CB        12.8790    6.5340    4.2130 C.3    16  GLN16       0.0394
     20  CG        12.9690    8.0320    4.3910 C.3    16  GLN16       0.0908
     21  CD        14.3900    8.4980    4.6220 C.2    16  GLN16       0.2608
     22  OE1       15.2730    7.7000    4.9580 O.2    16  GLN16      -0.2717
     23  NE2       14.6210    9.7950    4.4550 N.am   16  GLN16      -0.0878
     24  N          1.2760   11.4480    5.5420 N.3    31  GLN31      -0.1245
     25  CA         2.5380   11.7140    4.8660 C.3    31  GLN31       0.1566
     26  C          2.8620   13.2110    4.8990 C.2    31  GLN31       0.2260
     27  O          4.0150   13.6010    5.0680 O.2    31  GLN31      -0.2867
     28  CB         2.5120   11.1920    3.4310 C.3    31  GLN31       0.0367
     29  CG         2.5340    9.6680    3.3360 C.3    31  GLN31       0.0905
     30  CD         3.8960    9.0680    3.6720 C.2    31  GLN31       0.2608
     31  OE1        4.8310    9.7780    4.0530 O.2    31  GLN31      -0.2717
     32  NE2        4.0140    7.7520    3.5220 N.am   31  GLN31      -0.0878
     33  N          4.1410   13.7860    8.4090 N.3    34  PHE34      -0.1227
     34  CA         5.5450   13.3990    8.4710 C.3    34  PHE34       0.1736
     35  C          6.4290   14.4280    7.7690 C.2    34  PHE34       0.2595
     36  O          7.5010   14.7760    8.2670 O.2    34  PHE34      -0.2718
     37  CB         5.7670   12.0300    7.8210 C.3    34  PHE34       0.0547
     38  CG         5.3670   10.8570    8.6900 C.ar   34  PHE34      -0.0202
     39  CD1        5.8230   10.7470    9.9990 C.ar   34  PHE34      -0.0042
     40  CD2        4.5740    9.8410    8.1700 C.ar   34  PHE34      -0.0042
     41  CE1        5.4620    9.6470   10.7860 C.ar   34  PHE34      -0.0003
     42  CE2        4.2160    8.7370    8.9470 C.ar   34  PHE34      -0.0003
     43  CZ         4.6610    8.6480   10.2550 C.ar   34  PHE34      -0.0000
     44  N          5.9840   14.9070    6.6080 N.am   35  TYR35      -0.1976
     45  CA         6.7800   15.8570    5.8330 C.3    35  TYR35       0.1639
     46  C          7.0440   17.1220    6.6360 C.2    35  TYR35       0.2290
     47  O          8.1920   17.5740    6.7480 O.2    35  TYR35      -0.2864
     48  CB         6.0920   16.2470    4.5150 C.3    35  TYR35       0.0560
     49  CG         6.9080   17.2580    3.7290 C.ar   35  TYR35      -0.0198
     50  CD1        7.9960   16.8520    2.9720 C.ar   35  TYR35      -0.0009
     51  CD2        6.6260   18.6250    3.7920 C.ar   35  TYR35      -0.0009
     52  CE1        8.7630   17.7670    2.2670 C.ar   35  TYR35       0.0417
     53  CE2        7.3860   19.5480    3.0910 C.ar   35  TYR35       0.0417
     54  CZ         8.4540   19.1130    2.3300 C.ar   35  TYR35       0.1957
     55  OH         9.2220   20.0170    1.6360 O.3    35  TYR35      -0.2866
     56  N          9.3360   16.5070    9.4900 N.3    38  PHE38      -0.1227
     57  CA        10.6620   16.1830    8.9950 C.3    38  PHE38       0.1736
     58  C         11.4450   17.4550    8.6440 C.2    38  PHE38       0.2595
     59  O         12.5840   17.6180    9.0670 O.2    38  PHE38      -0.2718
     60  CB        10.6170   15.2420    7.7930 C.3    38  PHE38       0.0547
     61  CG        11.9700   15.0110    7.1840 C.ar   38  PHE38      -0.0202
     62  CD1       12.8430   14.0780    7.7330 C.ar   38  PHE38      -0.0042
     63  CD2       12.3850   15.7480    6.0820 C.ar   38  PHE38      -0.0042
     64  CE1       14.0970   13.8700    7.1790 C.ar   38  PHE38      -0.0003
     65  CE2       13.6390   15.5500    5.5270 C.ar   38  PHE38      -0.0003
     66  CZ        14.5000   14.6140    6.0720 C.ar   38  PHE38      -0.0000
     67  N         10.8290   18.3470    7.8710 N.am   39  LYS39      -0.1980
     68  CA        11.4800   19.6040    7.5270 C.3    39  LYS39       0.1596
     69  C         11.7500   20.4340    8.7780 C.2    39  LYS39       0.2287
     70  O         12.8500   20.9470    8.9650 O.2    39  LYS39      -0.2864
     71  CB        10.6370   20.3870    6.5220 C.3    39  LYS39       0.0298
     72  CG        10.3830   19.6160    5.2530 C.3    39  LYS39       0.0038
     73  CD        11.6930   19.3150    4.5350 C.3    39  LYS39       0.0206
     74  CE        12.3320   20.5860    4.0090 C.3    39  LYS39       0.1093
     75  NZ        13.4210   20.2680    3.0290 N.3    39  LYS39      -0.1314
     76  N          2.9320   20.5280    0.2570 N.3    61  LYS61      -0.1245
     77  CA         4.0530   20.3290    1.1660 C.3    61  LYS61       0.1561
     78  C          4.4550   21.6320    1.8470 C.2    61  LYS61       0.2260
     79  O          4.6900   21.6630    3.0610 O.2    61  LYS61      -0.2867
     80  CB         5.2520   19.7530    0.4110 C.3    61  LYS61       0.0271
     81  CG         5.1100   18.2960    0.0220 C.3    61  LYS61       0.0035
     82  CD         6.2680   17.8940   -0.8930 C.3    61  LYS61       0.0206
     83  CE         6.4100   16.3880   -0.9880 C.3    61  LYS61       0.1093
     84  NZ         7.6820   16.0050   -1.6610 N.3    61  LYS61      -0.1314
     85  N          6.8970   13.6790   15.1640 N.3    80  TYR80      -0.1241
     86  CA         7.1980   12.7590   14.0700 C.3    80  TYR80       0.1605
     87  C          7.2190   11.3170   14.5960 C.2    80  TYR80       0.2264
     88  O          6.5340   10.4230   14.0650 O.2    80  TYR80      -0.2867
     89  CB         8.5450   13.1320   13.4290 C.3    80  TYR80       0.0534
     90  CG         8.8520   12.3900   12.1470 C.ar   80  TYR80      -0.0201
     91  CD1        8.7370   13.0100   10.9000 C.ar   80  TYR80      -0.0009
     92  CD2        9.2620   11.0610   12.1800 C.ar   80  TYR80      -0.0009
     93  CE1        9.0240   12.3050    9.7190 C.ar   80  TYR80       0.0417
     94  CE2        9.5490   10.3620   11.0150 C.ar   80  TYR80       0.0417
     95  CZ         9.4270   10.9810    9.7920 C.ar   80  TYR80       0.1957
     96  OH         9.7180   10.2520    8.6520 O.3    80  TYR80      -0.2866
@<TRIPOS>BOND
     1    84    83    1
     2    83    82    1
     3    82    81    1
     4    81    80    1
     5    76    77    1
     6    80    77    1
     7    77    78    1
     8    55    54    1
     9    78    79    2
    10    52    54   ar
    11    52    50   ar
    12    54    53   ar
    13    18    17    2
    14    50    49   ar
    15    75    74    1
    16    53    51   ar
    17    29    28    1
    18    29    30    1
    19    28    25    1
    20    32    30   am
    21    17    16    1
    22    30    31    2
    23    49    51   ar
    24    49    48    1
    25    74    73    1
    26    19    16    1
    27    19    20    1
    28    16    15    1
    29    20    21    1
    30    23    21   am
    31    48    45    1
    32    73    72    1
    33    21    22    2
    34    25    26    1
    35    25    24    1
    36    26    27    2
    37    11    10    2
    38    72    71    1
    39    65    66   ar
    40    65    63   ar
    41    15    10   am
    42    10     9    1
    43    45    44    1
    44    45    46    1
    45    66    64   ar
    46    63    61   ar
    47    71    68    1
    48    13    12    1
    49    44    35   am
    50    46    47    2
    51    64    62   ar
    52    61    62   ar
    53    61    60    1
    54     9    12    1
    55     9     8    1
    56    68    67    1
    57    68    69    1
    58     4     3    2
    59    12    14    1
    60    35    36    2
    61    35    34    1
    62    60    57    1
    63    37    34    1
    64    37    38    1
    65    67    58   am
    66     6     5    1
    67    40    38   ar
    68    40    42   ar
    69    33    34    1
    70     3     2    1
    71    58    57    1
    72    58    59    2
    73    96    95    1
    74    38    39   ar
    75    69    70    2
    76    42    43   ar
    77    57    56    1
    78     5     2    1
    79     5     7    1
    80     2     1    1
    81    93    95   ar
    82    93    91   ar
    83    95    94   ar
    84    39    41   ar
    85    43    41   ar
    86    91    90   ar
    87    94    92   ar
    88    90    92   ar
    89    90    89    1
    90    89    86    1
    91    88    87    2
    92    86    87    1
    93    86    85    1
