@<TRIPOS>MOLECULE
tmp/3fpaB00.pdb
 106 99 0 0 0
SMALL
GASTEIGER

@<TRIPOS>ATOM
      1  N         -2.7680   22.6850  -37.8530 N.3    12  THR12      -0.1218
      2  CA        -2.8760   23.0430  -39.2570 C.3    12  THR12       0.1862
      3  C         -2.4110   24.4860  -39.4660 C.2    12  THR12       0.2287
      4  O         -2.5660   25.3420  -38.5850 O.2    12  THR12      -0.2866
      5  CB        -4.3150   22.8940  -39.7720 C.3    12  THR12       0.1770
      6  OG1       -4.3530   23.1800  -41.1780 O.3    12  THR12      -0.2211
      7  CG2       -5.2570   23.8470  -39.0450 C.3    12  THR12       0.0375
      8  N          0.4700   12.6150  -49.5680 N.3    38  LYS38      -0.1245
      9  CA        -0.5730   13.2130  -48.7620 C.3    38  LYS38       0.1561
     10  C         -1.8710   12.4450  -48.9840 C.2    38  LYS38       0.2260
     11  O         -2.6310   12.7630  -49.9010 O.2    38  LYS38      -0.2867
     12  CB        -0.7460   14.6860  -49.1090 C.3    38  LYS38       0.0271
     13  CG        -1.8750   15.3650  -48.3300 C.3    38  LYS38       0.0035
     14  CD        -1.4510   16.7120  -47.7880 C.3    38  LYS38       0.0206
     15  CE        -2.6400   17.4080  -47.1010 C.3    38  LYS38       0.1093
     16  NZ        -2.1520   18.1620  -45.9270 N.3    38  LYS38      -0.1314
     17  N         -6.6030   15.0890  -48.4080 N.3    41  GLN41      -0.1231
     18  CA        -6.5070   16.5170  -48.6410 C.3    41  GLN41       0.1698
     19  C         -7.9150   17.0970  -48.5800 C.2    41  GLN41       0.2592
     20  O         -8.8320   16.6010  -49.2430 O.2    41  GLN41      -0.2718
     21  CB        -5.8900   16.7830  -50.0310 C.3    41  GLN41       0.0381
     22  CG        -6.0760   18.2120  -50.6040 C.3    41  GLN41       0.0905
     23  CD        -4.9950   19.1710  -50.1160 C.2    41  GLN41       0.2608
     24  OE1       -3.8120   18.8500  -50.1430 O.2    41  GLN41      -0.2717
     25  NE2       -5.4040   20.3440  -49.6450 N.am   41  GLN41      -0.0878
     26  N         -8.0810   18.1480  -47.7900 N.am   42  THR42      -0.1953
     27  CA        -9.3610   18.8540  -47.7100 C.3    42  THR42       0.1897
     28  C         -9.1910   20.2680  -48.2680 C.2    42  THR42       0.2313
     29  O         -8.0680   20.7110  -48.5050 O.2    42  THR42      -0.2863
     30  CB        -9.9060   18.9160  -46.2480 C.3    42  THR42       0.1794
     31  OG1       -9.0430   19.7300  -45.4550 O.3    42  THR42      -0.2208
     32  CG2       -9.9480   17.5490  -45.6360 C.3    42  THR42       0.0378
     33  N        -11.5410   25.8960  -51.7550 N.3    46  ARG46      -0.1245
     34  CA       -10.6070   26.9840  -51.4880 C.3    46  ARG46       0.1563
     35  C         -9.5330   26.9560  -52.5690 C.2    46  ARG46       0.2260
     36  O         -8.8960   27.9590  -52.8460 O.2    46  ARG46      -0.2867
     37  CB        -9.9090   26.7690  -50.1470 C.3    46  ARG46       0.0307
     38  CG       -10.4920   27.4720  -48.9530 C.3    46  ARG46       0.0489
     39  CD        -9.4650   27.3940  -47.8310 C.3    46  ARG46       0.2205
     40  NE       -10.0160   27.7620  -46.5200 N.pl3  46  ARG46      -0.0865
     41  CZ        -9.3880   27.5280  -45.3670 C.cat  46  ARG46       0.5346
     42  NH1       -9.9490   27.8910  -44.2060 N.pl3  46  ARG46       0.1354
     43  NH2       -8.1960   26.9260  -45.3780 N.pl3  46  ARG46       0.1354
     44  N         -7.1880   24.3730  -52.2560 N.3    48  ASP48      -0.1239
     45  CA        -6.0740   23.7230  -51.5470 C.3    48  ASP48       0.1674
     46  C         -5.5740   22.4590  -52.2550 C.2    48  ASP48       0.2266
     47  O         -6.3700   21.6090  -52.6640 O.2    48  ASP48      -0.2867
     48  CB        -6.4480   23.3700  -50.1000 C.3    48  ASP48       0.1410
     49  CG        -6.7130   24.5930  -49.2340 C.2    48  ASP48       0.3668
     50  OD1       -7.5170   24.4670  -48.2870 O.co2  48  ASP48      -0.2456
     51  OD2       -6.1200   25.6660  -49.4900 O.co2  48  ASP48      -0.2456
     52  N         -1.7900   20.5170  -51.5370 N.3    50  ASP50      -0.1239
     53  CA        -0.4470   20.5460  -51.0000 C.3    50  ASP50       0.1674
     54  C          0.5790   19.8440  -51.8730 C.2    50  ASP50       0.2266
     55  O          1.7400   20.2640  -51.9370 O.2    50  ASP50      -0.2867
     56  CB        -0.4400   19.9150  -49.6170 C.3    50  ASP50       0.1410
     57  CG        -1.2570   20.6920  -48.6150 C.2    50  ASP50       0.3668
     58  OD1       -1.4600   20.1220  -47.5280 O.co2  50  ASP50      -0.2456
     59  OD2       -1.6840   21.8570  -48.8910 O.co2  50  ASP50      -0.2456
     60  N        -13.3410   22.8970  -46.3300 N.3    72  PRO72      -0.2102
     61  CA       -12.1060   23.1800  -45.5600 C.3    72  PRO72       0.1504
     62  C        -12.2370   22.8080  -44.0770 C.2    72  PRO72       0.2579
     63  O        -12.1830   23.6840  -43.2080 O.2    72  PRO72      -0.2718
     64  CB       -11.9230   24.6990  -45.7240 C.3    72  PRO72       0.0282
     65  CG       -13.3300   25.2220  -45.9400 C.3    72  PRO72       0.0208
     66  CD       -14.1330   24.1200  -46.5880 C.3    72  PRO72       0.0893
     67  N        -12.4060   21.5130  -43.8130 N.am   73  MET73      -0.1920
     68  CA       -12.6720   20.9930  -42.4750 C.3    73  MET73       0.1952
     69  C        -11.6950   19.8520  -42.1950 C.2    73  MET73       0.2659
     70  O        -10.9600   19.4220  -43.0850 O.2    73  MET73      -0.2711
     71  CB       -14.1190   20.4580  -42.3770 C.2    73  MET73       0.0110
     72  CG       -15.2040   21.3780  -42.9390 C.2    73  MET73       0.0285
     73  SD       -16.9010   21.0600  -42.3600 S.3    73  MET73      -0.1125
     74  CE       -17.4630   19.8530  -43.5140 C.3    73  MET73       0.0742
     75  N        -11.6710   19.3660  -40.9570 N.am   74  ALA74      -0.1961
     76  CA       -10.9220   18.1590  -40.6410 C.3    74  ALA74       0.1714
     77  C        -11.4470   17.0450  -41.5400 C.2    74  ALA74       0.2458
     78  O        -12.6430   16.9950  -41.8040 O.2    74  ALA74      -0.2730
     79  CB       -11.1210   17.7880  -39.1900 C.3    74  ALA74       0.0333
     80  N        -10.5530   16.1670  -42.0300 N.am   75  PRO75      -0.2727
     81  CA       -10.9420   15.0760  -42.9120 C.3    75  PRO75       0.1402
     82  C        -12.2530   14.3610  -42.5330 C.2    75  PRO75       0.2269
     83  O        -13.1050   14.1620  -43.4000 O.2    75  PRO75      -0.2865
     84  CB        -9.7470   14.1270  -42.8320 C.3    75  PRO75       0.0296
     85  CG        -8.5970   14.9950  -42.5340 C.3    75  PRO75       0.0237
     86  CD        -9.1000   16.1940  -41.7960 C.3    75  PRO75       0.0939
     87  N         -3.2060   15.6000  -42.2620 N.3   111  ALA111     -0.1231
     88  CA        -4.0310   16.7770  -42.2930 C.3   111  ALA111      0.1694
     89  C         -3.9970   17.3030  -40.8790 C.2   111  ALA111      0.2593
     90  O         -4.2370   16.5450  -39.9400 O.2   111  ALA111     -0.2718
     91  CB        -5.4500   16.4310  -42.7010 C.3   111  ALA111      0.0304
     92  N         -3.6760   18.5870  -40.7240 N.am  112  GLY112     -0.1942
     93  CA        -3.5080   19.1960  -39.4120 C.3   112  GLY112      0.2014
     94  C         -2.5010   18.5290  -38.4810 C.2   112  GLY112      0.2639
     95  O         -1.4340   18.0900  -38.9270 O.2   112  GLY112     -0.2714
     96  N         -2.8390   18.4710  -37.1850 N.am  113  GLY113     -0.1954
     97  CA        -1.9430   17.9230  -36.1660 C.3   113  GLY113      0.1869
     98  C         -1.9570   16.4060  -36.0630 C.2   113  GLY113      0.2309
     99  O         -2.7540   15.7530  -36.7100 O.2   113  GLY113     -0.2863
    100  N         -5.3160   14.0560  -35.6020 N.3   116  VAL116     -0.1245
    101  CA        -6.4340   14.1880  -36.5610 C.3   116  VAL116      0.1561
    102  C         -6.7330   12.8210  -37.1990 C.2   116  VAL116      0.2260
    103  O         -5.8120   12.0940  -37.6130 O.2   116  VAL116     -0.2867
    104  CB        -6.1120   15.2730  -37.6510 C.3   116  VAL116      0.0252
    105  CG1       -7.0950   15.2450  -38.8000 C.3   116  VAL116      0.0019
    106  CG2       -6.0820   16.6490  -37.0350 C.3   116  VAL116      0.0019
@<TRIPOS>BOND
     1    36    35    2
     2    47    46    2
     3    35    34    1
     4    44    45    1
     5    46    45    1
     6    55    54    2
     7    54    53    1
     8    33    34    1
     9    45    48    1
    10    52    53    1
    11    34    37    1
    12    53    56    1
    13    22    23    1
    14    22    21    1
    15    37    38    1
    16    24    23    2
    17    23    25   am
    18    48    49    1
    19    21    18    1
    20    11    10    2
    21    56    57    1
    22     8     9    1
    23    51    49   ar
    24    20    19    2
    25    49    50   ar
    26    12     9    1
    27    12    13    1
    28    10     9    1
    29    38    39    1
    30    59    57   ar
    31    18    19    1
    32    18    17    1
    33    57    58   ar
    34    19    26   am
    35    29    28    2
    36    13    14    1
    37    28    27    1
    38    39    40    1
    39    26    27    1
    40    14    15    1
    41    27    30    1
    42    15    16    1
    43    66    60    1
    44    66    65    1
    45    40    41    2
    46    60    61    1
    47    30    32    1
    48    30    31    1
    49    65    64    1
    50    64    61    1
    51    61    62    1
    52    43    41    1
    53    41    42    1
    54    62    67   am
    55    62    63    2
    56    67    68    1
    57    74    73    1
    58    83    82    2
    59    70    69    2
    60    72    71    2
    61    72    73    1
    62    81    84    1
    63    81    82    1
    64    81    80    1
    65    84    85    1
    66    91    88    1
    67    85    86    1
    68    68    71    1
    69    68    69    1
    70    88    87    1
    71    88    89    1
    72    69    75   am
    73    80    86    1
    74    80    77   am
    75    78    77    2
    76    77    76    1
    77     6     5    1
    78    75    76    1
    79    89    92   am
    80    89    90    2
    81    92    93    1
    82    76    79    1
    83     5     2    1
    84     5     7    1
    85     3     2    1
    86     3     4    2
    87    93    94    1
    88     2     1    1
    89    95    94    2
    90   105   104    1
    91    94    96   am
    92   104   106    1
    93   104   101    1
    94   103   102    2
    95   102   101    1
    96    96    97    1
    97    99    98    2
    98   101   100    1
    99    97    98    1
