@<TRIPOS>MOLECULE
tmp/3fpdB01.pdb
 156 149 0 0 0
SMALL
GASTEIGER

@<TRIPOS>ATOM
      1  N         21.6220  -34.0340   12.1300 N.3   156  ASP156     -0.1239
      2  CA        22.5090  -34.1670   10.9770 C.3   156  ASP156      0.1674
      3  C         22.9810  -35.6070   10.8140 C.2   156  ASP156      0.2266
      4  O         22.8800  -36.1800    9.7330 O.2   156  ASP156     -0.2867
      5  CB        23.7220  -33.2360   11.1440 C.3   156  ASP156      0.1410
      6  CG        24.5600  -33.1070    9.8710 C.2   156  ASP156      0.3668
      7  OD1       25.4980  -32.2780    9.8680 O.co2 156  ASP156     -0.2456
      8  OD2       24.2910  -33.8200    8.8780 O.co2 156  ASP156     -0.2456
      9  N         20.0000  -37.8460    9.5410 N.3   159  ALA159     -0.1231
     10  CA        19.6690  -37.7540    8.1240 C.3   159  ALA159      0.1694
     11  C         20.7680  -38.4400    7.3280 C.2   159  ALA159      0.2592
     12  O         20.5350  -38.9520    6.2290 O.2   159  ALA159     -0.2718
     13  CB        19.5550  -36.2780    7.6950 C.3   159  ALA159      0.0304
     14  N         21.9680  -38.4550    7.9000 N.am  160  ASP160     -0.1960
     15  CA        23.1190  -39.0600    7.2440 C.3   160  ASP160      0.1840
     16  C         22.9840  -40.5750    7.0620 C.2   160  ASP160      0.2622
     17  O         23.6450  -41.1590    6.2030 O.2   160  ASP160     -0.2715
     18  CB        24.3900  -38.7240    8.0310 C.3   160  ASP160      0.1450
     19  CG        25.6150  -38.6010    7.1380 C.2   160  ASP160      0.3671
     20  OD1       25.4640  -38.1710    5.9740 O.co2 160  ASP160     -0.2456
     21  OD2       26.7320  -38.9150    7.6030 O.co2 160  ASP160     -0.2456
     22  N         22.1220  -41.2080    7.8550 N.am  161  VAL161     -0.1963
     23  CA        21.9190  -42.6510    7.7470 C.3   161  VAL161      0.1727
     24  C         20.6170  -43.0040    7.0140 C.2   161  VAL161      0.2616
     25  O         20.2730  -44.1790    6.8720 O.2   161  VAL161     -0.2715
     26  CB        21.8870  -43.3290    9.1430 C.3   161  VAL161      0.0290
     27  CG1       23.1460  -42.9830    9.9250 C.3   161  VAL161      0.0023
     28  CG2       20.6530  -42.8970    9.8990 C.3   161  VAL161      0.0023
     29  N         19.9030  -41.9930    6.5330 N.am  162  ARG162     -0.1963
     30  CA        18.6430  -42.2420    5.8470 C.3   162  ARG162      0.1729
     31  C         18.7780  -42.3210    4.3350 C.2   162  ARG162      0.2616
     32  O         18.9320  -41.3040    3.6590 O.2   162  ARG162     -0.2715
     33  CB        17.6270  -41.1670    6.2310 C.3   162  ARG162      0.0348
     34  CG        17.3960  -41.1020    7.7270 C.3   162  ARG162      0.0492
     35  CD        16.0660  -40.4710    8.0670 C.3   162  ARG162      0.2205
     36  NE        15.7590  -40.5900    9.4900 N.pl3 162  ARG162     -0.0865
     37  CZ        14.6030  -40.2250   10.0360 C.cat 162  ARG162      0.5346
     38  NH1       13.6370  -39.7140    9.2780 N.pl3 162  ARG162      0.1354
     39  NH2       14.4120  -40.3730   11.3400 N.pl3 162  ARG162      0.1354
     40  N         18.7120  -43.5420    3.8140 N.am  163  GLU163     -0.1977
     41  CA        18.8280  -43.7850    2.3820 C.3   163  GLU163      0.1602
     42  C         17.9670  -42.8310    1.5590 C.2   163  GLU163      0.2287
     43  O         18.4460  -42.2370    0.5910 O.2   163  GLU163     -0.2864
     44  CB        18.4510  -45.2240    2.0680 C.3   163  GLU163      0.0415
     45  CG        19.1420  -46.2850    2.9330 C.3   163  GLU163      0.1163
     46  CD        20.6540  -46.3410    2.7540 C.2   163  GLU163      0.3649
     47  OE1       21.1560  -46.0290    1.6580 O.co2 163  GLU163     -0.2457
     48  OE2       21.3480  -46.7170    3.7130 O.co2 163  GLU163     -0.2457
     49  N         16.6000  -39.5440    0.8390 N.3   165  ASP165     -0.1239
     50  CA        16.8360  -38.1420    1.1690 C.3   165  ASP165      0.1674
     51  C         16.2370  -37.1220    0.1990 C.2   165  ASP165      0.2266
     52  O         16.6440  -35.9640    0.1930 O.2   165  ASP165     -0.2867
     53  CB        18.3400  -37.9030    1.3060 C.3   165  ASP165      0.1410
     54  CG        19.1040  -38.2490    0.0410 C.2   165  ASP165      0.3668
     55  OD1       18.5340  -38.9290   -0.8400 O.co2 165  ASP165     -0.2456
     56  OD2       20.2820  -37.8470   -0.0690 O.co2 165  ASP165     -0.2456
     57  N         14.2570  -34.0140    2.1420 N.3   168  LEU168     -0.1231
     58  CA        15.0240  -33.4240    3.2350 C.3   168  LEU168      0.1693
     59  C         15.2580  -31.9210    3.0190 C.2   168  LEU168      0.2592
     60  O         15.4830  -31.4730    1.8950 O.2   168  LEU168     -0.2718
     61  CB        16.3720  -34.1340    3.3370 C.3   168  LEU168      0.0284
     62  CG        16.7950  -34.7830    4.6530 C.3   168  LEU168      0.0019
     63  CD1       15.7490  -35.7750    5.1050 C.3   168  LEU168      0.0001
     64  CD2       18.1340  -35.4810    4.4470 C.3   168  LEU168      0.0001
     65  N         15.1910  -31.1450    4.0970 N.am  169  PHE169     -0.1962
     66  CA        15.4280  -29.7020    4.0190 C.3   169  PHE169      0.1771
     67  C         16.4430  -29.3490    5.0980 C.2   169  PHE169      0.2619
     68  O         16.2100  -29.6130    6.2710 O.2   169  PHE169     -0.2715
     69  CB        14.1400  -28.9150    4.2490 C.3   169  PHE169      0.0574
     70  CG        14.2700  -27.4470    3.9360 C.ar  169  PHE169     -0.0200
     71  CD1       13.7530  -26.9260    2.7550 C.ar  169  PHE169     -0.0042
     72  CD2       14.9490  -26.5900    4.8060 C.ar  169  PHE169     -0.0042
     73  CE1       13.9130  -25.5770    2.4390 C.ar  169  PHE169     -0.0003
     74  CE2       15.1140  -25.2430    4.5000 C.ar  169  PHE169     -0.0003
     75  CZ        14.5960  -24.7330    3.3120 C.ar  169  PHE169     -0.0000
     76  N         17.5650  -28.7520    4.7030 N.am  170  ASP170     -0.1971
     77  CA        18.6180  -28.4020    5.6590 C.3   170  ASP170      0.1709
     78  C         18.3960  -27.1210    6.4770 C.2   170  ASP170      0.2293
     79  O         18.0030  -26.0870    5.9480 O.2   170  ASP170     -0.2864
     80  CB        19.9750  -28.3180    4.9400 C.3   170  ASP170      0.1436
     81  CG        20.4100  -29.6520    4.3350 C.2   170  ASP170      0.3671
     82  OD1       20.3100  -30.6820    5.0340 O.co2 170  ASP170     -0.2456
     83  OD2       20.8660  -29.6750    3.1690 O.co2 170  ASP170     -0.2456
     84  N         26.5250  -24.4060   11.3870 N.3   174  LYS174     -0.1245
     85  CA        27.5390  -25.1980   12.0720 C.3   174  LYS174      0.1561
     86  C         28.0170  -24.5930   13.3910 C.2   174  LYS174      0.2260
     87  O         28.1240  -23.3690   13.5400 O.2   174  LYS174     -0.2867
     88  CB        28.7310  -25.4250   11.1410 C.3   174  LYS174      0.0271
     89  CG        28.2860  -26.4120   10.0870 C.3   174  LYS174      0.0035
     90  CD        29.2360  -26.4690    8.9190 C.3   174  LYS174      0.0206
     91  CE        28.8310  -27.6150    7.9890 C.3   174  LYS174      0.1093
     92  NZ        27.4600  -27.5080    7.5200 N.3   174  LYS174     -0.1314
     93  N         23.5610  -29.0730   13.5040 N.3   178  VAL178     -0.1245
     94  CA        22.9150  -28.8370   12.2160 C.3   178  VAL178      0.1561
     95  C         21.7500  -29.8230   12.1470 C.2   178  VAL178      0.2260
     96  O         21.9190  -31.0180   12.4040 O.2   178  VAL178     -0.2867
     97  CB        23.8780  -29.0710   11.0320 C.3   178  VAL178      0.0252
     98  CG1       23.0940  -29.1450    9.7280 C.3   178  VAL178      0.0019
     99  CG2       24.8860  -27.9320   10.9580 C.3   178  VAL178      0.0019
    100  N         17.7920  -31.0830   10.2170 N.3   180  CYS180     -0.1235
    101  CA        17.0400  -31.1670    8.9770 C.3   180  CYS180      0.1677
    102  C         15.5870  -31.4380    9.3000 C.2   180  CYS180      0.2270
    103  O         15.2370  -31.7200   10.4470 O.2   180  CYS180     -0.2867
    104  CB        17.5640  -32.3130    8.1040 C.3   180  CYS180      0.0956
    105  SG        19.3430  -32.3130    7.8150 S.3   180  CYS180     -0.0801
    106  N         15.8140  -26.1080   -4.4150 N.3   236  TYR236     -0.1241
    107  CA        16.2170  -27.1480   -3.4760 C.3   236  TYR236      0.1605
    108  C         17.6400  -26.9330   -2.9910 C.2   236  TYR236      0.2264
    109  O         18.1000  -27.6160   -2.0740 O.2   236  TYR236     -0.2867
    110  CB        16.1360  -28.5280   -4.1310 C.3   236  TYR236      0.0534
    111  CG        14.7450  -29.0740   -4.3600 C.ar  236  TYR236     -0.0201
    112  CD1       13.6060  -28.3320   -4.0450 C.ar  236  TYR236     -0.0009
    113  CD2       14.5710  -30.3570   -4.8780 C.ar  236  TYR236     -0.0009
    114  CE1       12.3250  -28.8620   -4.2430 C.ar  236  TYR236      0.0417
    115  CE2       13.3030  -30.8950   -5.0760 C.ar  236  TYR236      0.0417
    116  CZ        12.1850  -30.1470   -4.7590 C.ar  236  TYR236      0.1957
    117  OH        10.9380  -30.6940   -4.9690 O.3   236  TYR236     -0.2866
    118  N         23.1850  -28.7990   -2.3760 N.3   239  ARG239     -0.1231
    119  CA        23.3960  -30.1320   -1.8270 C.3   239  ARG239      0.1694
    120  C         22.4690  -31.1380   -2.5000 C.2   239  ARG239      0.2592
    121  O         22.8970  -32.2270   -2.8910 O.2   239  ARG239     -0.2718
    122  CB        23.1710  -30.1390   -0.3130 C.3   239  ARG239      0.0321
    123  CG        23.2590  -31.5270    0.2910 C.3   239  ARG239      0.0489
    124  CD        23.3660  -31.4970    1.8060 C.3   239  ARG239      0.2205
    125  NE        24.5830  -30.8280    2.2590 N.pl3 239  ARG239     -0.0865
    126  CZ        24.6080  -29.6350    2.8450 C.cat 239  ARG239      0.5346
    127  NH1       23.4770  -28.9710    3.0530 N.pl3 239  ARG239      0.1354
    128  NH2       25.7620  -29.1060    3.2310 N.pl3 239  ARG239      0.1354
    129  N         21.2030  -30.7660   -2.6500 N.am  240  PHE240     -0.1976
    130  CA        20.2400  -31.6520   -3.2820 C.3   240  PHE240      0.1639
    131  C         20.7030  -32.0830   -4.6620 C.2   240  PHE240      0.2290
    132  O         20.7630  -33.2800   -4.9570 O.2   240  PHE240     -0.2864
    133  CB        18.8750  -30.9770   -3.4290 C.3   240  PHE240      0.0560
    134  CG        17.8750  -31.8120   -4.1830 C.ar  240  PHE240     -0.0200
    135  CD1       17.0150  -32.6740   -3.5080 C.ar  240  PHE240     -0.0042
    136  CD2       17.8470  -31.7970   -5.5750 C.ar  240  PHE240     -0.0042
    137  CE1       16.1450  -33.5120   -4.2070 C.ar  240  PHE240     -0.0003
    138  CE2       16.9810  -32.6340   -6.2840 C.ar  240  PHE240     -0.0003
    139  CZ        16.1310  -33.4920   -5.5950 C.ar  240  PHE240     -0.0000
    140  N         23.9600  -34.0630   -5.1900 N.3   243  ILE243     -0.1231
    141  CA        23.6930  -35.4820   -4.9860 C.3   243  ILE243      0.1692
    142  C         22.7990  -36.0760   -6.0740 C.2   243  ILE243      0.2591
    143  O         23.2670  -36.8320   -6.9200 O.2   243  ILE243     -0.2718
    144  CB        23.0340  -35.7180   -3.6080 C.3   243  ILE243      0.0266
    145  CG1       24.0070  -35.3090   -2.4990 C.3   243  ILE243      0.0019
    146  CG2       22.6130  -37.1670   -3.4650 C.3   243  ILE243      0.0020
    147  CD1       23.4790  -35.5360   -1.0930 C.3   243  ILE243      0.0001
    148  N         21.5170  -35.7320   -6.0520 N.am  244  LYS244     -0.1980
    149  CA        20.5640  -36.2500   -7.0300 C.3   244  LYS244      0.1596
    150  C         20.9280  -35.9020   -8.4670 C.2   244  LYS244      0.2287
    151  O         20.2810  -36.3630   -9.4090 O.2   244  LYS244     -0.2864
    152  CB        19.1550  -35.7310   -6.7190 C.3   244  LYS244      0.0298
    153  CG        18.5110  -36.3600   -5.4860 C.3   244  LYS244      0.0038
    154  CD        18.2040  -37.8290   -5.7280 C.3   244  LYS244      0.0206
    155  CE        17.6050  -38.5060   -4.4990 C.3   244  LYS244      0.1093
    156  NZ        18.5670  -38.5780   -3.3720 N.3   244  LYS244     -0.1314
@<TRIPOS>BOND
     1   151   150    2
     2   150   149    1
     3   149   152    1
     4   149   148    1
     5   143   142    2
     6   152   153    1
     7   138   139   ar
     8   138   136   ar
     9   142   148   am
    10   142   141    1
    11   154   153    1
    12   154   155    1
    13   139   137   ar
    14   136   134   ar
    15   140   141    1
    16   115   113   ar
    17   115   116   ar
    18   141   144    1
    19   117   116    1
    20   132   131    2
    21   113   111   ar
    22   116   114   ar
    23   131   130    1
    24   155   156    1
    25   106   107    1
    26   111   110    1
    27   111   112   ar
    28   114   112   ar
    29   137   135   ar
    30   134   135   ar
    31   134   133    1
    32   110   107    1
    33   144   146    1
    34   144   145    1
    35   107   108    1
    36   133   130    1
    37   130   129    1
    38   108   109    2
    39   121   120    2
    40   129   120   am
    41   120   119    1
    42   145   147    1
    43   118   119    1
    44   119   122    1
    45    55    54   ar
    46   122   123    1
    47    56    54   ar
    48    54    53    1
    49    52    51    2
    50    51    50    1
    51   123   124    1
    52    43    42    2
    53    49    50    1
    54    50    53    1
    55    42    41    1
    56    47    46   ar
    57   124   125    1
    58    60    59    2
    59    44    41    1
    60    44    45    1
    61    57    58    1
    62   125   126    2
    63    41    40    1
    64    73    71   ar
    65    73    75   ar
    66    46    45    1
    67    46    48   ar
    68    71    70   ar
    69   126   127    1
    70   126   128    1
    71    59    58    1
    72    59    65   am
    73    83    81   ar
    74    58    61    1
    75    75    74   ar
    76    61    62    1
    77    32    31    2
    78    40    31   am
    79    70    69    1
    80    70    72   ar
    81    66    65    1
    82    66    69    1
    83    66    67    1
    84    31    30    1
    85    81    80    1
    86    81    82   ar
    87    64    62    1
    88    74    72   ar
    89    62    63    1
    90    76    67   am
    91    76    77    1
    92    80    77    1
    93    67    68    2
    94    77    78    1
    95    30    33    1
    96    30    29    1
    97    79    78    2
    98    20    19   ar
    99    17    16    2
   100    12    11    2
   101    33    34    1
   102    29    24   am
   103    25    24    2
   104    24    23    1
   105    16    15    1
   106    16    22   am
   107    19    21   ar
   108    19    18    1
   109    15    14    1
   110    15    18    1
   111    11    14   am
   112    11    10    1
   113    92    91    1
   114    13    10    1
   115    34    35    1
   116    23    22    1
   117    23    26    1
   118   105   104    1
   119    91    90    1
   120    35    36    1
   121   104   101    1
   122    10     9    1
   123     8     6   ar
   124    90    89    1
   125   101   102    1
   126   101   100    1
   127    26    28    1
   128    26    27    1
   129    38    37    1
   130   102   103    2
   131    36    37    2
   132    98    97    1
   133     4     3    2
   134     7     6   ar
   135     6     5    1
   136    37    39    1
   137    89    88    1
   138     3     2    1
   139    99    97    1
   140     2     5    1
   141     2     1    1
   142    97    94    1
   143    88    85    1
   144    84    85    1
   145    85    86    1
   146    95    94    1
   147    95    96    2
   148    94    93    1
   149    86    87    2
