@<TRIPOS>MOLECULE
tmp/3fpeB00.pdb
 184 178 0 0 0
SMALL
GASTEIGER

@<TRIPOS>ATOM
      1  N         37.1000   -2.7060   20.0600 N.3    72  TYR72      -0.1241
      2  CA        36.4170   -1.4850   20.4660 C.3    72  TYR72       0.1605
      3  C         36.2600   -1.3890   21.9860 C.2    72  TYR72       0.2264
      4  O         36.5910   -0.3440   22.5730 O.2    72  TYR72      -0.2867
      5  CB        35.0520   -1.4500   19.7950 C.3    72  TYR72       0.0534
      6  CG        34.1500   -0.3250   20.2950 C.ar   72  TYR72      -0.0201
      7  CD1       34.3570    0.9910   19.8940 C.ar   72  TYR72      -0.0009
      8  CD2       33.0750   -0.6030   21.1430 C.ar   72  TYR72      -0.0009
      9  CE1       33.4820    2.0280   20.3420 C.ar   72  TYR72       0.0417
     10  CE2       32.2120    0.3970   21.5890 C.ar   72  TYR72       0.0417
     11  CZ        32.4300    1.7110   21.1850 C.ar   72  TYR72       0.1957
     12  OH        31.5480    2.6760   21.6370 O.3    72  TYR72      -0.2866
     13  N         40.1220    5.1810   28.7030 N.3    80  GLU80      -0.1245
     14  CA        39.5930    5.7080   29.9710 C.3    80  GLU80       0.1567
     15  C         40.5560    5.5200   31.1440 C.2    80  GLU80       0.2260
     16  O         40.7750    6.4480   31.9260 O.2    80  GLU80      -0.2867
     17  CB        38.2500    5.0740   30.3080 C.3    80  GLU80       0.0388
     18  CG        37.0980    5.6550   29.4830 C.3    80  GLU80       0.1160
     19  CD        35.7140    5.4440   30.1050 C.2    80  GLU80       0.3649
     20  OE1       35.5880    5.0700   31.3090 O.co2  80  GLU80      -0.2457
     21  OE2       34.7350    5.6680   29.3600 O.co2  80  GLU80      -0.2457
     22  N         37.3590   11.1090   23.0430 N.3   102  PHE102     -0.1241
     23  CA        35.9250   11.0690   22.8210 C.3   102  PHE102      0.1605
     24  C         35.1920   12.2460   23.4870 C.2   102  PHE102      0.2264
     25  O         33.9720   12.3460   23.3650 O.2   102  PHE102     -0.2867
     26  CB        35.3430    9.7760   23.3860 C.3   102  PHE102      0.0534
     27  CG        35.7720    8.5340   22.6510 C.ar  102  PHE102     -0.0203
     28  CD1       35.5800    8.4130   21.2700 C.ar  102  PHE102     -0.0042
     29  CD2       36.3570    7.4810   23.3420 C.ar  102  PHE102     -0.0042
     30  CE1       35.9690    7.2520   20.5850 C.ar  102  PHE102     -0.0003
     31  CE2       36.7500    6.3150   22.6720 C.ar  102  PHE102     -0.0003
     32  CZ        36.5420    6.1990   21.2920 C.ar  102  PHE102     -0.0000
     33  N         32.3170   14.2780   21.7990 N.3   105  ARG105     -0.1231
     34  CA        31.1710   13.4050   21.5640 C.3   105  ARG105      0.1694
     35  C         30.2590   13.2840   22.7800 C.2   105  ARG105      0.2592
     36  O         29.0350   13.2910   22.6300 O.2   105  ARG105     -0.2718
     37  CB        31.5830   12.0170   21.1260 C.3   105  ARG105      0.0321
     38  CG        32.4540   12.0500   19.9230 C.3   105  ARG105      0.0489
     39  CD        32.7800   10.6510   19.5490 C.3   105  ARG105      0.2205
     40  NE        34.0250   10.6470   18.8090 N.pl3 105  ARG105     -0.0865
     41  CZ        34.4310    9.6350   18.0690 C.cat 105  ARG105      0.5346
     42  NH1       33.6610    8.5690   17.9480 N.pl3 105  ARG105      0.1354
     43  NH2       35.6110    9.6890   17.4550 N.pl3 105  ARG105      0.1354
     44  N         30.8530   13.1360   23.9640 N.am  106  TYR106     -0.1976
     45  CA        30.0760   13.1040   25.2060 C.3   106  TYR106      0.1639
     46  C         29.2280   14.3530   25.4080 C.2   106  TYR106      0.2290
     47  O         28.0870   14.2580   25.8620 O.2   106  TYR106     -0.2864
     48  CB        30.9960   12.9150   26.4060 C.3   106  TYR106      0.0560
     49  CG        31.4130   11.4800   26.6210 C.ar  106  TYR106     -0.0198
     50  CD1       30.7230   10.6750   27.5430 C.ar  106  TYR106     -0.0009
     51  CD2       32.5040   10.9240   25.9270 C.ar  106  TYR106     -0.0009
     52  CE1       31.1210    9.3280   27.7660 C.ar  106  TYR106      0.0417
     53  CE2       32.8990    9.5800   26.1360 C.ar  106  TYR106      0.0417
     54  CZ        32.1950    8.7940   27.0640 C.ar  106  TYR106      0.1957
     55  OH        32.5710    7.4760   27.2740 O.3   106  TYR106     -0.2866
     56  N         26.3150   13.9760   22.9430 N.3   109  LEU109     -0.1245
     57  CA        25.4810   12.8860   23.4420 C.3   109  LEU109      0.1561
     58  C         24.6150   13.2900   24.6540 C.2   109  LEU109      0.2260
     59  O         23.4020   13.0180   24.6710 O.2   109  LEU109     -0.2867
     60  CB        26.3880   11.7120   23.8090 C.3   109  LEU109      0.0270
     61  CG        25.6840   10.4810   24.3610 C.3   109  LEU109      0.0019
     62  CD1       24.7670    9.9030   23.3360 C.3   109  LEU109      0.0001
     63  CD2       26.7580    9.4500   24.8070 C.3   109  LEU109      0.0001
     64  N         23.5770    6.6160   37.3430 N.3   127  PHE127     -0.1241
     65  CA        24.2090    6.1210   36.1120 C.3   127  PHE127      0.1605
     66  C         24.8560    4.7590   36.3800 C.2   127  PHE127      0.2264
     67  O         25.7600    4.6480   37.2150 O.2   127  PHE127     -0.2867
     68  CB        25.2350    7.1410   35.6020 C.3   127  PHE127      0.0534
     69  CG        25.8790    6.7490   34.2860 C.ar  127  PHE127     -0.0203
     70  CD1       25.2860    7.1000   33.0690 C.ar  127  PHE127     -0.0042
     71  CD2       27.0430    6.0330   34.2650 C.ar  127  PHE127     -0.0042
     72  CE1       25.8670    6.7110   31.8370 C.ar  127  PHE127     -0.0003
     73  CE2       27.6430    5.6390   33.0410 C.ar  127  PHE127     -0.0003
     74  CZ        27.0430    5.9720   31.8370 C.ar  127  PHE127     -0.0000
     75  N         27.2270    1.8550   35.3950 N.3   129  GLY129     -0.1210
     76  CA        28.4110    1.5630   34.5630 C.3   129  GLY129      0.1956
     77  C         29.3940    2.7160   34.3670 C.2   129  GLY129      0.2612
     78  O         29.7620    3.0290   33.2220 O.2   129  GLY129     -0.2717
     79  N         29.8480    3.3220   35.4700 N.am  130  GLY130     -0.1942
     80  CA        30.6960    4.5150   35.4210 C.3   130  GLY130      0.2014
     81  C         32.0170    4.3750   34.6910 C.2   130  GLY130      0.2639
     82  O         32.4290    5.2720   33.9330 O.2   130  GLY130     -0.2714
     83  N         32.6820    3.2490   34.9090 N.am  131  GLY131     -0.1954
     84  CA        34.0450    3.0700   34.3910 C.3   131  GLY131      0.1869
     85  C         35.0840    3.9310   35.1090 C.2   131  GLY131      0.2309
     86  O         34.7870    4.5980   36.0930 O.2   131  GLY131     -0.2863
     87  N         36.6020    6.6140   34.0420 N.3   133  LEU133     -0.1231
     88  CA        36.5210    8.0260   33.6970 C.3   133  LEU133      0.1678
     89  C         35.0270    8.3360   33.5780 C.2   133  LEU133      0.2434
     90  O         34.4290    8.1890   32.5180 O.2   133  LEU133     -0.2733
     91  CB        37.2910    8.3290   32.4020 C.3   133  LEU133      0.0284
     92  CG        37.4550    9.8080   32.0510 C.3   133  LEU133      0.0019
     93  CD1       38.5970   10.4160   32.8720 C.3   133  LEU133      0.0001
     94  CD2       37.6990   10.0350   30.5500 C.3   133  LEU133      0.0001
     95  N         34.4080    8.7070   34.7050 N.am  134  PRO134     -0.2718
     96  CA        32.9360    8.8060   34.7840 C.3   134  PRO134      0.1535
     97  C         32.4070   10.1300   34.2220 C.2   134  PRO134      0.2598
     98  O         31.8070   10.9450   34.9500 O.2   134  PRO134     -0.2715
     99  CB        32.6830    8.6390   36.2850 C.3   134  PRO134      0.0310
    100  CG        33.8530    9.2680   36.9420 C.3   134  PRO134      0.0237
    101  CD        35.0450    8.9300   36.0170 C.3   134  PRO134      0.0939
    102  N         32.6440   10.3180   32.9240 N.am  135  LEU135     -0.1964
    103  CA        32.3480   11.5770   32.2460 C.3   135  LEU135      0.1728
    104  C         30.8740   11.9030   32.2560 C.2   135  LEU135      0.2617
    105  O         30.5060   13.0570   32.4740 O.2   135  LEU135     -0.2715
    106  CB        32.8330   11.5240   30.8040 C.3   135  LEU135      0.0311
    107  CG        33.8330   12.5850   30.3810 C.3   135  LEU135      0.0022
    108  CD1       34.0460   12.5190   28.8620 C.3   135  LEU135      0.0001
    109  CD2       33.5490   14.0290   30.8540 C.3   135  LEU135      0.0001
    110  N         30.0110   10.9020   32.0630 N.am  136  THR136     -0.1937
    111  CA        28.5650   11.2110   32.0500 C.3   136  THR136      0.2028
    112  C         28.1550   11.7480   33.4330 C.2   136  THR136      0.2642
    113  O         27.5250   12.8090   33.5410 O.2   136  THR136     -0.2714
    114  CB        27.7230    9.9960   31.6140 C.3   136  THR136      0.1808
    115  OG1       28.0430    9.6430   30.2630 O.3   136  THR136     -0.2208
    116  CG2       26.2390   10.2650   31.7290 C.3   136  THR136      0.0379
    117  N         28.5210   11.0220   34.4870 N.am  137  GLY137     -0.1954
    118  CA        28.2840   11.4830   35.8590 C.3   137  GLY137      0.1869
    119  C         28.7920   12.8990   36.1230 C.2   137  GLY137      0.2309
    120  O         28.0610   13.7550   36.6490 O.2   137  GLY137     -0.2863
    121  N         24.6420    2.6300   30.9820 N.3   194  ALA194     -0.1231
    122  CA        25.7710    2.7750   30.0540 C.3   194  ALA194      0.1694
    123  C         25.6770    1.8290   28.8630 C.2   194  ALA194      0.2592
    124  O         25.1030    0.7410   28.9660 O.2   194  ALA194     -0.2718
    125  CB        27.0930    2.5450   30.7800 C.3   194  ALA194      0.0304
    126  N         26.2450    2.2460   27.7360 N.am  195  ALA195     -0.1966
    127  CA        26.2750    1.4160   26.5240 C.3   195  ALA195      0.1728
    128  C         26.9970    0.1090   26.8420 C.2   195  ALA195      0.2616
    129  O         26.6430   -0.9490   26.3430 O.2   195  ALA195     -0.2715
    130  CB        26.9850    2.1480   25.4000 C.3   195  ALA195      0.0334
    131  N         27.9930    0.1990   27.7090 N.am  196  LEU196     -0.1977
    132  CA        28.8240   -0.9590   27.9970 C.3   196  LEU196      0.1596
    133  C         28.3900   -1.7490   29.2410 C.2   196  LEU196      0.2287
    134  O         29.0420   -2.7330   29.6040 O.2   196  LEU196     -0.2864
    135  CB        30.3040   -0.5400   28.0350 C.3   196  LEU196      0.0297
    136  CG        30.9800   -0.4710   26.6430 C.3   196  LEU196      0.0022
    137  CD1       30.3610    0.4880   25.6190 C.3   196  LEU196      0.0001
    138  CD2       32.4940   -0.2280   26.7580 C.3   196  LEU196      0.0001
    139  N         21.6900    3.3440   26.4660 N.3   220  ARG220     -0.1245
    140  CA        22.4390    3.6080   25.2540 C.3   220  ARG220      0.1563
    141  C         22.6030    2.3260   24.4570 C.2   220  ARG220      0.2260
    142  O         22.8290    1.2550   25.0370 O.2   220  ARG220     -0.2867
    143  CB        23.8040    4.1940   25.5960 C.3   220  ARG220      0.0307
    144  CG        23.6850    5.6240   26.1490 C.3   220  ARG220      0.0489
    145  CD        25.0090    6.0440   26.7470 C.3   220  ARG220      0.2205
    146  NE        24.9390    7.4130   27.2590 N.pl3 220  ARG220     -0.0865
    147  CZ        25.8960    7.9740   27.9970 C.cat 220  ARG220      0.5346
    148  NH1       26.9670    7.2550   28.3530 N.pl3 220  ARG220      0.1354
    149  NH2       25.7540    9.2460   28.4120 N.pl3 220  ARG220      0.1354
    150  N         23.3600    0.7970   19.9820 N.3   222  TYR222     -0.1241
    151  CA        24.0440    1.0070   18.6950 C.3   222  TYR222      0.1605
    152  C         23.0880    0.6010   17.5830 C.2   222  TYR222      0.2264
    153  O         22.5030   -0.4730   17.6410 O.2   222  TYR222     -0.2867
    154  CB        25.3310    0.1540   18.6000 C.3   222  TYR222      0.0534
    155  CG        26.3740    0.5460   19.6420 C.ar  222  TYR222     -0.0201
    156  CD1       26.2550    0.1000   20.9690 C.ar  222  TYR222     -0.0009
    157  CD2       27.4230    1.4100   19.3240 C.ar  222  TYR222     -0.0009
    158  CE1       27.1650    0.4640   21.9260 C.ar  222  TYR222      0.0417
    159  CE2       28.3590    1.7960   20.2950 C.ar  222  TYR222      0.0417
    160  CZ        28.2030    1.3130   21.6020 C.ar  222  TYR222      0.1957
    161  OH        29.0870    1.6450   22.5870 O.3   222  TYR222     -0.2866
    162  N         29.2190   10.9660   16.9900 N.3   253  VAL253     -0.1231
    163  CA        28.6180   10.2990   18.1420 C.3   253  VAL253      0.1692
    164  C         28.2640    8.8730   17.7530 C.2   253  VAL253      0.2592
    165  O         27.7180    8.6280   16.6680 O.2   253  VAL253     -0.2718
    166  CB        27.3630   11.0490   18.6630 C.3   253  VAL253      0.0266
    167  CG1       26.6520   10.2360   19.7730 C.3   253  VAL253      0.0020
    168  CG2       27.7630   12.4360   19.1100 C.3   253  VAL253      0.0020
    169  N         28.5670    7.9240   18.6340 N.am  254  ASN254     -0.1960
    170  CA        28.2920    6.5200   18.3370 C.3   254  ASN254      0.1819
    171  C         26.9880    5.9530   18.8820 C.2   254  ASN254      0.2621
    172  O         26.3430    5.1010   18.2410 O.2   254  ASN254     -0.2715
    173  CB        29.5000    5.6850   18.8070 C.3   254  ASN254      0.1195
    174  CG        30.6730    5.7550   17.8180 C.2   254  ASN254      0.2630
    175  OD1       30.4690    5.8860   16.6040 O.2   254  ASN254     -0.2716
    176  ND2       31.8890    5.6740   18.3340 N.am  254  ASN254     -0.0877
    177  N         26.5930    6.3890   20.0810 N.am  255  ASN255     -0.1972
    178  CA        25.4130    5.8300   20.7230 C.3   255  ASN255      0.1688
    179  C         24.0650    6.4270   20.2800 C.2   255  ASN255      0.2292
    180  O         23.9300    7.6440   20.1310 O.2   255  ASN255     -0.2864
    181  CB        25.5010    6.0250   22.2380 C.3   255  ASN255      0.1181
    182  CG        26.5360    5.1470   22.8880 C.2   255  ASN255      0.2629
    183  OD1       27.1560    5.5450   23.8670 O.2   255  ASN255     -0.2716
    184  ND2       26.7020    3.9320   22.3860 N.am  255  ASN255     -0.0877
@<TRIPOS>BOND
     1   175   174    2
     2   165   164    2
     3   162   163    1
     4    43    41    1
     5   152   153    2
     6   152   151    1
     7   164   163    1
     8   164   169   am
     9   174   176   am
    10   174   173    1
    11    42    41    1
    12    41    40    2
    13   163   166    1
    14   172   171    2
    15   170   169    1
    16   170   173    1
    17   170   171    1
    18   154   151    1
    19   154   155    1
    20   166   168    1
    21   166   167    1
    22   151   150    1
    23    40    39    1
    24   171   177   am
    25   157   155   ar
    26   157   159   ar
    27    39    38    1
    28   155   156   ar
    29     5     6    1
    30     5     2    1
    31     7     6   ar
    32     7     9   ar
    33    38    37    1
    34     1     2    1
    35   177   178    1
    36   180   179    2
    37   179   178    1
    38     6     8   ar
    39   159   160   ar
    40     9    11   ar
    41     2     3    1
    42    30    28   ar
    43    30    32   ar
    44   178   181    1
    45   156   158   ar
    46    37    34    1
    47     8    10   ar
    48    11    10   ar
    49    11    12    1
    50    28    27   ar
    51    32    31   ar
    52    34    33    1
    53    34    35    1
    54   160   158   ar
    55   160   161    1
    56     3     4    2
    57   181   182    1
    58   184   182   am
    59    36    35    2
    60    27    29   ar
    61    27    26    1
    62    31    29   ar
    63    35    44   am
    64    23    22    1
    65    23    26    1
    66    23    24    1
    67   182   183    2
    68    56    57    1
    69    62    61    1
    70    25    24    2
    71    57    60    1
    72    57    58    1
    73    60    61    1
    74    44    45    1
    75    61    63    1
    76   141   142    2
    77   141   140    1
    78    58    59    2
    79    45    46    1
    80    45    48    1
    81   140   143    1
    82   140   139    1
    83   130   127    1
    84    46    47    2
    85   143   144    1
    86   137   136    1
    87    51    53   ar
    88    51    49   ar
    89    53    54   ar
    90   144   145    1
    91   129   128    2
    92    48    49    1
    93   127   128    1
    94   127   126    1
    95    49    50   ar
    96   136   138    1
    97   136   135    1
    98   145   146    1
    99   128   131   am
   100    54    55    1
   101    54    52   ar
   102   146   147    2
   103    50    52   ar
   104   131   132    1
   105   126   123   am
   106   147   148    1
   107   147   149    1
   108   132   135    1
   109   132   133    1
   110    13    14    1
   111   108   107    1
   112   123   124    2
   113   123   122    1
   114   133   134    2
   115    21    19   ar
   116    18    19    1
   117    18    17    1
   118    14    17    1
   119    14    15    1
   120   122   125    1
   121   122   121    1
   122    19    20   ar
   123   115   114    1
   124   107   106    1
   125   107   109    1
   126    94    92    1
   127   106   103    1
   128    15    16    2
   129   114   116    1
   130   114   111    1
   131    72    74   ar
   132    72    70   ar
   133    74    73   ar
   134   111   110    1
   135   111   112    1
   136    92    91    1
   137    92    93    1
   138   110   104   am
   139   103   104    1
   140   103   102    1
   141   104   105    2
   142    91    88    1
   143    90    89    2
   144   102    97   am
   145    73    71   ar
   146    70    69   ar
   147    78    77    2
   148   112   113    2
   149   112   117   am
   150    89    88    1
   151    89    95   am
   152    88    87    1
   153    82    81    2
   154    97    96    1
   155    97    98    2
   156    71    69   ar
   157    69    68    1
   158    77    76    1
   159    77    79   am
   160    84    83    1
   161    84    85    1
   162   117   118    1
   163    76    75    1
   164    81    83   am
   165    81    80    1
   166    95    96    1
   167    95   101    1
   168    96    99    1
   169    85    86    2
   170    80    79    1
   171    68    65    1
   172   118   119    1
   173   101   100    1
   174    65    66    1
   175    65    64    1
   176   119   120    2
   177    99   100    1
   178    66    67    2
