@<TRIPOS>MOLECULE
tmp/3fpfB01.pdb
 155 147 0 0 0
SMALL
GASTEIGER

@<TRIPOS>ATOM
      1  N          6.2740    0.9850   24.2750 N.3    76  GLY76      -0.1210
      2  CA         5.5690    1.9700   25.0400 C.3    76  GLY76       0.1956
      3  C          5.9350    1.8920   26.4900 C.2    76  GLY76       0.2611
      4  O          6.1210    2.8810   27.1130 O.2    76  GLY76      -0.2717
      5  N          6.0200    0.6790   27.0300 N.am   77  MET77      -0.1979
      6  CA         6.4180    0.5430   28.4440 C.3    77  MET77       0.1605
      7  C          7.8080    1.1330   28.6980 C.2    77  MET77       0.2287
      8  O          8.0310    1.8200   29.6280 O.2    77  MET77      -0.2864
      9  CB         6.3440   -0.9090   28.8820 C.3    77  MET77       0.0413
     10  CG         6.8620   -1.1960   30.2110 C.3    77  MET77       0.0598
     11  SD         5.9030   -0.5140   31.6070 S.3    77  MET77      -0.1393
     12  CE         4.5740   -1.7060   31.7790 C.3    77  MET77       0.0692
     13  N          7.8720    4.8880   28.5450 N.3    80  GLU80      -0.1245
     14  CA         7.3320    5.4380   29.7940 C.3    80  GLU80       0.1567
     15  C          8.3120    5.3110   30.9730 C.2    80  GLU80       0.2260
     16  O          8.4930    6.2520   31.7440 O.2    80  GLU80      -0.2867
     17  CB         6.0140    4.7750   30.1550 C.3    80  GLU80       0.0388
     18  CG         4.8400    5.2670   29.3000 C.3    80  GLU80       0.1160
     19  CD         3.4870    4.9790   29.9270 C.2    80  GLU80       0.3649
     20  OE1        3.3730    4.9310   31.1800 O.co2  80  GLU80      -0.2457
     21  OE2        2.5290    4.7910   29.1560 O.co2  80  GLU80      -0.2457
     22  N         -7.8600    3.4450   35.3230 N.3   128  ILE128     -0.1231
     23  CA        -7.2830    2.0980   35.4750 C.3   128  ILE128      0.1692
     24  C         -6.1800    1.8170   34.4750 C.2   128  ILE128      0.2593
     25  O         -6.4470    1.7560   33.2570 O.2   128  ILE128     -0.2718
     26  CB        -8.3460    0.9850   35.3770 C.3   128  ILE128      0.0266
     27  CG1       -9.4390    1.2180   36.4190 C.3   128  ILE128      0.0019
     28  CG2       -7.6940   -0.4060   35.5490 C.3   128  ILE128      0.0020
     29  CD1      -10.7330    0.4810   36.1020 C.3   128  ILE128      0.0001
     30  N         -4.9590    1.6190   34.9980 N.am  129  GLY129     -0.1942
     31  CA        -3.7970    1.2520   34.1880 C.3   129  GLY129      0.2014
     32  C         -2.8100    2.3910   34.0060 C.2   129  GLY129      0.2639
     33  O         -2.4770    2.7510   32.8780 O.2   129  GLY129     -0.2714
     34  N         -2.3010    2.9100   35.1280 N.am  130  GLY130     -0.1939
     35  CA        -1.5480    4.1620   35.1230 C.3   130  GLY130      0.2014
     36  C         -0.2290    4.1550   34.3790 C.2   130  GLY130      0.2639
     37  O          0.0960    5.1010   33.6330 O.2   130  GLY130     -0.2714
     38  N          0.5550    3.1040   34.5820 N.am  131  GLY131     -0.1940
     39  CA         1.8780    3.0380   33.9670 C.3   131  GLY131      0.1998
     40  C          2.9220    3.8580   34.7120 C.2   131  GLY131      0.2480
     41  O          2.6040    4.5670   35.6850 O.2   131  GLY131     -0.2729
     42  N          4.1810    3.7590   34.2780 N.am  132  PRO132     -0.2726
     43  CA         5.2720    4.5270   34.8820 C.3   132  PRO132      0.1402
     44  C          5.0920    6.0300   34.7170 C.2   132  PRO132      0.2269
     45  O          5.5170    6.7970   35.5870 O.2   132  PRO132     -0.2865
     46  CB         6.5000    4.0600   34.0850 C.3   132  PRO132      0.0296
     47  CG         6.1200    2.6930   33.5420 C.3   132  PRO132      0.0237
     48  CD         4.6610    2.8570   33.2100 C.3   132  PRO132      0.0939
     49  N         -4.9150    3.8810   39.0920 N.3   151  VAL151     -0.1231
     50  CA        -4.7350    2.5030   39.5710 C.3   151  VAL151      0.1692
     51  C         -3.6620    1.7810   38.7660 C.2   151  VAL151      0.2592
     52  O         -3.6890    1.7760   37.5180 O.2   151  VAL151     -0.2718
     53  CB        -6.0560    1.7090   39.5140 C.3   151  VAL151      0.0266
     54  CG1       -5.8460    0.2970   40.0580 C.3   151  VAL151      0.0020
     55  CG2       -7.1580    2.4530   40.2680 C.3   151  VAL151      0.0020
     56  N         -2.6730    1.2160   39.4660 N.am  152  GLU152     -0.1966
     57  CA        -1.5930    0.5020   38.7900 C.3   152  GLU152      0.1733
     58  C         -1.3360   -0.8340   39.4970 C.2   152  GLU152      0.2616
     59  O         -1.1170   -0.8480   40.6960 O.2   152  GLU152     -0.2715
     60  CB        -0.3060    1.3450   38.7680 C.3   152  GLU152      0.0429
     61  CG         0.9460    0.5860   38.3620 C.3   152  GLU152      0.1163
     62  CD         0.8540   -0.0780   36.9860 C.2   152  GLU152      0.3649
     63  OE1        0.5380    0.6130   35.9860 O.co2 152  GLU152     -0.2457
     64  OE2        1.1480   -1.2930   36.9050 O.co2 152  GLU152     -0.2457
     65  N         -1.3280   -1.9260   38.7340 N.am  153  ILE153     -0.1963
     66  CA        -1.2530   -3.2790   39.3000 C.3   153  ILE153      0.1727
     67  C          0.1600   -3.6860   39.7770 C.2   153  ILE153      0.2616
     68  O          0.3090   -4.5040   40.7210 O.2   153  ILE153     -0.2715
     69  CB        -1.8390   -4.3190   38.2870 C.3   153  ILE153      0.0290
     70  CG1       -2.1230   -5.6570   38.9820 C.3   153  ILE153      0.0022
     71  CG2       -0.9350   -4.4730   37.0490 C.3   153  ILE153      0.0023
     72  CD1       -2.9930   -6.5800   38.1690 C.3   153  ILE153      0.0001
     73  N          1.1910   -3.1630   39.1100 N.am  154  GLU154     -0.1977
     74  CA         2.5770   -3.5150   39.4360 C.3   154  GLU154      0.1602
     75  C          3.1320   -2.5620   40.4980 C.2   154  GLU154      0.2287
     76  O          3.2640   -1.3710   40.2530 O.2   154  GLU154     -0.2864
     77  CB         3.4430   -3.4790   38.1650 C.3   154  GLU154      0.0415
     78  CG         2.9350   -4.3890   37.0620 C.3   154  GLU154      0.1163
     79  CD         3.0830   -5.8700   37.3570 C.2   154  GLU154      0.3649
     80  OE1        4.0170   -6.2870   38.0900 O.co2 154  GLU154     -0.2457
     81  OE2        2.2500   -6.6240   36.8030 O.co2 154  GLU154     -0.2457
     82  N          6.0580   -0.1970   39.5360 N.3   157  ILE157     -0.1245
     83  CA         5.5740    0.8420   38.6000 C.3   157  ILE157      0.1561
     84  C          4.7250    1.8980   39.3130 C.2   157  ILE157      0.2260
     85  O          4.8860    3.1210   39.0720 O.2   157  ILE157     -0.2867
     86  CB         4.7800    0.2030   37.4350 C.3   157  ILE157      0.0252
     87  CG1        5.6830   -0.7750   36.6720 C.3   157  ILE157      0.0019
     88  CG2        4.2300    1.2830   36.5070 C.3   157  ILE157      0.0019
     89  CD1        7.0140   -0.2200   36.2870 C.3   157  ILE157      0.0001
     90  N         -2.8990   -1.7870   42.9390 N.3   178  GLY178     -0.1210
     91  CA        -3.8970   -2.8530   42.9100 C.3   178  GLY178      0.1956
     92  C         -4.4640   -3.0260   41.5250 C.2   178  GLY178      0.2612
     93  O         -4.0130   -2.3660   40.5780 O.2   178  GLY178     -0.2717
     94  N         -5.4250   -3.9450   41.4020 N.am  179  ASP179     -0.1959
     95  CA        -6.0780   -4.1610   40.1100 C.3   179  ASP179      0.1840
     96  C         -7.4030   -3.4120   40.0630 C.2   179  ASP179      0.2621
     97  O         -7.6870   -2.6140   40.9460 O.2   179  ASP179     -0.2715
     98  CB        -6.1820   -5.6550   39.7800 C.3   179  ASP179      0.1450
     99  CG        -7.0980   -6.4030   40.7070 C.2   179  ASP179      0.3671
    100  OD1       -8.0180   -5.7820   41.2780 O.co2 179  ASP179     -0.2456
    101  OD2       -6.9230   -7.6360   40.8300 O.co2 179  ASP179     -0.2456
    102  N         -8.2160   -3.6260   39.0200 N.am  180  GLU180     -0.1977
    103  CA        -9.4400   -2.8490   38.8430 C.3   180  GLU180      0.1602
    104  C        -10.4580   -3.0260   39.9780 C.2   180  GLU180      0.2287
    105  O        -11.3280   -2.2110   40.1800 O.2   180  GLU180     -0.2864
    106  CB       -10.1000   -3.2030   37.4980 C.3   180  GLU180      0.0415
    107  CG       -10.6500   -4.6350   37.4120 C.3   180  GLU180      0.1163
    108  CD        -9.6160   -5.7160   37.0790 C.2   180  GLU180      0.3649
    109  OE1       -8.3970   -5.4340   36.9630 O.co2 180  GLU180     -0.2457
    110  OE2      -10.0710   -6.8740   36.9220 O.co2 180  GLU180     -0.2457
    111  N         -7.6770    2.3640   30.7110 N.3   194  ALA194     -0.1245
    112  CA        -6.5590    2.4830   29.7590 C.3   194  ALA194      0.1562
    113  C         -6.7270    1.5600   28.5550 C.2   194  ALA194      0.2260
    114  O         -7.2660    0.4470   28.6820 O.2   194  ALA194     -0.2867
    115  CB        -5.2250    2.2030   30.4380 C.3   194  ALA194      0.0290
    116  N         -4.4160    0.0270   27.4230 N.3   196  LEU196     -0.1231
    117  CA        -3.5280   -1.0680   27.7620 C.3   196  LEU196      0.1693
    118  C         -3.9350   -1.8160   29.0510 C.2   196  LEU196      0.2592
    119  O         -3.2330   -2.7370   29.4750 O.2   196  LEU196     -0.2718
    120  CB        -2.0930   -0.5550   27.8560 C.3   196  LEU196      0.0284
    121  CG        -1.2560   -0.3970   26.5650 C.3   196  LEU196      0.0019
    122  CD1       -1.9690    0.1850   25.3730 C.3   196  LEU196      0.0001
    123  CD2        0.0950    0.2830   26.8270 C.3   196  LEU196      0.0001
    124  N         -5.0760   -1.4610   29.6510 N.am  197  ALA197     -0.1966
    125  CA        -5.5630   -2.2130   30.8270 C.3   197  ALA197      0.1728
    126  C         -5.9780   -3.6090   30.3920 C.2   197  ALA197      0.2616
    127  O         -6.6670   -3.7750   29.3640 O.2   197  ALA197     -0.2715
    128  CB        -6.7230   -1.4890   31.5070 C.3   197  ALA197      0.0334
    129  N         -5.5430   -4.6160   31.1510 N.am  198  GLU198     -0.1977
    130  CA        -5.7740   -6.0210   30.7800 C.3   198  GLU198      0.1602
    131  C         -6.0490   -6.9240   31.9830 C.2   198  GLU198      0.2287
    132  O         -5.6820   -6.5890   33.1210 O.2   198  GLU198     -0.2864
    133  CB        -4.5620   -6.5730   30.0210 C.3   198  GLU198      0.0415
    134  CG        -4.2580   -5.8990   28.6660 C.3   198  GLU198      0.1163
    135  CD        -5.3010   -6.1660   27.5720 C.2   198  GLU198      0.3649
    136  OE1       -6.2460   -6.9580   27.7900 O.co2 198  GLU198     -0.2457
    137  OE2       -5.1830   -5.5590   26.4790 O.co2 198  GLU198     -0.2457
    138  N        -11.9950   -9.6620   31.9130 N.3   202  ARG202     -0.1231
    139  CA       -12.0200   -9.6150   33.3740 C.3   202  ARG202      0.1694
    140  C        -12.2430   -8.1940   33.8550 C.2   202  ARG202      0.2591
    141  O        -13.0660   -7.9500   34.7500 O.2   202  ARG202     -0.2718
    142  CB       -10.7020  -10.1420   33.9420 C.3   202  ARG202      0.0321
    143  CG       -10.7250  -10.2520   35.4710 C.3   202  ARG202      0.0489
    144  CD        -9.2940  -10.4560   35.9590 C.3   202  ARG202      0.2205
    145  NE        -8.5990   -9.1800   36.1450 N.pl3 202  ARG202     -0.0865
    146  CZ        -7.2790   -9.0490   36.2530 C.cat 202  ARG202      0.5346
    147  NH1       -6.4720  -10.1150   36.1490 N.pl3 202  ARG202      0.1354
    148  NH2       -6.7670   -7.8530   36.4750 N.pl3 202  ARG202      0.1354
    149  N        -11.5180   -7.2510   33.2450 N.am  203  VAL203     -0.1980
    150  CA       -11.6230   -5.8560   33.6670 C.3   203  VAL203      0.1595
    151  C        -13.0720   -5.3570   33.5780 C.2   203  VAL203      0.2287
    152  O        -13.5900   -4.8000   34.5420 O.2   203  VAL203     -0.2864
    153  CB       -10.6050   -4.9390   32.9130 C.3   203  VAL203      0.0276
    154  CG1      -10.9180   -3.4830   33.1420 C.3   203  VAL203      0.0022
    155  CG2       -9.1680   -5.2730   33.3080 C.3   203  VAL203      0.0022
@<TRIPOS>BOND
     1     1     2    1
     2     2     3    1
     3   122   121    1
     4   137   135   ar
     5     3     5   am
     6     3     4    2
     7   121   123    1
     8   121   120    1
     9     5     6    1
    10   116   117    1
    11   135   136   ar
    12   135   134    1
    13   117   120    1
    14   117   118    1
    15     6     7    1
    16     6     9    1
    17    13    14    1
    18   113   114    2
    19   113   112    1
    20   134   133    1
    21     7     8    2
    22     9    10    1
    23   118   119    2
    24   118   124   am
    25    21    19   ar
    26    18    19    1
    27    18    17    1
    28   127   126    2
    29   124   125    1
    30   112   115    1
    31   112   111    1
    32    14    17    1
    33    14    15    1
    34    19    20   ar
    35   133   130    1
    36    10    11    1
    37   126   125    1
    38   126   129   am
    39   130   129    1
    40   130   131    1
    41   125   128    1
    42    15    16    2
    43    11    12    1
    44   138   139    1
    45   131   132    2
    46    33    32    2
    47   153   154    1
    48   153   155    1
    49   153   150    1
    50    48    47    1
    51    48    42    1
    52   149   150    1
    53   149   140   am
    54    25    24    2
    55   139   140    1
    56   139   142    1
    57    47    46    1
    58   151   150    1
    59   151   152    2
    60    37    36    2
    61   140   141    2
    62   142   143    1
    63    39    38    1
    64    39    40    1
    65    32    31    1
    66    32    34   am
    67    46    43    1
    68    31    30    1
    69    42    40   am
    70    42    43    1
    71    36    38   am
    72    36    35    1
    73    24    30   am
    74    24    23    1
    75    40    41    2
    76    44    43    1
    77    44    45    2
    78    35    34    1
    79    22    23    1
    80    26    23    1
    81    26    28    1
    82    26    27    1
    83   143   144    1
    84   144   145    1
    85    63    62   ar
    86    29    27    1
    87   145   146    2
    88   147   146    1
    89   146   148    1
    90    89    87    1
    91    88    86    1
    92    87    86    1
    93    81    79   ar
    94    64    62   ar
    95   110   108   ar
    96   109   108   ar
    97    62    61    1
    98    71    69    1
    99    78    79    1
   100    78    77    1
   101   108   107    1
   102    79    80   ar
   103   107   106    1
   104    86    83    1
   105   106   103    1
   106    52    51    2
   107    77    74    1
   108    72    70    1
   109    69    70    1
   110    69    66    1
   111    61    60    1
   112    83    84    1
   113    83    82    1
   114    65    66    1
   115    65    58   am
   116    51    56   am
   117    51    50    1
   118    60    57    1
   119    57    56    1
   120    57    58    1
   121   103   102    1
   122   103   104    1
   123   102    96   am
   124    85    84    2
   125    49    50    1
   126    73    74    1
   127    73    67   am
   128    66    67    1
   129    74    75    1
   130    58    59    2
   131    53    50    1
   132    53    54    1
   133    53    55    1
   134    67    68    2
   135    98    95    1
   136    98    99    1
   137   104   105    2
   138    96    95    1
   139    96    97    2
   140    95    94    1
   141    76    75    2
   142    93    92    2
   143    99   101   ar
   144    99   100   ar
   145    94    92   am
   146    92    91    1
   147    91    90    1
