@<TRIPOS>MOLECULE
tmp/3fphB00.pdb
 115 110 0 0 0
SMALL
GASTEIGER

@<TRIPOS>ATOM
      1  N         16.9420   23.2860   38.1350 N.3    76  GLY76      -0.1225
      2  CA        16.2200   22.5050   39.1500 C.3    76  GLY76       0.1811
      3  C         16.5290   23.0000   40.5580 C.2    76  GLY76       0.2280
      4  O         15.6080   23.1530   41.3850 O.2    76  GLY76      -0.2866
      5  N         13.9430   24.7960   43.3000 N.3    80  GLN80      -0.1245
      6  CA        13.7870   24.2890   44.6890 C.3    80  GLN80       0.1566
      7  C         14.0050   25.3960   45.7030 C.2    80  GLN80       0.2260
      8  O         13.2210   25.5300   46.6410 O.2    80  GLN80      -0.2867
      9  CB        14.7760   23.1820   45.0360 C.3    80  GLN80       0.0367
     10  CG        14.5520   21.8530   44.4060 C.3    80  GLN80       0.0905
     11  CD        15.4010   20.7890   45.1690 C.2    80  GLN80       0.2608
     12  OE1       16.3350   20.2080   44.5910 O.2    80  GLN80      -0.2717
     13  NE2       15.1120   20.5830   46.4790 N.am   80  GLN80      -0.0878
     14  N          4.4100   23.9430   42.8270 N.3   100  PHE100     -0.1241
     15  CA         5.7930   23.6590   42.3630 C.3   100  PHE100      0.1605
     16  C          5.7580   22.9600   41.0140 C.2   100  PHE100      0.2264
     17  O          4.9660   22.0170   40.7950 O.2   100  PHE100     -0.2867
     18  CB         6.4790   22.7590   43.3900 C.3   100  PHE100      0.0534
     19  CG         7.9460   22.3930   43.0840 C.ar  100  PHE100     -0.0203
     20  CD1        8.9020   23.3720   42.8340 C.ar  100  PHE100     -0.0042
     21  CD2        8.3620   21.0720   43.1690 C.ar  100  PHE100     -0.0042
     22  CE1       10.2780   23.0320   42.6390 C.ar  100  PHE100     -0.0003
     23  CE2        9.7210   20.6920   42.9540 C.ar  100  PHE100     -0.0003
     24  CZ        10.6930   21.7000   42.6970 C.ar  100  PHE100     -0.0000
     25  N          7.3360   20.6900   39.3620 N.3   102  PHE102     -0.1241
     26  CA         7.4770   19.2340   39.2770 C.3   102  PHE102      0.1605
     27  C          6.5090   18.4570   40.1880 C.2   102  PHE102      0.2264
     28  O          6.5430   17.2330   40.2340 O.2   102  PHE102     -0.2867
     29  CB         8.9090   18.8570   39.6700 C.3   102  PHE102      0.0534
     30  CG         9.9800   19.4590   38.7730 C.ar  102  PHE102     -0.0203
     31  CD1       10.1990   18.9460   37.4770 C.ar  102  PHE102     -0.0042
     32  CD2       10.7590   20.5270   39.2360 C.ar  102  PHE102     -0.0042
     33  CE1       11.1900   19.5120   36.6270 C.ar  102  PHE102     -0.0003
     34  CE2       11.7470   21.1100   38.4100 C.ar  102  PHE102     -0.0003
     35  CZ        11.9680   20.5980   37.1130 C.ar  102  PHE102     -0.0000
     36  N          6.1940   14.1930   40.6270 N.3   106  TYR106     -0.1241
     37  CA         6.5410   13.5380   41.9080 C.3   106  TYR106      0.1605
     38  C          5.4090   12.6480   42.4730 C.2   106  TYR106      0.2264
     39  O          5.6990   11.5560   42.9670 O.2   106  TYR106     -0.2867
     40  CB         7.1230   14.5110   42.9460 C.3   106  TYR106      0.0534
     41  CG         8.5960   14.7290   42.6640 C.ar  106  TYR106     -0.0201
     42  CD1        9.5370   13.7490   43.0190 C.ar  106  TYR106     -0.0009
     43  CD2        9.0430   15.8450   41.9340 C.ar  106  TYR106     -0.0009
     44  CE1       10.8730   13.8970   42.6940 C.ar  106  TYR106      0.0417
     45  CE2       10.4010   16.0170   41.6310 C.ar  106  TYR106      0.0417
     46  CZ        11.3050   15.0250   42.0000 C.ar  106  TYR106      0.1957
     47  OH        12.6510   15.1680   41.7100 O.3   106  TYR106     -0.2866
     48  N         15.5910    9.2580   53.5590 N.3   127  PHE127     -0.1241
     49  CA        15.7800    9.8040   52.2140 C.3   127  PHE127      0.1605
     50  C         17.1070   10.5540   52.1840 C.2   127  PHE127      0.2264
     51  O         17.3050   11.5510   52.9100 O.2   127  PHE127     -0.2867
     52  CB        14.6110   10.7330   51.8440 C.3   127  PHE127      0.0534
     53  CG        14.6920   11.2630   50.4080 C.ar  127  PHE127     -0.0203
     54  CD1       14.0930   10.5500   49.3690 C.ar  127  PHE127     -0.0042
     55  CD2       15.3890   12.4270   50.1220 C.ar  127  PHE127     -0.0042
     56  CE1       14.1530   11.0090   48.0450 C.ar  127  PHE127     -0.0003
     57  CE2       15.4820   12.9080   48.7530 C.ar  127  PHE127     -0.0003
     58  CZ        14.9040   12.1730   47.7460 C.ar  127  PHE127     -0.0000
     59  N         19.6700   12.9660   50.6740 N.3   129  GLY129     -0.1210
     60  CA        19.8750   14.1100   49.7530 C.3   129  GLY129      0.1956
     61  C         18.6330   14.9790   49.6100 C.2   129  GLY129      0.2612
     62  O         18.1350   15.1690   48.4910 O.2   129  GLY129     -0.2717
     63  N         18.0970   15.4680   50.7350 N.am  130  GLY130     -0.1956
     64  CA        16.8190   16.2010   50.7450 C.3   130  GLY130      0.1869
     65  C         16.7890   17.4740   49.8900 C.2   130  GLY130      0.2309
     66  O         15.7820   17.7920   49.2530 O.2   130  GLY130     -0.2863
     67  N         14.0630   21.7990   49.2310 N.3   133  LEU133     -0.1231
     68  CA        12.6730   21.4340   49.2580 C.3   133  LEU133      0.1678
     69  C         12.5990   19.9070   49.3220 C.2   133  LEU133      0.2434
     70  O         12.7320   19.2560   48.2960 O.2   133  LEU133     -0.2733
     71  CB        11.9400   21.9400   48.0040 C.3   133  LEU133      0.0284
     72  CG        10.4090   21.8240   48.0430 C.3   133  LEU133      0.0019
     73  CD1        9.8200   23.0440   48.8480 C.3   133  LEU133      0.0001
     74  CD2        9.8060   21.7750   46.6330 C.3   133  LEU133      0.0001
     75  N         12.3930   19.3470   50.5210 N.am  134  PRO134     -0.2718
     76  CA        12.4800   17.8800   50.6510 C.3   134  PRO134      0.1535
     77  C         11.0980   17.2670   50.2560 C.2   134  PRO134      0.2598
     78  O         10.3840   16.6710   51.0720 O.2   134  PRO134     -0.2715
     79  CB        12.8960   17.7000   52.1170 C.3   134  PRO134      0.0310
     80  CG        12.1980   18.8690   52.8380 C.3   134  PRO134      0.0237
     81  CD        12.1020   20.0130   51.7990 C.3   134  PRO134      0.0939
     82  N         10.7220   17.4550   48.9860 N.am  135  LEU135     -0.1964
     83  CA         9.3860   17.0860   48.5270 C.3   135  LEU135      0.1728
     84  C          9.0860   15.5850   48.6730 C.2   135  LEU135      0.2616
     85  O          7.9800   15.1880   49.1260 O.2   135  LEU135     -0.2715
     86  CB         9.1790   17.5300   47.0530 C.3   135  LEU135      0.0311
     87  CG         7.8120   17.1420   46.4690 C.3   135  LEU135      0.0022
     88  CD1        6.6300   17.6930   47.2990 C.3   135  LEU135      0.0001
     89  CD2        7.7050   17.6060   45.0110 C.3   135  LEU135      0.0001
     90  N         10.0450   14.7450   48.3180 N.am  136  THR136     -0.1951
     91  CA         9.8000   13.2850   48.4780 C.3   136  THR136      0.1897
     92  C          9.5740   12.9580   49.9290 C.2   136  THR136      0.2313
     93  O          8.6480   12.1780   50.2540 O.2   136  THR136     -0.2863
     94  CB        10.9760   12.4320   47.8900 C.3   136  THR136      0.1794
     95  OG1       10.9850   12.6380   46.4620 O.3   136  THR136     -0.2208
     96  CG2       10.7510   10.9330   48.1720 C.3   136  THR136      0.0378
     97  N         20.0860   13.2570   42.9340 N.3   196  LEU196     -0.1245
     98  CA        21.2410   14.1700   43.1750 C.3   196  LEU196      0.1561
     99  C         22.2610   13.7730   44.2530 C.2   196  LEU196      0.2260
    100  O         23.2470   14.5140   44.4560 O.2   196  LEU196     -0.2867
    101  CB        20.6930   15.5580   43.5510 C.3   196  LEU196      0.0270
    102  CG        20.4430   16.6280   42.4700 C.3   196  LEU196      0.0019
    103  CD1       20.3150   16.1430   41.0740 C.3   196  LEU196      0.0001
    104  CD2       19.2550   17.5300   42.8470 C.3   196  LEU196      0.0001
    105  N         17.2210    6.4640   42.3770 N.3   220  ARG220     -0.1245
    106  CA        16.6900    7.1050   41.1880 C.3   220  ARG220      0.1563
    107  C         17.8300    7.3580   40.2040 C.2   220  ARG220      0.2260
    108  O         18.9110    7.8060   40.5910 O.2   220  ARG220     -0.2867
    109  CB        16.0160    8.3910   41.5640 C.3   220  ARG220      0.0307
    110  CG        14.7370    8.1300   42.3560 C.3   220  ARG220      0.0489
    111  CD        14.3170    9.3900   43.0370 C.3   220  ARG220      0.2205
    112  NE        12.9710    9.2260   43.6220 N.pl3 220  ARG220     -0.0865
    113  CZ        12.3590   10.1600   44.3450 C.cat 220  ARG220      0.5346
    114  NH1       12.9640   11.3250   44.5890 N.pl3 220  ARG220      0.1354
    115  NH2       11.1320    9.9190   44.8240 N.pl3 220  ARG220      0.1354
@<TRIPOS>BOND
     1    33    35   ar
     2    33    31   ar
     3    35    34   ar
     4    31    30   ar
     5     1     2    1
     6    34    32   ar
     7    30    32   ar
     8    30    29    1
     9     2     3    1
    10    26    25    1
    11    26    29    1
    12    26    27    1
    13    27    28    2
    14   107   108    2
    15   107   106    1
    16     3     4    2
    17    36    37    1
    18    17    16    2
    19    16    15    1
    20   103   102    1
    21   106   109    1
    22   106   105    1
    23   109   110    1
    24    45    43   ar
    25    45    46   ar
    26    47    46    1
    27    37    38    1
    28    37    40    1
    29    43    41   ar
    30    46    44   ar
    31   110   111    1
    32    15    14    1
    33    15    18    1
    34   102   104    1
    35   102   101    1
    36    38    39    2
    37    22    24   ar
    38    22    20   ar
    39    41    40    1
    40    41    42   ar
    41    44    42   ar
    42    24    23   ar
    43    20    19   ar
    44    97    98    1
    45    23    21   ar
    46   111   112    1
    47    19    21   ar
    48    19    18    1
    49    98   101    1
    50    98    99    1
    51     5     6    1
    52   112   113    2
    53    99   100    2
    54   113   114    1
    55   113   115    1
    56    10     9    1
    57    10    11    1
    58    12    11    2
    59     6     9    1
    60     6     7    1
    61    89    87    1
    62    11    13   am
    63     7     8    2
    64    95    94    1
    65    87    86    1
    66    87    88    1
    67    74    72    1
    68    86    83    1
    69    58    56   ar
    70    58    57   ar
    71    94    96    1
    72    94    91    1
    73    71    72    1
    74    71    68    1
    75    72    73    1
    76    56    54   ar
    77    70    69    2
    78    90    91    1
    79    90    84   am
    80    91    92    1
    81    62    61    2
    82    83    84    1
    83    83    82    1
    84    84    85    2
    85    57    55   ar
    86    82    77   am
    87    67    68    1
    88    66    65    2
    89    68    69    1
    90    69    75   am
    91    54    53   ar
    92    61    60    1
    93    61    63   am
    94    60    59    1
    95    65    64    1
    96    92    93    2
    97    55    53   ar
    98    77    76    1
    99    77    78    2
   100    53    52    1
   101    75    76    1
   102    75    81    1
   103    76    79    1
   104    63    64    1
   105    81    80    1
   106    52    49    1
   107    79    80    1
   108    50    49    1
   109    50    51    2
   110    49    48    1
