@<TRIPOS>MOLECULE
tmp/3fpiA00.pdb
 84 82 0 0 0
SMALL
GASTEIGER

@<TRIPOS>ATOM
      1  N         24.1160   12.1370   17.6530 N.3     9  ASP9       -0.1225
      2  CA        25.4060   11.8400   18.2170 C.3     9  ASP9        0.1805
      3  C         26.3320   13.0610   18.3100 C.2     9  ASP9        0.2598
      4  O         26.2910   13.9490   17.4650 O.2     9  ASP9       -0.2718
      5  CB        26.0230   10.6850   17.4420 C.3     9  ASP9        0.1424
      6  CG        27.2460   10.0960   18.1550 C.2     9  ASP9        0.3668
      7  OD1       28.3280    9.9520   17.5130 O.co2   9  ASP9       -0.2456
      8  OD2       27.1550    9.8180   19.3850 O.co2   9  ASP9       -0.2456
      9  N         27.1410   13.1160   19.3640 N.am   10  VAL10      -0.1966
     10  CA        28.0530   14.2280   19.5950 C.3    10  VAL10       0.1727
     11  C         29.4770   13.7370   19.8730 C.2    10  VAL10       0.2616
     12  O         29.6790   12.7210   20.5230 O.2    10  VAL10      -0.2715
     13  CB        27.5700   15.0580   20.7730 C.3    10  VAL10       0.0290
     14  CG1       28.5600   16.1240   21.1340 C.3    10  VAL10       0.0023
     15  CG2       26.2560   15.6990   20.4400 C.3    10  VAL10       0.0023
     16  N         30.4720   14.4490   19.3540 N.am   11  HIS11      -0.1973
     17  CA        31.8630   14.2290   19.7640 C.3    11  HIS11       0.1656
     18  C         32.6050   15.4950   20.0220 C.2    11  HIS11       0.2291
     19  O         32.3990   16.5010   19.3570 O.2    11  HIS11      -0.2864
     20  CB        32.6300   13.3620   18.7790 C.3    11  HIS11       0.0771
     21  CG        32.2280   11.9310   18.8500 C.ar   11  HIS11       0.0820
     22  ND1       32.4090   11.1780   19.9910 N.ar   11  HIS11      -0.2267
     23  CD2       31.5970   11.1290   17.9550 C.ar   11  HIS11       0.1154
     24  CE1       31.9200    9.9670   19.7870 C.ar   11  HIS11       0.1986
     25  NE2       31.4270    9.9080   18.5590 N.ar   11  HIS11      -0.2212
     26  N         37.0440    9.7560   20.6810 N.3    36  ALA36      -0.1231
     27  CA        36.0200    8.7040   20.7190 C.3    36  ALA36       0.1694
     28  C         36.6820    7.3480   20.8970 C.2    36  ALA36       0.2592
     29  O         37.8840    7.2260   20.6450 O.2    36  ALA36      -0.2718
     30  CB        35.1990    8.7290   19.4590 C.3    36  ALA36       0.0304
     31  N         35.9210    6.3360   21.3380 N.am   37  HIS37      -0.1962
     32  CA        36.4650    4.9670   21.4390 C.3    37  HIS37       0.1787
     33  C         36.8360    4.4410   20.0360 C.2    37  HIS37       0.2620
     34  O         37.9720    4.0020   19.8430 O.2    37  HIS37      -0.2715
     35  CB        35.5290    4.0080   22.2090 C.3    37  HIS37       0.0785
     36  CG        36.1690    2.7040   22.6090 C.ar   37  HIS37       0.0821
     37  ND1       35.6560    1.4710   22.2370 N.ar   37  HIS37      -0.2267
     38  CD2       37.2760    2.4380   23.3540 C.ar   37  HIS37       0.1154
     39  CE1       36.4210    0.5080   22.7310 C.ar   37  HIS37       0.1986
     40  NE2       37.4130    1.0670   23.4090 N.ar   37  HIS37      -0.2212
     41  N         35.9140    4.5340   19.0630 N.am   38  SER38      -0.1950
     42  CA        36.1930    4.1570   17.6620 C.3    38  SER38       0.1924
     43  C         36.7110    5.3820   16.8960 C.2    38  SER38       0.2314
     44  O         37.0780    6.3830   17.5260 O.2    38  SER38      -0.2863
     45  CB        34.9340    3.6150   16.9900 C.3    38  SER38       0.2116
     46  OG        34.0220    4.6810   16.7710 O.3    38  SER38      -0.2180
     47  N         27.7610    7.3460   13.2020 N.3    45  HIS45      -0.1241
     48  CA        27.0950    6.9280   14.4370 C.3    45  HIS45       0.1621
     49  C         25.6260    7.2850   14.4590 C.2    45  HIS45       0.2264
     50  O         24.7730    6.3940   14.6740 O.2    45  HIS45      -0.2867
     51  CB        27.7960    7.4050   15.6790 C.3    45  HIS45       0.0745
     52  CG        29.1900    6.8920   15.7750 C.ar   45  HIS45       0.0817
     53  ND1       30.1560    7.4710   16.5780 N.ar   45  HIS45      -0.2268
     54  CD2       29.8100    5.8850   15.1050 C.ar   45  HIS45       0.1154
     55  CE1       31.3000    6.8220   16.4200 C.ar   45  HIS45       0.1986
     56  NE2       31.1190    5.8590   15.5260 N.ar   45  HIS45      -0.2212
     57  N         20.6070    0.5910   19.9720 N.3    59  ASP59      -0.1225
     58  CA        21.5680    1.5480   19.4140 C.3    59  ASP59       0.1805
     59  C         22.9360    0.8660   19.2680 C.2    59  ASP59       0.2598
     60  O         23.0590   -0.3400   19.4860 O.2    59  ASP59      -0.2718
     61  CB        21.6790    2.7750   20.3110 C.3    59  ASP59       0.1424
     62  CG        22.0830    2.4160   21.7420 C.2    59  ASP59       0.3668
     63  OD1       22.8050    1.4090   21.9160 O.co2  59  ASP59      -0.2456
     64  OD2       21.6860    3.1250   22.7020 O.co2  59  ASP59      -0.2456
     65  N         23.9570    1.6360   18.8970 N.am   60  ILE60      -0.1966
     66  CA        25.2860    1.0910   18.6500 C.3    60  ILE60       0.1727
     67  C         25.8810    0.4570   19.9130 C.2    60  ILE60       0.2616
     68  O         26.5070   -0.5980   19.8460 O.2    60  ILE60      -0.2715
     69  CB        26.2450    2.1640   18.1950 C.3    60  ILE60       0.0290
     70  CG1       25.9970    2.5390   16.7650 C.3    60  ILE60       0.0022
     71  CG2       27.6470    1.6180   18.1780 C.3    60  ILE60       0.0023
     72  CD1       27.1590    3.3610   16.1920 C.3    60  ILE60       0.0001
     73  N         25.7010    1.1200   21.0540 N.am   61  GLY61      -0.1955
     74  CA        26.1290    0.5920   22.3420 C.3    61  GLY61       0.1869
     75  C         25.5800   -0.7840   22.6390 C.2    61  GLY61       0.2309
     76  O         26.2640   -1.5880   23.2460 O.2    61  GLY61      -0.2863
     77  N         30.8490   -0.4030   24.2720 N.3    66  ASP66      -0.1239
     78  CA        31.9010    0.6190   24.3780 C.3    66  ASP66       0.1674
     79  C         33.0540    0.1590   25.3040 C.2    66  ASP66       0.2266
     80  O         34.2280    0.5110   25.0970 O.2    66  ASP66      -0.2867
     81  CB        31.2360    1.9020   24.9040 C.3    66  ASP66       0.1410
     82  CG        32.1760    3.0800   24.9620 C.2    66  ASP66       0.3668
     83  OD1       31.9380    3.9420   25.8430 O.co2  66  ASP66      -0.2456
     84  OD2       33.1260    3.1480   24.1360 O.co2  66  ASP66      -0.2456
@<TRIPOS>BOND
     1    47    48    1
     2    48    49    1
     3    48    51    1
     4    49    50    2
     5    54    56   ar
     6    54    52   ar
     7    56    55   ar
     8    51    52    1
     9    52    53   ar
    10    72    70    1
    11    55    53   ar
    12    70    69    1
    13    46    45    1
    14    43    44    2
    15    43    42    1
    16    45    42    1
    17     5     6    1
    18     5     2    1
    19     4     3    2
    20     7     6   ar
    21     1     2    1
    22    42    41    1
    23    23    25   ar
    24    23    21   ar
    25     6     8   ar
    26    71    69    1
    27    69    66    1
    28     2     3    1
    29     3     9   am
    30    25    24   ar
    31    66    65    1
    32    66    67    1
    33    20    21    1
    34    20    17    1
    35    21    22   ar
    36    65    59   am
    37    41    33   am
    38    59    58    1
    39    59    60    2
    40    16    17    1
    41    16    11   am
    42    19    18    2
    43     9    10    1
    44    58    57    1
    45    58    61    1
    46    30    27    1
    47    10    11    1
    48    10    13    1
    49    17    18    1
    50    24    22   ar
    51    34    33    2
    52    68    67    2
    53    11    12    2
    54    67    73   am
    55    33    32    1
    56    61    62    1
    57    15    13    1
    58    29    28    2
    59    26    27    1
    60    27    28    1
    61    13    14    1
    62    28    31   am
    63    73    74    1
    64    31    32    1
    65    32    35    1
    66    62    63   ar
    67    62    64   ar
    68    35    36    1
    69    37    36   ar
    70    37    39   ar
    71    74    75    1
    72    36    38   ar
    73    75    76    2
    74    39    40   ar
    75    38    40   ar
    76    84    82   ar
    77    77    78    1
    78    78    81    1
    79    78    79    1
    80    81    82    1
    81    82    83   ar
    82    80    79    2
