@<TRIPOS>MOLECULE
tmp/3fpjB00.pdb
 212 203 0 0 0
SMALL
GASTEIGER

@<TRIPOS>ATOM
      1  N        -38.4220   -0.6400   26.7330 N.3    77  MET77      -0.1245
      2  CA       -38.7270   -0.4260   28.1360 C.3    77  MET77       0.1570
      3  C        -40.1690   -0.8700   28.4540 C.2    77  MET77       0.2261
      4  O        -40.3710   -1.6150   29.3970 O.2    77  MET77      -0.2867
      5  CB       -38.4310    1.0030   28.5770 C.3    77  MET77       0.0387
      6  CG       -36.9320    1.3720   28.6190 C.3    77  MET77       0.0595
      7  SD       -35.8980    0.4850   29.8250 S.3    77  MET77      -0.1393
      8  CE       -37.1680    0.1210   31.1070 C.3    77  MET77       0.0692
      9  N        -40.3030   -4.6410   28.3670 N.3    80  GLN80      -0.1245
     10  CA       -39.7370   -5.1540   29.6120 C.3    80  GLN80       0.1566
     11  C        -40.7390   -5.1080   30.7960 C.2    80  GLN80       0.2260
     12  O        -40.7890   -6.1070   31.5360 O.2    80  GLN80      -0.2867
     13  CB       -38.4860   -4.4370   30.0300 C.3    80  GLN80       0.0367
     14  CG       -37.2270   -4.7820   29.2730 C.3    80  GLN80       0.0905
     15  CD       -35.9820   -4.1920   29.9670 C.2    80  GLN80       0.2608
     16  OE1      -35.6120   -4.6020   31.0730 O.2    80  GLN80      -0.2717
     17  NE2      -35.3700   -3.1920   29.3260 N.am   80  GLN80      -0.0878
     18  N        -30.8430  -12.3460   23.6210 N.3   106  TYR106     -0.1241
     19  CA       -30.0580  -12.3150   24.8390 C.3   106  TYR106      0.1605
     20  C        -29.2500  -13.5750   25.0970 C.2   106  TYR106      0.2264
     21  O        -28.1540  -13.4490   25.6060 O.2   106  TYR106     -0.2867
     22  CB       -30.9510  -12.2070   26.0370 C.3   106  TYR106      0.0534
     23  CG       -31.4280  -10.8340   26.3450 C.ar  106  TYR106     -0.0201
     24  CD1      -31.0240  -10.2150   27.5410 C.ar  106  TYR106     -0.0009
     25  CD2      -32.2450  -10.1330   25.4530 C.ar  106  TYR106     -0.0009
     26  CE1      -31.4840   -8.9710   27.9040 C.ar  106  TYR106      0.0417
     27  CE2      -32.7180   -8.8360   25.8150 C.ar  106  TYR106      0.0417
     28  CZ       -32.3050   -8.2530   27.0340 C.ar  106  TYR106      0.1957
     29  OH       -32.7820   -6.9720   27.3930 O.3   106  TYR106     -0.2866
     30  N        -23.8040   -5.9500   37.0640 N.3   127  PHE127     -0.1227
     31  CA       -24.4670   -5.4370   35.8380 C.3   127  PHE127      0.1736
     32  C        -25.0880   -4.1020   36.0760 C.2   127  PHE127      0.2595
     33  O        -26.0310   -4.0110   36.8710 O.2   127  PHE127     -0.2718
     34  CB       -25.5850   -6.4420   35.3750 C.3   127  PHE127      0.0547
     35  CG       -26.2210   -6.0810   34.0390 C.ar  127  PHE127     -0.0202
     36  CD1      -25.6080   -6.4750   32.8350 C.ar  127  PHE127     -0.0042
     37  CD2      -27.4000   -5.3380   33.9730 C.ar  127  PHE127     -0.0042
     38  CE1      -26.1700   -6.1240   31.5900 C.ar  127  PHE127     -0.0003
     39  CE2      -27.9810   -4.9770   32.7010 C.ar  127  PHE127     -0.0003
     40  CZ       -27.4020   -5.3520   31.5530 C.ar  127  PHE127     -0.0000
     41  N        -24.6120   -3.0520   35.3660 N.am  128  ILE128     -0.1966
     42  CA       -25.1610   -1.7690   35.5570 C.3   128  ILE128      0.1727
     43  C        -26.3040   -1.5160   34.5710 C.2   128  ILE128      0.2617
     44  O        -26.1420   -1.6040   33.3280 O.2   128  ILE128     -0.2715
     45  CB       -24.0460   -0.6660   35.3280 C.3   128  ILE128      0.0290
     46  CG1      -22.8610   -0.8950   36.3070 C.3   128  ILE128      0.0022
     47  CG2      -24.7190    0.7050   35.3400 C.3   128  ILE128      0.0023
     48  CD1      -21.8360    0.1740   36.3360 C.3   128  ILE128      0.0001
     49  N        -27.4640   -1.2560   35.1490 N.am  129  GLY129     -0.1940
     50  CA       -28.6460   -0.8600   34.4090 C.3   129  GLY129      0.2014
     51  C        -29.6090   -2.0180   34.3000 C.2   129  GLY129      0.2639
     52  O        -29.7890   -2.5710   33.2230 O.2   129  GLY129     -0.2714
     53  N        -30.2640   -2.3910   35.4130 N.am  130  GLY130     -0.1939
     54  CA       -30.9290   -3.6740   35.4350 C.3   130  GLY130      0.2014
     55  C        -32.2650   -3.7080   34.6790 C.2   130  GLY130      0.2639
     56  O        -32.5620   -4.6690   33.9510 O.2   130  GLY130     -0.2714
     57  N        -33.0330   -2.6360   34.8010 N.am  131  GLY131     -0.1954
     58  CA       -34.3760   -2.5810   34.1520 C.3   131  GLY131      0.1869
     59  C        -35.3730   -3.4560   34.9340 C.2   131  GLY131      0.2309
     60  O        -35.0120   -4.0880   35.8860 O.2   131  GLY131     -0.2863
     61  N        -37.0750   -6.0000   33.7990 N.3   133  LEU133     -0.1231
     62  CA       -36.8570   -7.3920   33.4660 C.3   133  LEU133      0.1678
     63  C        -35.3500   -7.6550   33.3810 C.2   133  LEU133      0.2434
     64  O        -34.7080   -7.4560   32.2890 O.2   133  LEU133     -0.2733
     65  CB       -37.5270   -7.7740   32.1320 C.3   133  LEU133      0.0284
     66  CG       -37.7020   -9.2610   31.9290 C.3   133  LEU133      0.0019
     67  CD1      -38.8140   -9.8040   32.8400 C.3   133  LEU133      0.0001
     68  CD2      -38.0090   -9.5350   30.4450 C.3   133  LEU133      0.0001
     69  N        -34.7590   -8.0400   34.5300 N.am  134  PRO134     -0.2718
     70  CA       -33.3040   -8.0680   34.5980 C.3   134  PRO134      0.1535
     71  C        -32.7500   -9.3730   33.9680 C.2   134  PRO134      0.2598
     72  O        -32.0220  -10.1780   34.6800 O.2   134  PRO134     -0.2715
     73  CB       -33.0180   -7.9820   36.1150 C.3   134  PRO134      0.0310
     74  CG       -34.1900   -8.6870   36.7560 C.3   134  PRO134      0.0237
     75  CD       -35.4220   -8.3000   35.8380 C.3   134  PRO134      0.0939
     76  N        -33.1050   -9.5870   32.7040 N.am  135  LEU135     -0.1964
     77  CA       -32.7740  -10.8260   31.9570 C.3   135  LEU135      0.1728
     78  C        -31.2490  -11.1380   31.9510 C.2   135  LEU135      0.2617
     79  O        -30.8150  -12.2720   32.1390 O.2   135  LEU135     -0.2715
     80  CB       -33.3490  -10.7640   30.4980 C.3   135  LEU135      0.0311
     81  CG       -33.8750  -12.1030   29.8930 C.3   135  LEU135      0.0022
     82  CD1      -33.8590  -12.0940   28.4540 C.3   135  LEU135      0.0001
     83  CD2      -33.5210  -13.4980   30.4430 C.3   135  LEU135      0.0001
     84  N        -30.4370  -10.0960   31.7560 N.am  136  THR136     -0.1937
     85  CA       -29.0070  -10.3420   31.6840 C.3   136  THR136      0.2028
     86  C        -28.4850  -10.9010   33.0650 C.2   136  THR136      0.2642
     87  O        -27.7990  -11.9420   33.1530 O.2   136  THR136     -0.2714
     88  CB       -28.1650   -9.1460   31.1710 C.3   136  THR136      0.1808
     89  OG1      -28.5610   -8.8180   29.8380 O.3   136  THR136     -0.2208
     90  CG2      -26.6910   -9.5690   31.1270 C.3   136  THR136      0.0379
     91  N        -28.8570  -10.2370   34.1700 N.am  137  GLY137     -0.1954
     92  CA       -28.3610  -10.7930   35.4570 C.3   137  GLY137      0.1869
     93  C        -28.9670  -12.1570   35.8000 C.2   137  GLY137      0.2309
     94  O        -28.2940  -13.0420   36.4000 O.2   137  GLY137     -0.2863
     95  N        -27.5650   -3.4290   39.2220 N.3   151  VAL151     -0.1231
     96  CA       -27.7810   -2.0530   39.7190 C.3   151  VAL151      0.1692
     97  C        -28.8450   -1.3800   38.9220 C.2   151  VAL151      0.2592
     98  O        -28.8260   -1.4730   37.6810 O.2   151  VAL151     -0.2718
     99  CB       -26.4590   -1.2590   39.5980 C.3   151  VAL151      0.0266
    100  CG1      -26.5670    0.1320   40.1970 C.3   151  VAL151      0.0020
    101  CG2      -25.3080   -2.0320   40.2890 C.3   151  VAL151      0.0020
    102  N        -29.7800   -0.7120   39.5920 N.am  152  GLU152     -0.1966
    103  CA       -30.9380   -0.0770   38.9050 C.3   152  GLU152      0.1733
    104  C        -31.1770    1.2010   39.6790 C.2   152  GLU152      0.2616
    105  O        -31.3860    1.1400   40.8610 O.2   152  GLU152     -0.2715
    106  CB       -32.1970   -0.9290   39.0290 C.3   152  GLU152      0.0429
    107  CG       -33.4780   -0.2790   38.5600 C.3   152  GLU152      0.1163
    108  CD       -33.3620    0.3600   37.1420 C.2   152  GLU152      0.3649
    109  OE1      -32.9680   -0.3600   36.1630 O.co2 152  GLU152     -0.2457
    110  OE2      -33.6480    1.5290   37.0550 O.co2 152  GLU152     -0.2457
    111  N        -31.1270    2.3330   38.9930 N.am  153  ILE153     -0.1963
    112  CA       -31.2130    3.6550   39.6330 C.3   153  ILE153      0.1727
    113  C        -32.6280    4.0230   40.1100 C.2   153  ILE153      0.2616
    114  O        -32.7620    4.6740   41.1290 O.2   153  ILE153     -0.2715
    115  CB       -30.6430    4.7210   38.6530 C.3   153  ILE153      0.0290
    116  CG1      -30.4190    6.0800   39.3600 C.3   153  ILE153      0.0022
    117  CG2      -31.5770    4.9000   37.5090 C.3   153  ILE153      0.0023
    118  CD1      -29.4730    7.0150   38.4910 C.3   153  ILE153      0.0001
    119  N        -33.6540    3.5330   39.4220 N.am  154  GLU154     -0.1977
    120  CA       -35.0640    3.8280   39.6760 C.3   154  GLU154      0.1602
    121  C        -35.6480    2.8880   40.7350 C.2   154  GLU154      0.2287
    122  O        -35.6790    1.6790   40.5100 O.2   154  GLU154     -0.2864
    123  CB       -35.8510    3.7040   38.3950 C.3   154  GLU154      0.0415
    124  CG       -35.3980    4.7240   37.2920 C.3   154  GLU154      0.1163
    125  CD       -35.5940    6.2210   37.5950 C.2   154  GLU154      0.3649
    126  OE1      -36.3160    6.6210   38.5710 O.co2 154  GLU154     -0.2457
    127  OE2      -34.9520    7.0110   36.8420 O.co2 154  GLU154     -0.2457
    128  N        -38.4630    0.4930   39.8030 N.3   157  ILE157     -0.1245
    129  CA       -38.0050   -0.4540   38.7420 C.3   157  ILE157      0.1561
    130  C        -37.1280   -1.4950   39.4060 C.2   157  ILE157      0.2260
    131  O        -37.2400   -2.7050   39.1360 O.2   157  ILE157     -0.2867
    132  CB       -37.1750    0.2510   37.6960 C.3   157  ILE157      0.0252
    133  CG1      -38.0070    1.3530   37.0240 C.3   157  ILE157      0.0019
    134  CG2      -36.5900   -0.7300   36.7290 C.3   157  ILE157      0.0019
    135  CD1      -39.0960    0.8150   36.4070 C.3   157  ILE157      0.0001
    136  N        -29.4020    2.1850   43.1270 N.3   178  GLY178     -0.1210
    137  CA       -28.4290    3.2230   43.1780 C.3   178  GLY178      0.1956
    138  C        -27.9730    3.4290   41.7660 C.2   178  GLY178      0.2612
    139  O        -28.4900    2.7730   40.8210 O.2   178  GLY178     -0.2717
    140  N        -27.0120    4.3390   41.6240 N.am  179  ASP179     -0.1959
    141  CA       -26.3440    4.6180   40.3610 C.3   179  ASP179      0.1840
    142  C        -25.0460    3.8290   40.3100 C.2   179  ASP179      0.2621
    143  O        -24.7790    3.0390   41.2050 O.2   179  ASP179     -0.2715
    144  CB       -26.2480    6.1210   40.1720 C.3   179  ASP179      0.1450
    145  CG       -25.2730    6.7960   41.1470 C.2   179  ASP179      0.3671
    146  OD1      -24.3380    6.1130   41.6070 O.co2 179  ASP179     -0.2456
    147  OD2      -25.3980    8.0180   41.3760 O.co2 179  ASP179     -0.2456
    148  N        -24.2370    4.0330   39.2630 N.am  180  GLU180     -0.1977
    149  CA       -23.0320    3.2740   39.0340 C.3   180  GLU180      0.1602
    150  C        -21.9890    3.4670   40.1340 C.2   180  GLU180      0.2287
    151  O        -21.1130    2.5960   40.2980 O.2   180  GLU180     -0.2864
    152  CB       -22.4150    3.6290   37.6290 C.3   180  GLU180      0.0415
    153  CG       -21.7920    5.0390   37.6360 C.3   180  GLU180      0.1163
    154  CD       -22.7640    6.0910   37.1250 C.2   180  GLU180      0.3649
    155  OE1      -23.9670    5.7660   36.9940 O.co2 180  GLU180     -0.2457
    156  OE2      -22.3110    7.1880   36.7900 O.co2 180  GLU180     -0.2457
    157  N        -25.0290   -2.2090   30.6410 N.3   194  ALA194     -0.1245
    158  CA       -26.1820   -2.2380   29.7610 C.3   194  ALA194      0.1562
    159  C        -25.9760   -1.2120   28.6250 C.2   194  ALA194      0.2260
    160  O        -25.4760   -0.0850   28.8270 O.2   194  ALA194     -0.2867
    161  CB       -27.4780   -1.9420   30.5360 C.3   194  ALA194      0.0290
    162  N        -28.2840    0.4610   27.4750 N.3   196  LEU196     -0.1231
    163  CA       -29.1380    1.6040   27.8220 C.3   196  LEU196      0.1693
    164  C        -28.6980    2.3910   29.1010 C.2   196  LEU196      0.2592
    165  O        -29.4220    3.3120   29.4840 O.2   196  LEU196     -0.2718
    166  CB       -30.6170    1.1910   27.9790 C.3   196  LEU196      0.0284
    167  CG       -31.6170    1.2840   26.7910 C.3   196  LEU196      0.0019
    168  CD1      -31.1090    0.7710   25.4610 C.3   196  LEU196      0.0001
    169  CD2      -32.8780    0.5500   27.1850 C.3   196  LEU196      0.0001
    170  N        -27.5810    1.9880   29.7620 N.am  197  ALA197     -0.1966
    171  CA       -27.0740    2.6890   30.9670 C.3   197  ALA197      0.1728
    172  C        -26.5640    4.0380   30.5200 C.2   197  ALA197      0.2616
    173  O        -25.7940    4.1050   29.5480 O.2   197  ALA197     -0.2715
    174  CB       -25.8980    1.9250   31.6360 C.3   197  ALA197      0.0334
    175  N        -27.0200    5.0980   31.1990 N.am  198  GLU198     -0.1977
    176  CA       -26.8090    6.4790   30.7570 C.3   198  GLU198      0.1602
    177  C        -26.5430    7.3590   32.0010 C.2   198  GLU198      0.2287
    178  O        -26.9320    6.9870   33.1210 O.2   198  GLU198     -0.2864
    179  CB       -27.9980    7.0580   29.9540 C.3   198  GLU198      0.0415
    180  CG       -28.2140    6.4610   28.5640 C.3   198  GLU198      0.1163
    181  CD       -27.0860    6.7280   27.5630 C.2   198  GLU198      0.3649
    182  OE1      -26.0950    7.4230   27.9270 O.co2 198  GLU198     -0.2457
    183  OE2      -27.1420    6.2520   26.3880 O.co2 198  GLU198     -0.2457
    184  N        -20.2970   10.1710   32.1000 N.3   202  ARG202     -0.1231
    185  CA       -20.3880    9.9840   33.5630 C.3   202  ARG202      0.1694
    186  C        -20.1830    8.4910   33.9880 C.2   202  ARG202      0.2591
    187  O        -19.3670    8.1720   34.8700 O.2   202  ARG202     -0.2718
    188  CB       -21.7790   10.4750   34.0630 C.3   202  ARG202      0.0321
    189  CG       -21.8520   10.6390   35.5750 C.3   202  ARG202      0.0489
    190  CD       -23.2560   10.7580   36.0440 C.3   202  ARG202      0.2205
    191  NE       -23.9130    9.4520   36.3180 N.pl3 202  ARG202     -0.0865
    192  CZ       -25.2200    9.3240   36.4650 C.cat 202  ARG202      0.5346
    193  NH1      -26.0230   10.3910   36.2820 N.pl3 202  ARG202      0.1354
    194  NH2      -25.7310    8.1480   36.7600 N.pl3 202  ARG202      0.1354
    195  N        -20.9160    7.5640   33.3610 N.am  203  VAL203     -0.1980
    196  CA       -20.8570    6.1740   33.8140 C.3   203  VAL203      0.1595
    197  C        -19.3950    5.7280   33.7820 C.2   203  VAL203      0.2287
    198  O        -18.8860    5.1710   34.7540 O.2   203  VAL203     -0.2864
    199  CB       -21.7160    5.2250   32.9630 C.3   203  VAL203      0.0276
    200  CG1      -21.2910    3.6640   33.1660 C.3   203  VAL203      0.0022
    201  CG2      -23.2580    5.4370   33.2840 C.3   203  VAL203      0.0022
    202  N        -21.9940   -2.8190   26.1270 N.3   220  ARG220     -0.1245
    203  CA       -22.8180   -3.0700   24.9380 C.3   220  ARG220      0.1563
    204  C        -22.9760   -1.7400   24.2490 C.2   220  ARG220      0.2260
    205  O        -23.1920   -0.6900   24.8780 O.2   220  ARG220     -0.2867
    206  CB       -24.2070   -3.6470   25.3070 C.3   220  ARG220      0.0307
    207  CG       -24.1850   -5.0620   25.6100 C.3   220  ARG220      0.0489
    208  CD       -25.2640   -5.4530   26.5680 C.3   220  ARG220      0.2205
    209  NE       -25.0210   -6.8430   26.9690 N.pl3 220  ARG220     -0.0865
    210  CZ       -25.8370   -7.5870   27.6920 C.cat 220  ARG220      0.5346
    211  NH1      -26.9380   -7.0350   28.1890 N.pl3 220  ARG220      0.1354
    212  NH2      -25.5380   -8.8790   27.9160 N.pl3 220  ARG220      0.1354
@<TRIPOS>BOND
     1    18    19    1
     2   204   205    2
     3   204   203    1
     4    19    20    1
     5    19    22    1
     6   203   206    1
     7   203   202    1
     8    20    21    2
     9   206   207    1
    10    25    27   ar
    11    25    23   ar
    12   168   167    1
    13   207   208    1
    14    27    28   ar
    15    22    23    1
    16    23    24   ar
    17   183   181   ar
    18   208   209    1
    19     1     2    1
    20   167   169    1
    21   167   166    1
    22   209   210    2
    23    28    29    1
    24    28    26   ar
    25   162   163    1
    26    24    26   ar
    27   181   182   ar
    28   181   180    1
    29   210   212    1
    30   210   211    1
    31   163   166    1
    32   163   164    1
    33     2     3    1
    34     2     5    1
    35     9    10    1
    36     3     4    2
    37    82    81    1
    38   180   179    1
    39     5     6    1
    40     6     7    1
    41   159   160    2
    42   159   158    1
    43   164   165    2
    44   164   170   am
    45    14    15    1
    46    14    13    1
    47    17    15   am
    48   173   172    2
    49    10    13    1
    50    10    11    1
    51   158   161    1
    52   158   157    1
    53   170   171    1
    54     7     8    1
    55    89    88    1
    56    81    83    1
    57    81    80    1
    58   179   176    1
    59    15    16    2
    60    68    66    1
    61    80    77    1
    62   172   171    1
    63   172   175   am
    64   176   175    1
    65   176   177    1
    66    11    12    2
    67   171   174    1
    68    90    88    1
    69    88    85    1
    70    40    38   ar
    71    40    39   ar
    72    38    36   ar
    73    85    84    1
    74    85    86    1
    75    84    78   am
    76    66    65    1
    77    66    67    1
    78    78    77    1
    79    78    79    2
    80    77    76    1
    81   177   178    2
    82   184   185    1
    83    65    62    1
    84    64    63    2
    85    39    37   ar
    86    76    71   am
    87    36    35   ar
    88   199   200    1
    89   199   201    1
    90   199   196    1
    91    86    87    2
    92    86    91   am
    93    52    51    2
    94    44    43    2
    95   195   196    1
    96   195   186   am
    97    63    62    1
    98    63    69   am
    99    62    61    1
   100   185   186    1
   101   185   188    1
   102   197   196    1
   103   197   198    2
   104    56    55    2
   105    71    70    1
   106    71    72    2
   107    37    35   ar
   108   186   187    2
   109    35    34    1
   110   188   189    1
   111    58    57    1
   112    58    59    1
   113    91    92    1
   114    51    50    1
   115    51    53   am
   116    50    49    1
   117    69    70    1
   118    69    75    1
   119    43    49   am
   120    43    42    1
   121    70    73    1
   122    55    57   am
   123    55    54    1
   124    59    60    2
   125    45    47    1
   126    45    42    1
   127    45    46    1
   128    41    42    1
   129    41    32   am
   130    34    31    1
   131    53    54    1
   132    92    93    1
   133   189   190    1
   134    93    94    2
   135    31    32    1
   136    31    30    1
   137    75    74    1
   138   190   191    1
   139    32    33    2
   140    73    74    1
   141   109   108   ar
   142   193   192    1
   143    46    48    1
   144   191   192    2
   145   135   133    1
   146   192   194    1
   147   134   132    1
   148   156   154   ar
   149   127   125   ar
   150   155   154   ar
   151   133   132    1
   152   110   108   ar
   153   154   153    1
   154   108   107    1
   155   124   125    1
   156   124   123    1
   157   117   115    1
   158   125   126   ar
   159   152   153    1
   160   152   149    1
   161    98    97    2
   162   132   129    1
   163   123   120    1
   164   118   116    1
   165   107   106    1
   166   115   116    1
   167   115   112    1
   168   129   130    1
   169   129   128    1
   170   103   106    1
   171   103   102    1
   172   103   104    1
   173    97   102   am
   174    97    96    1
   175   111   112    1
   176   111   104   am
   177   149   148    1
   178   149   150    1
   179   131   130    2
   180    95    96    1
   181   148   142   am
   182   119   120    1
   183   119   113   am
   184    99    96    1
   185    99   100    1
   186    99   101    1
   187   112   113    1
   188   120   121    1
   189   104   105    2
   190   113   114    2
   191   150   151    2
   192   144   141    1
   193   144   145    1
   194   142   141    1
   195   142   143    2
   196   141   140    1
   197   122   121    2
   198   139   138    2
   199   145   147   ar
   200   145   146   ar
   201   140   138   am
   202   138   137    1
   203   136   137    1
