@<TRIPOS>MOLECULE
tmp/3fpmA00.pdb
 156 145 0 0 0
SMALL
GASTEIGER

@<TRIPOS>ATOM
      1  N        239.4590   77.8390  180.5370 N.3    27  LEU27      -0.1231
      2  CA       239.4820   78.6920  181.7220 C.3    27  LEU27       0.1693
      3  C        238.4230   78.2510  182.7340 C.2    27  LEU27       0.2593
      4  O        238.3550   78.7830  183.8450 O.2    27  LEU27      -0.2718
      5  CB       239.2670   80.1610  181.3390 C.3    27  LEU27       0.0284
      6  CG       240.3120   80.8770  180.4780 C.3    27  LEU27       0.0019
      7  CD1      239.7620   82.2070  179.9850 C.3    27  LEU27       0.0001
      8  CD2      241.6240   81.0830  181.2310 C.3    27  LEU27       0.0001
      9  N        237.5990   77.2820  182.3420 N.am   28  GLY28      -0.1942
     10  CA       236.5310   76.7820  183.1980 C.3    28  GLY28       0.2014
     11  C        235.9020   75.5030  182.6860 C.2    28  GLY28       0.2639
     12  O        235.6890   75.3400  181.4820 O.2    28  GLY28      -0.2714
     13  N        235.6050   74.5960  183.6140 N.am   29  LEU29      -0.1963
     14  CA       234.9550   73.3260  183.2990 C.3    29  LEU29       0.1728
     15  C        233.7540   73.0590  184.1990 C.2    29  LEU29       0.2616
     16  O        233.7410   73.4440  185.3700 O.2    29  LEU29      -0.2715
     17  CB       235.9530   72.1680  183.3950 C.3    29  LEU29       0.0311
     18  CG       236.6990   71.7820  182.1140 C.3    29  LEU29       0.0022
     19  CD1      238.0680   71.1920  182.4310 C.3    29  LEU29       0.0001
     20  CD2      235.8720   70.8210  181.2590 C.3    29  LEU29       0.0001
     21  N        232.7480   72.3990  183.6340 N.am   30  GLY30      -0.1955
     22  CA       231.5440   72.0140  184.3640 C.3    30  GLY30       0.1869
     23  C        230.8480   70.8370  183.7070 C.2    30  GLY30       0.2309
     24  O        231.3300   70.2970  182.7080 O.2    30  GLY30      -0.2863
     25  N        227.7820   71.1250  182.4940 N.3    32  ASN32      -0.1225
     26  CA       226.9510   71.7270  181.4510 C.3    32  ASN32       0.1785
     27  C        227.7140   72.1900  180.2040 C.2    32  ASN32       0.2598
     28  O        227.1170   72.3650  179.1390 O.2    32  ASN32      -0.2718
     29  CB       226.0700   72.8550  182.0220 C.3    32  ASN32       0.1169
     30  CG       226.7260   73.6070  183.1820 C.2    32  ASN32       0.2627
     31  OD1      227.6210   73.0930  183.8600 O.2    32  ASN32      -0.2716
     32  ND2      226.2640   74.8310  183.4200 N.am   32  ASN32      -0.0877
     33  N        229.0250   72.3820  180.3380 N.am   33  GLY33      -0.1942
     34  CA       229.8620   72.7990  179.2120 C.3    33  GLY33       0.2014
     35  C        231.2640   73.2360  179.5940 C.2    33  GLY33       0.2639
     36  O        231.7750   72.8650  180.6540 O.2    33  GLY33      -0.2714
     37  N        231.8830   74.0260  178.7200 N.am   34  LYS34      -0.1963
     38  CA       233.2500   74.5040  178.9250 C.3    34  LYS34       0.1728
     39  C        233.3430   76.0260  178.8160 C.2    34  LYS34       0.2616
     40  O        232.4630   76.6700  178.2380 O.2    34  LYS34      -0.2715
     41  CB       234.1970   73.8380  177.9300 C.3    34  LYS34       0.0311
     42  CG       234.2360   72.3250  178.0290 C.3    34  LYS34       0.0038
     43  CD       235.2370   71.8000  177.0450 C.3    34  LYS34       0.0206
     44  CE       235.1920   70.3500  176.8100 C.3    34  LYS34       0.1093
     45  NZ       236.3970   69.9000  176.1210 N.3    34  LYS34      -0.1314
     46  N        234.4040   76.5910  179.3870 N.am   35  VAL35      -0.1977
     47  CA       234.7140   78.0090  179.2260 C.3    35  VAL35       0.1596
     48  C        236.0850   78.1540  178.5740 C.2    35  VAL35       0.2287
     49  O        237.0990   77.7430  179.1410 O.2    35  VAL35      -0.2864
     50  CB       234.6580   78.7840  180.5650 C.3    35  VAL35       0.0276
     51  CG1      235.1440   80.2180  180.3830 C.3    35  VAL35       0.0022
     52  CG2      233.2440   78.7800  181.1240 C.3    35  VAL35       0.0022
     53  N        236.2570   85.6620  177.3270 N.3    48  ALA48      -0.1245
     54  CA       235.8670   84.3330  177.7840 C.3    48  ALA48       0.1562
     55  C        234.6160   83.8600  177.0520 C.2    48  ALA48       0.2260
     56  O        233.6910   84.6420  176.8180 O.2    48  ALA48      -0.2867
     57  CB       235.6340   84.3390  179.2820 C.3    48  ALA48       0.0290
     58  N        231.6190   81.0260  177.2020 N.3    50  LYS50      -0.1245
     59  CA       230.8660   79.9690  177.8650 C.3    50  LYS50       0.1561
     60  C        229.9250   79.3050  176.8680 C.2    50  LYS50       0.2260
     61  O        229.0570   79.9580  176.2870 O.2    50  LYS50      -0.2867
     62  CB       230.0820   80.5330  179.0510 C.3    50  LYS50       0.0271
     63  CG       229.4820   79.4860  179.9740 C.3    50  LYS50       0.0035
     64  CD       228.9390   80.1300  181.2390 C.3    50  LYS50       0.0206
     65  CE       228.1980   79.1270  182.1030 C.3    50  LYS50       0.1093
     66  NZ       227.6650   79.7530  183.3450 N.3    50  LYS50      -0.1314
     67  N        226.9770   76.6180  176.1430 N.3    52  LEU52      -0.1245
     68  CA       225.8740   75.8730  176.7420 C.3    52  LEU52       0.1561
     69  C        224.9750   75.3030  175.6550 C.2    52  LEU52       0.2260
     70  O        224.8510   75.8960  174.5840 O.2    52  LEU52      -0.2867
     71  CB       225.0440   76.7740  177.6610 C.3    52  LEU52       0.0270
     72  CG       225.7030   77.5310  178.8170 C.3    52  LEU52       0.0019
     73  CD1      224.6910   78.4640  179.4480 C.3    52  LEU52       0.0001
     74  CD2      226.2840   76.5920  179.8640 C.3    52  LEU52       0.0001
     75  N        221.6110   87.1740  183.3440 N.3    65  HIS65      -0.1241
     76  CA       222.9980   87.6240  183.3850 C.3    65  HIS65       0.1621
     77  C        223.1610   88.9220  182.5960 C.2    65  HIS65       0.2264
     78  O        223.7820   89.8690  183.0790 O.2    65  HIS65      -0.2867
     79  CB       223.9240   86.5430  182.8260 C.3    65  HIS65       0.0745
     80  CG       225.3750   86.7670  183.1240 C.ar   65  HIS65       0.0817
     81  ND1      226.2930   85.7390  183.1410 N.ar   65  HIS65      -0.2268
     82  CD2      226.0670   87.8930  183.4180 C.ar   65  HIS65       0.1154
     83  CE1      227.4880   86.2230  183.4260 C.ar   65  HIS65       0.1986
     84  NE2      227.3780   87.5270  183.6010 N.ar   65  HIS65      -0.2212
     85  N        230.5160   89.7860  186.3900 N.3    75  VAL75      -0.1245
     86  CA       231.1560   89.5470  185.0970 C.3    75  VAL75       0.1561
     87  C        230.2060   89.9630  183.9660 C.2    75  VAL75       0.2260
     88  O        229.0490   89.5410  183.9270 O.2    75  VAL75      -0.2867
     89  CB       231.6460   88.0750  184.9470 C.3    75  VAL75       0.0252
     90  CG1      230.4870   87.0910  185.0000 C.3    75  VAL75       0.0019
     91  CG2      232.4470   87.8920  183.6640 C.3    75  VAL75       0.0019
     92  N        232.0960   86.8430  177.3890 N.3    95  MET95      -0.1230
     93  CA       232.2940   87.6020  178.6200 C.3    95  MET95       0.1702
     94  C        233.6920   88.1810  178.7050 C.2    95  MET95       0.2592
     95  O        234.6040   87.7290  178.0120 O.2    95  MET95      -0.2718
     96  CB       232.0560   86.7150  179.8380 C.3    95  MET95       0.0401
     97  CG       230.6140   86.3220  180.0630 C.3    95  MET95       0.0596
     98  SD       230.4740   85.0240  181.3020 S.3    95  MET95      -0.1393
     99  CE       231.2480   83.6540  180.4550 C.3    95  MET95       0.0692
    100  N        233.8490   89.1790  179.5700 N.am   96  GLU96      -0.1979
    101  CA       235.1550   89.7550  179.8680 C.3    96  GLU96       0.1602
    102  C        236.0610   88.7100  180.5110 C.2    96  GLU96       0.2287
    103  O        235.7090   88.1090  181.5260 O.2    96  GLU96      -0.2864
    104  CB       235.0200   90.9890  180.7690 C.3    96  GLU96       0.0415
    105  CG       234.0750   90.8270  181.9620 C.3    96  GLU96       0.1163
    106  CD       234.2160   91.9410  182.9850 C.2    96  GLU96       0.3649
    107  OE1      233.1800   92.4990  183.4030 O.co2  96  GLU96      -0.2457
    108  OE2      235.3610   92.2640  183.3710 O.co2  96  GLU96      -0.2457
    109  N        238.3100   87.1300  182.7670 N.3    98  LEU98      -0.1245
    110  CA       238.8250   87.3270  184.1130 C.3    98  LEU98       0.1561
    111  C        239.9540   86.3370  184.3710 C.2    98  LEU98       0.2260
    112  O        239.7120   85.1800  184.7260 O.2    98  LEU98      -0.2867
    113  CB       237.7110   87.1590  185.1510 C.3    98  LEU98       0.0270
    114  CG       236.4120   87.9550  184.9890 C.3    98  LEU98       0.0019
    115  CD1      235.4000   87.5200  186.0320 C.3    98  LEU98       0.0001
    116  CD2      236.6540   89.4560  185.0730 C.3    98  LEU98       0.0001
    117  N        234.7110   79.3220  194.1420 N.3   147  GLU147     -0.1231
    118  CA       235.0580   79.0300  192.7530 C.3   147  GLU147      0.1699
    119  C        234.5530   80.1130  191.7920 C.2   147  GLU147      0.2592
    120  O        235.2440   80.4730  190.8370 O.2   147  GLU147     -0.2718
    121  CB       234.4960   77.6610  192.3500 C.3   147  GLU147      0.0402
    122  CG       235.0250   77.1210  191.0210 C.3   147  GLU147      0.1161
    123  CD       234.1250   76.0560  190.4060 C.2   147  GLU147      0.3649
    124  OE1      232.8890   76.1170  190.5980 O.co2 147  GLU147     -0.2457
    125  OE2      234.6570   75.1610  189.7130 O.co2 147  GLU147     -0.2457
    126  N        233.3570   80.6330  192.0600 N.am  148  ASN148     -0.1974
    127  CA       232.7010   81.5880  191.1660 C.3   148  ASN148      0.1688
    128  C        233.0570   83.0530  191.4090 C.2   148  ASN148      0.2292
    129  O        232.4550   83.9490  190.8160 O.2   148  ASN148     -0.2864
    130  CB       231.1820   81.3950  191.2060 C.3   148  ASN148      0.1181
    131  CG       230.7490   80.0390  190.6750 C.2   148  ASN148      0.2629
    132  OD1      229.7630   79.4720  191.1400 O.2   148  ASN148     -0.2716
    133  ND2      231.4810   79.5150  189.6960 N.am  148  ASN148     -0.0877
    134  N        236.0270   85.5170  190.8150 N.3   150  LEU150     -0.1245
    135  CA       237.2800   85.6810  190.0820 C.3   150  LEU150      0.1561
    136  C        237.6660   87.1500  189.9540 C.2   150  LEU150      0.2260
    137  O        236.8010   88.0180  189.8150 O.2   150  LEU150     -0.2867
    138  CB       237.1600   85.0570  188.6900 C.3   150  LEU150      0.0270
    139  CG       236.9300   83.5460  188.5950 C.3   150  LEU150      0.0019
    140  CD1      236.1050   83.2050  187.3670 C.3   150  LEU150      0.0001
    141  CD2      238.2460   82.7790  188.5870 C.3   150  LEU150      0.0001
    142  N        230.7760   85.3020  189.0130 N.3   163  THR163     -0.1203
    143  CA       230.4540   84.6050  187.7670 C.3   163  THR163      0.1994
    144  C        229.3920   83.5210  187.9650 C.2   163  THR163      0.2617
    145  O        228.8910   83.3310  189.0730 O.2   163  THR163     -0.2717
    146  CB       231.7130   83.9650  187.1320 C.3   163  THR163      0.1784
    147  OG1      232.1810   82.8940  187.9600 O.3   163  THR163     -0.2211
    148  CG2      232.8200   84.9920  186.9650 C.3   163  THR163      0.0376
    149  N        229.0560   82.8300  186.8740 N.am  164  ASP164     -0.1973
    150  CA       228.2000   81.6340  186.8840 C.3   164  ASP164      0.1709
    151  C        226.7430   81.9060  187.2540 C.2   164  ASP164      0.2293
    152  O        226.3730   81.9010  188.4290 O.2   164  ASP164     -0.2864
    153  CB       228.7980   80.5290  187.7720 C.3   164  ASP164      0.1436
    154  CG       228.2580   79.1410  187.4450 C.2   164  ASP164      0.3671
    155  OD1      227.2810   79.0190  186.6680 O.co2 164  ASP164     -0.2456
    156  OD2      228.8230   78.1600  187.9790 O.co2 164  ASP164     -0.2456
@<TRIPOS>BOND
     1    70    69    2
     2    69    68    1
     3    45    44    1
     4    67    68    1
     5    61    60    2
     6    68    71    1
     7    44    43    1
     8    56    55    2
     9    60    59    1
    10    43    42    1
    11    55    54    1
    12    58    59    1
    13    53    54    1
    14    92    93    1
    15    71    72    1
    16    54    57    1
    17    59    62    1
    18    41    42    1
    19    41    38    1
    20    95    94    2
    21    40    39    2
    22    48    49    2
    23    48    47    1
    24    93    94    1
    25    93    96    1
    26    94   100   am
    27    37    38    1
    28    37    35   am
    29    39    38    1
    30    39    46   am
    31    72    73    1
    32    72    74    1
    33    62    63    1
    34    28    27    2
    35    34    35    1
    36    34    33    1
    37    47    46    1
    38    47    50    1
    39   100   101    1
    40    35    36    2
    41    96    97    1
    42   101   102    1
    43   101   104    1
    44    63    64    1
    45     7     6    1
    46    97    98    1
    47    27    33   am
    48    27    26    1
    49    51    50    1
    50    99    98    1
    51     6     8    1
    52     6     5    1
    53   102   103    2
    54     1     2    1
    55    50    52    1
    56   104   105    1
    57    64    65    1
    58    20    18    1
    59     5     2    1
    60    26    29    1
    61    26    25    1
    62    12    11    2
    63     2     3    1
    64   105   106    1
    65    29    30    1
    66    65    66    1
    67    18    19    1
    68    18    17    1
    69     9     3   am
    70     9    10    1
    71    77    78    2
    72    77    76    1
    73    11    10    1
    74    11    13   am
    75    24    23    2
    76     3     4    2
    77   109   110    1
    78    79    80    1
    79    79    76    1
    80   106   108   ar
    81   106   107   ar
    82    80    81   ar
    83    80    82   ar
    84    81    83   ar
    85    30    32   am
    86    30    31    2
    87    14    17    1
    88    14    13    1
    89    14    15    1
    90    75    76    1
    91    82    84   ar
    92    83    84   ar
    93    21    15   am
    94    21    22    1
    95    91    89    1
    96    23    22    1
    97    88    87    2
    98    87    86    1
    99   110   111    1
   100   110   113    1
   101    15    16    2
   102   111   112    2
   103    89    90    1
   104    89    86    1
   105   114   116    1
   106   114   113    1
   107   114   115    1
   108    86    85    1
   109   155   154   ar
   110   149   150    1
   111   149   144   am
   112   150   151    1
   113   150   153    1
   114   148   146    1
   115   146   143    1
   116   146   147    1
   117   151   152    2
   118   140   139    1
   119   154   153    1
   120   154   156   ar
   121   143   144    1
   122   143   142    1
   123   144   145    2
   124   141   139    1
   125   139   138    1
   126   138   135    1
   127   133   131   am
   128   125   123   ar
   129   137   136    2
   130   136   135    1
   131   135   134    1
   132   123   124   ar
   133   123   122    1
   134   131   132    2
   135   131   130    1
   136   129   128    2
   137   120   119    2
   138   122   121    1
   139   127   130    1
   140   127   128    1
   141   127   126    1
   142   119   126   am
   143   119   118    1
   144   121   118    1
   145   118   117    1
