@<TRIPOS>MOLECULE
tmp/3fptC00.pdb
 89 86 0 0 0
SMALL
GASTEIGER

@<TRIPOS>ATOM
      1  N         36.9900    4.3910   18.9210 N.3    12  ASN12      -0.1225
      2  CA        37.2040    4.7980   17.5020 C.3    12  ASN12       0.1785
      3  C         35.9230    4.7150   16.6540 C.2    12  ASN12       0.2597
      4  O         34.8030    4.7120   17.2330 O.2    12  ASN12      -0.2718
      5  CB        38.2910    3.9760   16.8610 C.3    12  ASN12       0.1169
      6  CG        37.8010    2.6370   16.4920 C.2    12  ASN12       0.2627
      7  OD1       36.5730    2.5230   16.2690 O.2    12  ASN12      -0.2716
      8  ND2       38.6820    1.5550   16.5040 N.am   12  ASN12      -0.0877
      9  N         35.9910    4.6940   15.3060 N.am   13  LYS13      -0.1966
     10  CA        34.6650    4.3690   14.6550 C.3    13  LYS13       0.1728
     11  C         34.3060    2.8630   14.3640 C.2    13  LYS13       0.2616
     12  O         33.1110    2.4220   14.6270 O.2    13  LYS13      -0.2715
     13  CB        34.0920    5.3490   13.6300 C.3    13  LYS13       0.0311
     14  CG        32.4690    5.1160   13.5280 C.3    13  LYS13       0.0038
     15  CD        32.0210    4.4500   12.0960 C.3    13  LYS13       0.0206
     16  CE        30.6160    3.8240   11.9720 C.3    13  LYS13       0.1093
     17  NZ        30.3540    4.0560   10.4840 N.3    13  LYS13      -0.1314
     18  N         35.2990    2.0870   13.9140 N.am   14  THR14      -0.1951
     19  CA        35.2590    0.6110   14.0420 C.3    14  THR14       0.1897
     20  C         34.8330    0.0470   15.4900 C.2    14  THR14       0.2313
     21  O         35.2820   -1.0390   15.9190 O.2    14  THR14      -0.2863
     22  CB        36.6570    0.0240   13.5110 C.3    14  THR14       0.1794
     23  OG1       37.7330    0.2510   14.4620 O.3    14  THR14      -0.2208
     24  CG2       37.0920    0.6580   12.0540 C.3    14  THR14       0.0378
     25  N         35.8540    0.0890   18.5450 N.3    16  TYR16      -0.1228
     26  CA        36.8270   -0.2930   19.5850 C.3    16  TYR16       0.1721
     27  C         37.4920    0.7830   20.5280 C.2    16  TYR16       0.2437
     28  O         37.6750    1.9530   20.1600 O.2    16  TYR16      -0.2733
     29  CB        37.8420   -1.3170   18.9840 C.3    16  TYR16       0.0547
     30  CG        37.0380   -2.5180   18.4540 C.ar   16  TYR16      -0.0200
     31  CD1       36.1080   -3.2130   19.3410 C.ar   16  TYR16      -0.0009
     32  CD2       37.0940   -2.9340   17.0800 C.ar   16  TYR16      -0.0009
     33  CE1       35.2890   -4.3120   18.8940 C.ar   16  TYR16       0.0417
     34  CE2       36.2620   -4.0570   16.6260 C.ar   16  TYR16       0.0417
     35  CZ        35.3720   -4.7100   17.5550 C.ar   16  TYR16       0.1957
     36  OH        34.5800   -5.7670   17.1750 O.3    16  TYR16      -0.2866
     37  N         37.8380    0.3860   21.7590 N.am   17  PRO17      -0.2718
     38  CA        38.2960    1.2860   22.7890 C.3    17  PRO17       0.1535
     39  C         39.7380    1.6860   22.6500 C.2    17  PRO17       0.2599
     40  O         40.5730    0.8980   22.3140 O.2    17  PRO17      -0.2715
     41  CB        38.1300    0.4320   24.0360 C.3    17  PRO17       0.0310
     42  CG        37.0660   -0.6590   23.5390 C.3    17  PRO17       0.0237
     43  CD        37.7290   -0.9590   22.3120 C.3    17  PRO17       0.0939
     44  N         40.0860    2.9060   22.9400 N.am   18  THR18      -0.1951
     45  CA        41.5320    3.1510   22.9330 C.3    18  THR18       0.1897
     46  C         41.7660    3.9210   24.1760 C.2    18  THR18       0.2313
     47  O         40.8200    4.5550   24.6770 O.2    18  THR18      -0.2863
     48  CB        41.9560    3.7590   21.5870 C.3    18  THR18       0.1794
     49  OG1       41.7690    2.6970   20.6640 O.3    18  THR18      -0.2208
     50  CG2       43.4360    4.2130   21.5080 C.3    18  THR18       0.0378
     51  N         48.6880    1.3840   21.5360 N.3    38  ARG38      -0.1301
     52  CA        48.0760    2.3990   20.7380 C.3    38  ARG38       0.1248
     53  C         47.2820    3.2030   21.7400 C.3    38  ARG38       0.2009
     54  O         46.5710    2.6040   22.6300 O.3    38  ARG38      -0.2188
     55  CB        47.0790    1.7760   19.7270 C.3    38  ARG38       0.0254
     56  CG        46.7310    2.8860   18.5600 C.3    38  ARG38       0.0485
     57  CD        45.2370    2.8820   17.9610 C.3    38  ARG38       0.2205
     58  NE        44.9910    1.5990   17.2930 N.pl3  38  ARG38      -0.0865
     59  CZ        45.7400    1.1590   16.2740 C.cat  38  ARG38       0.5346
     60  NH1       46.7600    1.9050   15.8290 N.pl3  38  ARG38       0.1354
     61  NH2       45.4980   -0.0350   15.7140 N.pl3  38  ARG38       0.1354
     62  N         45.0050    7.3150   22.4620 N.3    40  PHE40      -0.1241
     63  CA        44.8270    8.7160   22.0400 C.3    40  PHE40       0.1605
     64  C         45.6510    9.5670   22.9850 C.2    40  PHE40       0.2264
     65  O         45.5760    9.4030   24.1790 O.2    40  PHE40      -0.2867
     66  CB        43.3720    9.1890   22.0500 C.3    40  PHE40       0.0534
     67  CG        42.4630    8.3890   21.1810 C.ar   40  PHE40      -0.0203
     68  CD1       42.6490    8.3340   19.7920 C.ar   40  PHE40      -0.0042
     69  CD2       41.4880    7.6160   21.7150 C.ar   40  PHE40      -0.0042
     70  CE1       41.8220    7.5570   18.9500 C.ar   40  PHE40      -0.0003
     71  CE2       40.6200    6.8390   20.8470 C.ar   40  PHE40      -0.0003
     72  CZ        40.8050    6.8410   19.4510 C.ar   40  PHE40      -0.0000
     73  N         46.2260   10.3830   17.5470 N.3    60  LEU60      -0.1245
     74  CA        46.6210    9.0150   17.8200 C.3    60  LEU60       0.1561
     75  C         47.9810    9.0240   18.4370 C.2    60  LEU60       0.2260
     76  O         48.7830    9.9120   18.2390 O.2    60  LEU60      -0.2867
     77  CB        46.6840    8.1550   16.5820 C.3    60  LEU60       0.0270
     78  CG        45.3350    7.6040   16.1880 C.3    60  LEU60       0.0019
     79  CD1       45.4050    6.8450   14.9000 C.3    60  LEU60       0.0001
     80  CD2       44.8230    6.6010   17.2780 C.3    60  LEU60       0.0001
     81  N         41.5570   10.6340   14.5070 N.3    75  GLU75      -0.1245
     82  CA        40.4100    9.9050   13.8810 C.3    75  GLU75       0.1567
     83  C         39.3150   10.4060   14.6980 C.2    75  GLU75       0.2260
     84  O         39.6410   11.1920   15.5840 O.2    75  GLU75      -0.2867
     85  CB        40.6450    8.4070   13.9730 C.3    75  GLU75       0.0388
     86  CG        41.4130    7.9410   15.1110 C.3    75  GLU75       0.1160
     87  CD        41.3130    6.3880   15.0880 C.2    75  GLU75       0.3649
     88  OE1       42.2270    5.7210   14.5820 O.co2  75  GLU75      -0.2457
     89  OE2       40.3310    5.7640   15.5290 O.co2  75  GLU75      -0.2457
@<TRIPOS>BOND
     1    17    16    1
     2    16    15    1
     3    24    22    1
     4    15    14    1
     5    22    19    1
     6    22    23    1
     7    14    13    1
     8    13    10    1
     9    82    85    1
    10    82    81    1
    11    82    83    1
    12    18    19    1
    13    18    11   am
    14    85    86    1
    15    19    20    1
    16    11    12    2
    17    11    10    1
    18    88    87   ar
    19    10     9    1
    20    83    84    2
    21    79    78    1
    22    87    86    1
    23    87    89   ar
    24     9     3   am
    25    20    21    2
    26    61    59    1
    27    60    59    1
    28    78    77    1
    29    78    80    1
    30     7     6    2
    31    59    58    2
    32     6     8   am
    33     6     5    1
    34    77    74    1
    35    34    32   ar
    36    34    35   ar
    37     3     4    2
    38     3     2    1
    39     5     2    1
    40    32    30   ar
    41    36    35    1
    42    58    57    1
    43     2     1    1
    44    73    74    1
    45    35    33   ar
    46    74    75    1
    47    57    56    1
    48    76    75    2
    49    30    29    1
    50    30    31   ar
    51    25    26    1
    52    56    55    1
    53    33    31   ar
    54    70    72   ar
    55    70    68   ar
    56    29    26    1
    57    72    71   ar
    58    26    27    1
    59    55    52    1
    60    68    67   ar
    61    28    27    2
    62    27    37   am
    63    49    48    1
    64    52    51    1
    65    52    53    1
    66    71    69   ar
    67    67    69   ar
    68    67    66    1
    69    50    48    1
    70    48    45    1
    71    53    54    1
    72    37    43    1
    73    37    38    1
    74    63    66    1
    75    63    62    1
    76    63    64    1
    77    43    42    1
    78    40    39    2
    79    39    38    1
    80    39    44   am
    81    38    41    1
    82    45    44    1
    83    45    46    1
    84    64    65    2
    85    42    41    1
    86    46    47    2
