@<TRIPOS>MOLECULE
tmp/3fpxA00.pdb
 102 98 0 0 0
SMALL
GASTEIGER

@<TRIPOS>ATOM
      1  N         25.9320   15.0070   34.6670 N.3    14  ALA14      -0.1245
      2  CA        24.8640   14.6280   35.5590 C.3    14  ALA14       0.1562
      3  C         24.1940   15.8410   36.1970 C.2    14  ALA14       0.2260
      4  O         24.8600   16.6280   36.8410 O.2    14  ALA14      -0.2867
      5  CB        25.4230   13.7430   36.6720 C.3    14  ALA14       0.0290
      6  N         16.0330   13.8170   40.6850 N.3    20  PHE20      -0.1227
      7  CA        16.3250   12.5660   39.9710 C.3    20  PHE20       0.1736
      8  C         17.5840   12.8140   39.1640 C.2    20  PHE20       0.2596
      9  O         17.6460   13.8120   38.4330 O.2    20  PHE20      -0.2718
     10  CB        15.1640   12.2430   39.0290 C.3    20  PHE20       0.0547
     11  CG        15.3430   11.0140   38.1840 C.ar   20  PHE20      -0.0202
     12  CD1       14.9020    9.7900   38.6250 C.ar   20  PHE20      -0.0042
     13  CD2       15.8710   11.1040   36.8940 C.ar   20  PHE20      -0.0042
     14  CE1       14.9970    8.6690   37.8220 C.ar   20  PHE20      -0.0003
     15  CE2       15.9950    9.9860   36.0720 C.ar   20  PHE20      -0.0003
     16  CZ        15.5490    8.7550   36.5360 C.ar   20  PHE20      -0.0000
     17  N         18.5790   11.9390   39.2610 N.am   21  SER21      -0.1938
     18  CA        19.8050   12.2310   38.5460 C.3    21  SER21       0.2055
     19  C         19.7640   11.6520   37.1460 C.2    21  SER21       0.2643
     20  O         19.3390   10.4970   36.9400 O.2    21  SER21      -0.2714
     21  CB        21.0640   11.7930   39.3150 C.3    21  SER21       0.2130
     22  OG        22.2090   12.2430   38.5930 O.3    21  SER21      -0.2179
     23  N         20.1560   12.4740   36.1620 N.am   22  ARG22      -0.1963
     24  CA        20.3540   12.0220   34.7680 C.3    22  ARG22       0.1729
     25  C         21.4060   12.8220   34.0390 C.2    22  ARG22       0.2616
     26  O         21.6910   13.9710   34.3860 O.2    22  ARG22      -0.2715
     27  CB        19.0800   12.0500   33.8980 C.3    22  ARG22       0.0348
     28  CG        18.3850   13.3920   33.8300 C.3    22  ARG22       0.0492
     29  CD        17.4370   13.4770   32.5580 C.3    22  ARG22       0.2205
     30  NE        18.2070   13.5520   31.3260 N.pl3  22  ARG22      -0.0865
     31  CZ        17.6970   13.7040   30.1050 C.cat  22  ARG22       0.5346
     32  NH1       16.4100   13.8970   29.9400 N.pl3  22  ARG22       0.1354
     33  NH2       18.4850   13.7520   29.0500 N.pl3  22  ARG22       0.1354
     34  N         21.9830   12.1990   33.0520 N.am   23  GLN23      -0.1977
     35  CA        22.8850   12.8320   32.1000 C.3    23  GLN23       0.1601
     36  C         22.0560   13.7300   31.2240 C.2    23  GLN23       0.2287
     37  O         20.9940   13.3340   30.7850 O.2    23  GLN23      -0.2864
     38  CB        23.5370   11.8150   31.2030 C.3    23  GLN23       0.0394
     39  CG        24.4420   10.8990   31.9480 C.3    23  GLN23       0.0908
     40  CD        25.5230   11.6910   32.6400 C.2    23  GLN23       0.2608
     41  OE1       26.3000   12.3970   31.9760 O.2    23  GLN23      -0.2717
     42  NE2       25.5900   11.5790   33.9720 N.am   23  GLN23      -0.0878
     43  N         30.5780   14.4370   24.6570 N.3    53  THR53      -0.1203
     44  CA        31.1330   13.0990   24.5810 C.3    53  THR53       0.1994
     45  C         30.0600   12.0060   24.4990 C.2    53  THR53       0.2617
     46  O         30.3970   10.8470   24.3640 O.2    53  THR53      -0.2717
     47  CB        31.9890   12.7990   25.8440 C.3    53  THR53       0.1784
     48  OG1       31.2120   13.0020   27.0430 O.3    53  THR53      -0.2211
     49  CG2       33.2670   13.6380   25.8750 C.3    53  THR53       0.0376
     50  N         28.7810   12.3740   24.5000 N.am   54  ASN54      -0.1974
     51  CA        27.7010   11.3730   24.5620 C.3    54  ASN54       0.1688
     52  C         26.9660   11.2940   23.2340 C.2    54  ASN54       0.2292
     53  O         26.2920   12.2380   22.8470 O.2    54  ASN54      -0.2864
     54  CB        26.7620   11.7370   25.7330 C.3    54  ASN54       0.1181
     55  CG        25.6580   10.7220   25.9240 C.2    54  ASN54       0.2629
     56  OD1       24.9680   10.3730   24.9750 O.2    54  ASN54      -0.2716
     57  ND2       25.5220   10.2120   27.1490 N.am   54  ASN54      -0.0877
     58  N         24.3030    9.4660   22.3980 N.3    56  THR56      -0.1203
     59  CA        22.8270    9.3600   22.5320 C.3    56  THR56       0.1994
     60  C         22.1140   10.7120   22.5680 C.2    56  THR56       0.2617
     61  O         20.9920   10.8410   22.0290 O.2    56  THR56      -0.2717
     62  CB        22.4150    8.5270   23.7760 C.3    56  THR56       0.1784
     63  OG1       23.0570    7.2540   23.6850 O.3    56  THR56      -0.2211
     64  CG2       20.8720    8.2940   23.8630 C.3    56  THR56       0.0376
     65  N         22.7990   11.6990   23.1240 N.am   57  MET57      -0.1979
     66  CA        22.3150   13.0810   23.1840 C.3    57  MET57       0.1605
     67  C         22.9940   13.9650   22.1270 C.2    57  MET57       0.2287
     68  O         22.8110   15.2040   22.1080 O.2    57  MET57      -0.2864
     69  CB        22.4820   13.6490   24.5790 C.3    57  MET57       0.0413
     70  CG        21.7350   12.8690   25.6440 C.3    57  MET57       0.0598
     71  SD        21.6390   13.5210   27.2550 S.3    57  MET57      -0.1393
     72  CE        23.3730   13.5700   27.7700 C.3    57  MET57       0.0692
     73  N         12.6760   12.3550   32.5420 N.3   153  HIS153     -0.1226
     74  CA        13.6520   11.3990   33.1080 C.3   153  HIS153      0.1752
     75  C         14.2850   10.4390   32.1300 C.2   153  HIS153      0.2597
     76  O         15.3240    9.8420   32.4530 O.2   153  HIS153     -0.2718
     77  CB        12.9970   10.6250   34.2640 C.3   153  HIS153      0.0759
     78  CG        12.6430   11.4910   35.4410 C.ar  153  HIS153      0.0818
     79  ND1       11.9960   10.9920   36.5540 N.ar  153  HIS153     -0.2268
     80  CD2       12.8520   12.8110   35.6870 C.ar  153  HIS153      0.1154
     81  CE1       11.8260   11.9620   37.4320 C.ar  153  HIS153      0.1986
     82  NE2       12.3450   13.0740   36.9350 N.ar  153  HIS153     -0.2212
     83  N         13.6920   10.2630   30.9540 N.am  154  THR154     -0.1939
     84  CA        14.2780    9.5410   29.8800 C.3   154  THR154      0.2028
     85  C         14.7020   10.5260   28.8020 C.2   154  THR154      0.2642
     86  O         13.9460   11.4250   28.4570 O.2   154  THR154     -0.2714
     87  CB        13.2400    8.5590   29.3240 C.3   154  THR154      0.1808
     88  OG1       12.7030    7.8680   30.4470 O.3   154  THR154     -0.2208
     89  CG2       13.8070    7.5970   28.2980 C.3   154  THR154      0.0379
     90  N         15.8650   10.2850   28.2320 N.am  155  ALA155     -0.1977
     91  CA        16.4090   11.1600   27.1750 C.3   155  ALA155      0.1597
     92  C         15.5650   11.1350   25.9130 C.2   155  ALA155      0.2287
     93  O         14.7980   10.1710   25.6190 O.2   155  ALA155     -0.2864
     94  CB        17.8790   10.7840   26.8270 C.3   155  ALA155      0.0319
     95  N         15.6200    8.1320   23.7030 N.3   158  LEU158     -0.1245
     96  CA        15.4000    6.8780   24.4360 C.3   158  LEU158      0.1561
     97  C         13.9540    6.6410   24.8370 C.2   158  LEU158      0.2260
     98  O         13.5920    5.5050   25.1500 O.2   158  LEU158     -0.2867
     99  CB        16.2620    6.8200   25.6840 C.3   158  LEU158      0.0270
    100  CG        17.7970    6.8770   25.4270 C.3   158  LEU158      0.0019
    101  CD1       18.6330    6.7850   26.7190 C.3   158  LEU158      0.0001
    102  CD2       18.2020    5.8360   24.3970 C.3   158  LEU158      0.0001
@<TRIPOS>BOND
     1    61    60    2
     2    68    67    2
     3    67    66    1
     4    58    59    1
     5    59    60    1
     6    59    62    1
     7    60    65   am
     8    53    52    2
     9    65    66    1
    10    66    69    1
    11    52    51    1
    12    63    62    1
    13    95    96    1
    14    62    64    1
    15    46    45    2
    16   102   100    1
    17    96    97    1
    18    96    99    1
    19    45    50   am
    20    45    44    1
    21    50    51    1
    22    51    54    1
    23    69    70    1
    24    44    43    1
    25    44    47    1
    26    97    98    2
    27    56    55    2
    28   100    99    1
    29   100   101    1
    30    93    92    2
    31    70    71    1
    32    54    55    1
    33    47    49    1
    34    47    48    1
    35    92    91    1
    36    55    57   am
    37    94    91    1
    38    91    90    1
    39    71    72    1
    40    90    85   am
    41    89    87    1
    42    86    85    2
    43    85    84    1
    44    33    31    1
    45    87    84    1
    46    87    88    1
    47    84    83    1
    48    32    31    1
    49    31    30    2
    50    37    36    2
    51    83    75   am
    52    38    39    1
    53    38    35    1
    54    36    35    1
    55    30    29    1
    56    39    40    1
    57    41    40    2
    58    35    34    1
    59    75    76    2
    60    75    74    1
    61    73    74    1
    62    29    28    1
    63    40    42   am
    64    34    25   am
    65    74    77    1
    66    28    27    1
    67    27    24    1
    68    25    26    2
    69    25    24    1
    70    77    78    1
    71     1     2    1
    72    24    23    1
    73    78    80   ar
    74    78    79   ar
    75     2     3    1
    76     2     5    1
    77    80    82   ar
    78    15    16   ar
    79    15    13   ar
    80    23    19   am
    81     3     4    2
    82    16    14   ar
    83    79    81   ar
    84    13    11   ar
    85    82    81   ar
    86    20    19    2
    87    19    18    1
    88    14    12   ar
    89    11    12   ar
    90    11    10    1
    91     9     8    2
    92    18    17    1
    93    18    21    1
    94    22    21    1
    95    10     7    1
    96     8    17   am
    97     8     7    1
    98     7     6    1
