@<TRIPOS>MOLECULE
tmp/3fq0A01.pdb
 150 144 0 0 0
SMALL
GASTEIGER

@<TRIPOS>ATOM
      1  N        -22.9000  -10.3270   35.4730 N.3     5  LEU5       -0.1231
      2  CA       -23.8590   -9.4530   36.1360 C.3     5  LEU5        0.1693
      3  C        -23.8580   -9.8380   37.6120 C.2     5  LEU5        0.2592
      4  O        -24.1610  -10.9780   37.9450 O.2     5  LEU5       -0.2718
      5  CB       -25.2560   -9.6750   35.5350 C.3     5  LEU5        0.0284
      6  CG       -26.4490   -8.8520   36.0260 C.3     5  LEU5        0.0019
      7  CD1      -26.1390   -7.3440   36.0320 C.3     5  LEU5        0.0001
      8  CD2      -27.7260   -9.1550   35.2000 C.3     5  LEU5        0.0001
      9  N        -23.4980   -8.8950   38.4840 N.am    6  VAL6       -0.1966
     10  CA       -23.2950   -9.2140   39.9080 C.3     6  VAL6        0.1727
     11  C        -23.4920   -7.9670   40.7850 C.2     6  VAL6        0.2616
     12  O        -23.2370   -6.8430   40.3440 O.2     6  VAL6       -0.2715
     13  CB       -21.8720   -9.8050   40.1430 C.3     6  VAL6        0.0290
     14  CG1      -20.7830   -8.7730   39.8340 C.3     6  VAL6        0.0023
     15  CG2      -21.7090  -10.3440   41.5840 C.3     6  VAL6        0.0023
     16  N        -23.9750   -8.1770   42.0130 N.am    7  ALA7       -0.1977
     17  CA       -23.9400   -7.1730   43.0560 C.3     7  ALA7        0.1597
     18  C        -23.0290   -7.7180   44.1670 C.2     7  ALA7        0.2287
     19  O        -23.2210   -8.8470   44.6460 O.2     7  ALA7       -0.2864
     20  CB       -25.3330   -6.8680   43.5920 C.3     7  ALA7        0.0319
     21  N        -27.4850  -18.8660   51.1070 N.3    18  ASN18      -0.1225
     22  CA       -28.2090  -19.0330   49.8410 C.3    18  ASN18       0.1785
     23  C        -29.2090  -17.9140   49.5220 C.2    18  ASN18       0.2597
     24  O        -30.1290  -18.0940   48.7120 O.2    18  ASN18      -0.2718
     25  CB       -28.8490  -20.4310   49.7610 C.3    18  ASN18       0.1169
     26  CG       -27.8180  -21.5340   49.6440 C.2    18  ASN18       0.2627
     27  OD1      -26.8680  -21.4380   48.8620 O.2    18  ASN18      -0.2716
     28  ND2      -27.9940  -22.5920   50.4240 N.am   18  ASN18      -0.0877
     29  N        -29.0220  -16.7570   50.1510 N.am   19  GLN19      -0.1965
     30  CA       -29.8410  -15.5760   49.8830 C.3    19  GLN19       0.1733
     31  C        -28.9510  -14.3600   49.6660 C.2    19  GLN19       0.2616
     32  O        -27.7570  -14.4010   49.9700 O.2    19  GLN19      -0.2715
     33  CB       -30.7820  -15.2950   51.0530 C.3    19  GLN19       0.0408
     34  CG       -31.9000  -16.2920   51.2030 C.3    19  GLN19       0.0908
     35  CD       -32.9450  -15.8310   52.1970 C.2    19  GLN19       0.2608
     36  OE1      -32.7240  -15.8660   53.4110 O.2    19  GLN19      -0.2717
     37  NE2      -34.0960  -15.3920   51.6870 N.am   19  GLN19      -0.0878
     38  N        -29.5330  -13.2830   49.1390 N.am   20  LEU20      -0.1977
     39  CA       -28.8230  -12.0020   49.0750 C.3    20  LEU20       0.1596
     40  C        -28.7690  -11.4210   50.4820 C.2    20  LEU20       0.2287
     41  O        -29.7390  -11.5390   51.2400 O.2    20  LEU20      -0.2864
     42  CB       -29.5310  -11.0190   48.1310 C.3    20  LEU20       0.0297
     43  CG       -29.8360  -11.5390   46.7290 C.3    20  LEU20       0.0022
     44  CD1      -30.7710  -10.5600   46.0050 C.3    20  LEU20       0.0001
     45  CD2      -28.5500  -11.7950   45.9360 C.3    20  LEU20       0.0001
     46  N        -28.6790   -8.2580   51.3030 N.3    22  TRP22      -0.1241
     47  CA       -29.3000   -6.9240   51.3410 C.3    22  TRP22       0.1605
     48  C        -30.6000   -6.8740   50.5580 C.2    22  TRP22       0.2264
     49  O        -30.8940   -7.7570   49.7470 O.2    22  TRP22      -0.2867
     50  CB       -28.3620   -5.8650   50.7560 C.3    22  TRP22       0.0550
     51  CG       -27.7650   -6.3300   49.4870 C.ar   22  TRP22       0.0003
     52  CD1      -28.3540   -6.3340   48.2400 C.ar   22  TRP22       0.0946
     53  CD2      -26.4740   -6.9160   49.3250 C.ar   22  TRP22       0.0152
     54  NE1      -27.4920   -6.8740   47.3180 N.ar   22  TRP22      -0.2442
     55  CE2      -26.3320   -7.2450   47.9560 C.ar   22  TRP22       0.0810
     56  CE3      -25.4110   -7.1840   50.2000 C.ar   22  TRP22       0.0012
     57  CZ2      -25.1720   -7.8300   47.4460 C.ar   22  TRP22       0.0191
     58  CZ3      -24.2570   -7.7730   49.6850 C.ar   22  TRP22       0.0001
     59  CH2      -24.1500   -8.0890   48.3260 C.ar   22  TRP22       0.0015
     60  N        -31.4630   -2.1530   42.4770 N.3    27  ASP27      -0.1225
     61  CA       -30.5930   -3.1290   41.8390 C.3    27  ASP27       0.1805
     62  C        -31.4110   -4.1990   41.1060 C.2    27  ASP27       0.2597
     63  O        -31.0270   -4.6430   40.0240 O.2    27  ASP27      -0.2718
     64  CB       -29.6110   -3.7410   42.8390 C.3    27  ASP27       0.1424
     65  CG       -28.7180   -4.7810   42.2070 C.2    27  ASP27       0.3668
     66  OD1      -28.7930   -5.9380   42.6510 O.co2  27  ASP27      -0.2456
     67  OD2      -27.9690   -4.4540   41.2530 O.co2  27  ASP27      -0.2456
     68  N        -32.5410   -4.6050   41.6860 N.am   28  LEU28      -0.1979
     69  CA       -33.4600   -5.5010   40.9820 C.3    28  LEU28       0.1596
     70  C        -33.9260   -4.8800   39.6580 C.2    28  LEU28       0.2287
     71  O        -33.9950   -5.5700   38.6480 O.2    28  LEU28      -0.2864
     72  CB       -34.6650   -5.8670   41.8520 C.3    28  LEU28       0.0297
     73  CG       -34.4620   -6.9050   42.9580 C.3    28  LEU28       0.0022
     74  CD1      -35.6340   -6.8450   43.9430 C.3    28  LEU28       0.0001
     75  CD2      -34.3230   -8.3040   42.3980 C.3    28  LEU28       0.0001
     76  N        -32.2970   -2.5690   37.9060 N.3    30  HIS30      -0.1226
     77  CA       -31.0790   -2.6200   37.0950 C.3    30  HIS30       0.1752
     78  C        -30.9500   -3.9670   36.3740 C.2    30  HIS30       0.2595
     79  O        -30.7500   -4.0150   35.1640 O.2    30  HIS30      -0.2718
     80  CB       -29.8770   -2.3500   38.0160 C.3    30  HIS30       0.0759
     81  CG       -28.5400   -2.4090   37.3450 C.ar   30  HIS30       0.0818
     82  ND1      -28.1360   -1.4860   36.4030 N.ar   30  HIS30      -0.2268
     83  CD2      -27.4900   -3.2460   37.5260 C.ar   30  HIS30       0.1154
     84  CE1      -26.9030   -1.7650   36.0170 C.ar   30  HIS30       0.1986
     85  NE2      -26.4860   -2.8270   36.6860 N.ar   30  HIS30      -0.2212
     86  N        -31.0910   -5.0610   37.1200 N.am   31  VAL31      -0.1980
     87  CA       -31.0400   -6.4080   36.5430 C.3    31  VAL31       0.1595
     88  C        -32.1280   -6.6070   35.4810 C.2    31  VAL31       0.2287
     89  O        -31.8610   -7.1280   34.3920 O.2    31  VAL31      -0.2864
     90  CB       -31.1740   -7.4880   37.6420 C.3    31  VAL31       0.0276
     91  CG1      -31.3370   -8.8810   37.0260 C.3    31  VAL31       0.0022
     92  CG2      -29.9540   -7.4610   38.5470 C.3    31  VAL31       0.0022
     93  N        -28.1140  -21.0580   42.9690 N.3    46  THR46      -0.1218
     94  CA       -28.7230  -19.7530   42.7490 C.3    46  THR46       0.1862
     95  C        -30.1690  -19.8940   42.2690 C.2    46  THR46       0.2287
     96  O        -31.0650  -19.2530   42.8180 O.2    46  THR46      -0.2866
     97  CB       -27.9000  -18.8870   41.7720 C.3    46  THR46       0.1770
     98  OG1      -26.6200  -18.6130   42.3510 O.3    46  THR46      -0.2211
     99  CG2      -28.6040  -17.5650   41.5020 C.3    46  THR46       0.0375
    100  N        -32.6020  -21.1390   44.9670 N.3    49  SER49      -0.1202
    101  CA       -32.8690  -20.0620   45.9060 C.3    49  SER49       0.2020
    102  C        -33.8810  -19.0630   45.3600 C.2    49  SER49       0.2618
    103  O        -34.7610  -18.6030   46.0960 O.2    49  SER49      -0.2717
    104  CB       -31.5860  -19.3430   46.2890 C.3    49  SER49       0.2103
    105  OG       -31.8910  -18.3370   47.2360 O.3    49  SER49      -0.2182
    106  N        -33.7550  -18.7220   44.0780 N.am   50  ILE50      -0.1979
    107  CA       -34.7430  -17.8590   43.4240 C.3    50  ILE50       0.1595
    108  C        -36.1060  -18.5640   43.4120 C.2    50  ILE50       0.2287
    109  O        -37.1300  -17.9560   43.7180 O.2    50  ILE50      -0.2864
    110  CB       -34.3170  -17.4430   41.9910 C.3    50  ILE50       0.0276
    111  CG1      -32.9900  -16.6730   42.0280 C.3    50  ILE50       0.0022
    112  CG2      -35.3860  -16.5620   41.3460 C.3    50  ILE50       0.0022
    113  CD1      -32.2980  -16.5560   40.6760 C.3    50  ILE50       0.0001
    114  N        -36.7490  -16.2110   36.0820 N.3    54  LEU54      -0.1245
    115  CA       -37.0910  -14.7990   36.0210 C.3    54  LEU54       0.1561
    116  C        -37.8450  -14.5270   34.7170 C.2    54  LEU54       0.2260
    117  O        -37.4500  -15.0320   33.6700 O.2    54  LEU54      -0.2867
    118  CB       -35.8350  -13.9280   36.1380 C.3    54  LEU54       0.0270
    119  CG       -35.2200  -13.8630   37.5450 C.3    54  LEU54       0.0019
    120  CD1      -33.9760  -12.9880   37.5410 C.3    54  LEU54       0.0001
    121  CD2      -36.2310  -13.3460   38.5640 C.3    54  LEU54       0.0001
    122  N        -24.8620  -14.9640   35.7500 N.3    92  PHE92      -0.1241
    123  CA       -25.7440  -14.3900   36.7810 C.3    92  PHE92       0.1605
    124  C        -25.3740  -14.8070   38.2070 C.2    92  PHE92       0.2264
    125  O        -25.8800  -14.2310   39.1750 O.2    92  PHE92      -0.2867
    126  CB       -27.1970  -14.7960   36.4790 C.3    92  PHE92       0.0534
    127  CG       -28.2500  -13.9750   37.1910 C.ar   92  PHE92      -0.0203
    128  CD1      -29.2250  -14.6000   37.9690 C.ar   92  PHE92      -0.0042
    129  CD2      -28.3140  -12.5910   37.0370 C.ar   92  PHE92      -0.0042
    130  CE1      -30.2400  -13.8540   38.6030 C.ar   92  PHE92      -0.0003
    131  CE2      -29.3080  -11.8380   37.6700 C.ar   92  PHE92      -0.0003
    132  CZ       -30.2720  -12.4680   38.4630 C.ar   92  PHE92      -0.0000
    133  N        -19.1530  -17.4540   38.8570 N.3    98  PHE98      -0.1241
    134  CA       -18.2880  -16.2730   38.7330 C.3    98  PHE98       0.1605
    135  C        -16.8040  -16.6510   38.6820 C.2    98  PHE98       0.2264
    136  O        -16.0490  -16.0980   37.8770 O.2    98  PHE98      -0.2867
    137  CB       -18.5530  -15.2430   39.8400 C.3    98  PHE98       0.0534
    138  CG       -19.9200  -14.6000   39.7740 C.ar   98  PHE98      -0.0203
    139  CD1      -20.4740  -14.2000   38.5510 C.ar   98  PHE98      -0.0042
    140  CD2      -20.6370  -14.3620   40.9400 C.ar   98  PHE98      -0.0042
    141  CE1      -21.7390  -13.5990   38.5030 C.ar   98  PHE98      -0.0003
    142  CE2      -21.8990  -13.7600   40.9080 C.ar   98  PHE98      -0.0003
    143  CZ       -22.4480  -13.3680   39.6760 C.ar   98  PHE98      -0.0000
    144  N        -22.7890   -4.0590   40.4990 N.3   111  THR111     -0.1218
    145  CA       -23.3220   -3.1070   41.4630 C.3   111  THR111      0.1862
    146  C        -22.4700   -3.2370   42.7210 C.2   111  THR111      0.2287
    147  O        -22.4580   -4.2920   43.3590 O.2   111  THR111     -0.2866
    148  CB       -24.8010   -3.3620   41.8070 C.3   111  THR111      0.1770
    149  OG1      -25.5860   -3.4050   40.6030 O.3   111  THR111     -0.2211
    150  CG2      -25.3310   -2.2580   42.7340 C.3   111  THR111      0.0375
@<TRIPOS>BOND
     1   117   116    2
     2    89    88    2
     3   116   115    1
     4    79    78    2
     5     8     6    1
     6     1     2    1
     7    88    87    1
     8     5     6    1
     9     5     2    1
    10   122   123    1
    11    84    82   ar
    12    84    85   ar
    13   115   114    1
    14   115   118    1
    15     6     7    1
    16     2     3    1
    17   118   119    1
    18    78    77    1
    19    78    86   am
    20    82    81   ar
    21   126   123    1
    22   126   127    1
    23    87    86    1
    24    87    90    1
    25    85    83   ar
    26   123   124    1
    27    91    90    1
    28   129   127   ar
    29   129   131   ar
    30    77    76    1
    31    77    80    1
    32   127   128   ar
    33    81    83   ar
    34    81    80    1
    35   120   119    1
    36   119   121    1
    37     3     4    2
    38     3     9   am
    39    90    92    1
    40   131   132   ar
    41   136   135    2
    42   128   130   ar
    43   124   125    2
    44   132   130   ar
    45     9    10    1
    46   141   139   ar
    47   141   143   ar
    48   139   138   ar
    49    71    70    2
    50   135   134    1
    51   134   133    1
    52   134   137    1
    53    70    69    1
    54   143   142   ar
    55   138   137    1
    56   138   140   ar
    57    14    13    1
    58    10    13    1
    59    10    11    1
    60    63    62    2
    61    13    15    1
    62    12    11    2
    63   144   145    1
    64   149   148    1
    65   113   111    1
    66    11    16   am
    67   142   140   ar
    68    69    68    1
    69    69    72    1
    70    62    68   am
    71    62    61    1
    72    67    65   ar
    73   112   110    1
    74   145   148    1
    75   145   146    1
    76    99    97    1
    77    97    98    1
    78    97    94    1
    79   148   150    1
    80    61    60    1
    81    61    64    1
    82    72    73    1
    83   110   111    1
    84   110   107    1
    85    16    17    1
    86    65    66   ar
    87    65    64    1
    88    95    94    1
    89    95    96    2
    90    75    73    1
    91   146   147    2
    92    94    93    1
    93    73    74    1
    94    17    20    1
    95    17    18    1
    96   108   107    1
    97   108   109    2
    98   107   106    1
    99   106   102   am
   100    18    19    2
   101   100   101    1
   102   102   101    1
   103   102   103    2
   104   101   104    1
   105    45    43    1
   106    44    43    1
   107   104   105    1
   108    43    42    1
   109    54    55   ar
   110    54    52   ar
   111    57    55   ar
   112    57    59   ar
   113    55    53   ar
   114    42    39    1
   115    52    51   ar
   116    59    58   ar
   117    24    23    2
   118    27    26    2
   119    39    38    1
   120    39    40    1
   121    38    31   am
   122    53    51   ar
   123    53    56   ar
   124    51    50    1
   125    23    22    1
   126    23    29   am
   127    26    25    1
   128    26    28   am
   129    31    30    1
   130    31    32    2
   131    58    56   ar
   132    49    48    2
   133    25    22    1
   134    22    21    1
   135    30    29    1
   136    30    33    1
   137    40    41    2
   138    48    47    1
   139    50    47    1
   140    33    34    1
   141    34    35    1
   142    46    47    1
   143    37    35   am
   144    35    36    2
