@<TRIPOS>MOLECULE
tmp/3fq7B01.pdb
 168 162 0 0 0
SMALL
GASTEIGER

@<TRIPOS>ATOM
      1  N         -2.1120    9.0760  -15.1840 N.3    23  SER23      -0.1203
      2  CA        -0.8870    8.4210  -14.7470 C.3    23  SER23       0.2005
      3  C         -1.2150    7.2330  -13.8310 C.2    23  SER23       0.2461
      4  O         -1.9060    7.3770  -12.8260 O.2    23  SER23      -0.2732
      5  CB         0.0170    9.4130  -14.0210 C.3    23  SER23       0.2103
      6  OG         1.3610    9.0030  -14.1320 O.3    23  SER23      -0.2182
      7  N         -0.6860    6.0490  -14.1660 N.am   24  PRO24      -0.2717
      8  CA        -0.8510    4.7640  -13.4780 C.3    24  PRO24       0.1535
      9  C         -1.0350    4.7650  -11.9590 C.2    24  PRO24       0.2598
     10  O         -2.0830    4.3650  -11.4620 O.2    24  PRO24      -0.2715
     11  CB         0.3900    3.9900  -13.9050 C.3    24  PRO24       0.0310
     12  CG         0.6060    4.4680  -15.2820 C.3    24  PRO24       0.0237
     13  CD         0.3980    5.9580  -15.1600 C.3    24  PRO24       0.0939
     14  N         -0.0180    5.2060  -11.2260 N.am   25  VAL25      -0.1964
     15  CA        -0.0780    5.2200   -9.7670 C.3    25  VAL25       0.1727
     16  C         -1.3420    5.8730   -9.2070 C.2    25  VAL25       0.2616
     17  O         -1.8120    5.5160   -8.1340 O.2    25  VAL25      -0.2715
     18  CB         1.1720    5.9200   -9.1660 C.3    25  VAL25       0.0290
     19  CG1        1.1140    7.4270   -9.4110 C.3    25  VAL25       0.0023
     20  CG2        1.2700    5.6170   -7.6890 C.3    25  VAL25       0.0023
     21  N         -1.9070    6.8170   -9.9430 N.am   26  ARG26      -0.1977
     22  CA        -3.1030    7.5040   -9.4820 C.3    26  ARG26       0.1597
     23  C         -4.3190    6.5990   -9.3660 C.2    26  ARG26       0.2287
     24  O         -5.2880    6.9580   -8.7020 O.2    26  ARG26      -0.2864
     25  CB        -3.4260    8.6730  -10.4140 C.3    26  ARG26       0.0334
     26  CG        -2.2940    9.6810  -10.5260 C.3    26  ARG26       0.0492
     27  CD        -2.6930   10.8850  -11.3680 C.3    26  ARG26       0.2205
     28  NE        -1.5290   11.6720  -11.7620 N.pl3  26  ARG26      -0.0865
     29  CZ        -1.5830   12.7450  -12.5450 C.cat  26  ARG26       0.5346
     30  NH1       -2.7470   13.1630  -13.0100 N.pl3  26  ARG26       0.1354
     31  NH2       -0.4710   13.3810  -12.8870 N.pl3  26  ARG26       0.1354
     32  N          3.6730   14.8420   -6.1620 N.3    61  TRP61      -0.1241
     33  CA         4.8520   14.0450   -6.4620 C.3    61  TRP61       0.1605
     34  C          6.1720   14.7880   -6.5660 C.2    61  TRP61       0.2264
     35  O          7.0190   14.4460   -7.3900 O.2    61  TRP61      -0.2867
     36  CB         4.6050   13.2110   -7.7220 C.3    61  TRP61       0.0550
     37  CG         3.3560   12.3810   -7.6100 C.ar   61  TRP61       0.0003
     38  CD1        2.1210   12.6910   -8.0950 C.ar   61  TRP61       0.0946
     39  CD2        3.2010   11.1600   -6.8800 C.ar   61  TRP61       0.0152
     40  NE1        1.2030   11.7450   -7.7070 N.ar   61  TRP61      -0.2442
     41  CE2        1.8390   10.7950   -6.9570 C.ar   61  TRP61       0.0810
     42  CE3        4.0810   10.3440   -6.1550 C.ar   61  TRP61       0.0012
     43  CZ2        1.3340    9.6460   -6.3430 C.ar   61  TRP61       0.0191
     44  CZ3        3.5750    9.2010   -5.5430 C.ar   61  TRP61       0.0001
     45  CH2        2.2130    8.8670   -5.6400 C.ar   61  TRP61       0.0015
     46  N          9.2360   17.8810  -19.2570 N.3   116  SER116     -0.1202
     47  CA         8.9960   16.8740  -18.2240 C.3   116  SER116      0.2020
     48  C         10.2650   16.1330  -17.8550 C.2   116  SER116      0.2619
     49  O         11.2850   16.2430  -18.5370 O.2   116  SER116     -0.2717
     50  CB         7.9640   15.8560  -18.7030 C.3   116  SER116      0.2103
     51  OG         8.4910   15.1120  -19.7880 O.3   116  SER116     -0.2182
     52  N         10.1930   15.3740  -16.7720 N.am  117  GLY117     -0.1942
     53  CA        11.3410   14.6040  -16.3540 C.3   117  GLY117      0.2014
     54  C         11.5980   13.5580  -17.4180 C.2   117  GLY117      0.2639
     55  O         12.7470   13.2480  -17.7230 O.2   117  GLY117     -0.2714
     56  N         10.5210   13.0320  -18.0000 N.am  118  THR118     -0.1950
     57  CA        10.6330   12.0190  -19.0470 C.3   118  THR118      0.1897
     58  C         11.3980   12.5480  -20.2670 C.2   118  THR118      0.2313
     59  O         12.2450   11.8550  -20.8210 O.2   118  THR118     -0.2863
     60  CB         9.2450   11.5250  -19.4840 C.3   118  THR118      0.1794
     61  OG1        8.6620   10.7560  -18.4230 O.3   118  THR118     -0.2208
     62  CG2        9.3500   10.6420  -20.7400 C.3   118  THR118      0.0378
     63  N         15.1260   12.8670  -19.2860 N.3   121  CYS121     -0.1235
     64  CA        15.8110   11.5770  -19.2360 C.3   121  CYS121      0.1677
     65  C         16.0460   11.0410  -20.6350 C.2   121  CYS121      0.2270
     66  O         17.1250   10.5630  -20.9770 O.2   121  CYS121     -0.2867
     67  CB        14.9890   10.5730  -18.4230 C.3   121  CYS121      0.0956
     68  SG        14.9210   10.9590  -16.6690 S.3   121  CYS121     -0.0801
     69  N         13.4940    4.7690  -11.6190 N.3   144  TYR144     -0.1227
     70  CA        12.5820    5.1790  -12.6830 C.3   144  TYR144      0.1736
     71  C         13.0590    6.4940  -13.2910 C.2   144  TYR144      0.2595
     72  O         13.3850    7.4330  -12.5670 O.2   144  TYR144     -0.2718
     73  CB        11.1680    5.3530  -12.1280 C.3   144  TYR144      0.0548
     74  CG        10.1670    5.8440  -13.1510 C.ar  144  TYR144     -0.0200
     75  CD1        9.7840    5.0410  -14.2270 C.ar  144  TYR144     -0.0009
     76  CD2        9.6150    7.1200  -13.0540 C.ar  144  TYR144     -0.0009
     77  CE1        8.8730    5.5010  -15.1840 C.ar  144  TYR144      0.0417
     78  CE2        8.7070    7.5890  -13.9990 C.ar  144  TYR144      0.0417
     79  CZ         8.3400    6.7780  -15.0610 C.ar  144  TYR144      0.1957
     80  OH         7.4420    7.2460  -15.9940 O.3   144  TYR144     -0.2866
     81  N         13.1140    6.5580  -14.6170 N.am  145  HIS145     -0.1961
     82  CA        13.5550    7.7710  -15.3070 C.3   145  HIS145      0.1787
     83  C         12.6730    7.9980  -16.5160 C.2   145  HIS145      0.2621
     84  O         13.1680    8.2330  -17.6230 O.2   145  HIS145     -0.2715
     85  CB        15.0030    7.6410  -15.7880 C.3   145  HIS145      0.0785
     86  CG        15.9080    6.9690  -14.8080 C.ar  145  HIS145      0.0821
     87  ND1       16.1230    5.6090  -14.8120 N.ar  145  HIS145     -0.2267
     88  CD2       16.6310    7.4630  -13.7750 C.ar  145  HIS145      0.1154
     89  CE1       16.9380    5.2940  -13.8220 C.ar  145  HIS145      0.1986
     90  NE2       17.2610    6.4000  -13.1780 N.ar  145  HIS145     -0.2212
     91  N         11.3660    7.9260  -16.3120 N.am  146  GLY146     -0.1940
     92  CA        10.4660    8.1000  -17.4300 C.3   146  GLY146      0.2014
     93  C         10.3080    6.7710  -18.1480 C.2   146  GLY146      0.2638
     94  O         10.8070    5.7380  -17.6830 O.2   146  GLY146     -0.2714
     95  N          9.6370    6.8050  -19.2960 N.am  147  HIS147     -0.1973
     96  CA         9.3610    5.6090  -20.0920 C.3   147  HIS147      0.1656
     97  C          9.7710    5.7770  -21.5560 C.2   147  HIS147      0.2291
     98  O          9.7430    6.8850  -22.0950 O.2   147  HIS147     -0.2864
     99  CB         7.8650    5.3200  -20.0240 C.3   147  HIS147      0.0771
    100  CG         7.0240    6.5460  -20.1960 C.ar  147  HIS147      0.0820
    101  ND1        7.0930    7.6160  -19.3300 N.ar  147  HIS147     -0.2267
    102  CD2        6.1410    6.8990  -21.1600 C.ar  147  HIS147      0.1154
    103  CE1        6.2910    8.5750  -19.7540 C.ar  147  HIS147      0.1986
    104  NE2        5.7010    8.1650  -20.8620 N.ar  147  HIS147     -0.2212
    105  N          8.4630    3.2930   -9.9670 N.3   157  SER157     -0.1217
    106  CA         7.1080    3.8330  -10.0010 C.3   157  SER157      0.1889
    107  C          6.0730    2.7490  -10.2940 C.2   157  SER157      0.2288
    108  O          6.1420    1.6480   -9.7500 O.2   157  SER157     -0.2866
    109  CB         7.0090    4.9460  -11.0500 C.3   157  SER157      0.2089
    110  OG         7.3070    4.4600  -12.3470 O.3   157  SER157     -0.2183
    111  N         19.0240    7.3050   -9.7140 N.3   206  GLU206     -0.1245
    112  CA        18.4510    8.2740   -8.7950 C.3   206  GLU206      0.1567
    113  C         19.4940    8.3020   -7.6750 C.2   206  GLU206      0.2260
    114  O         19.7200    7.2920   -7.0170 O.2   206  GLU206     -0.2867
    115  CB        17.1170    7.7730   -8.2570 C.3   206  GLU206      0.0388
    116  CG        16.0620    7.6270   -9.3230 C.3   206  GLU206      0.1160
    117  CD        14.7590    7.0790   -8.7910 C.2   206  GLU206      0.3649
    118  OE1       14.2700    7.5860   -7.7650 O.co2 206  GLU206     -0.2457
    119  OE2       14.2140    6.1430   -9.4050 O.co2 206  GLU206     -0.2457
    120  N         11.6260    5.9160   -6.2010 N.3   211  ASN211     -0.1240
    121  CA        10.6540    5.1130   -6.9390 C.3   211  ASN211      0.1653
    122  C         10.5860    3.6090   -6.6600 C.2   211  ASN211      0.2266
    123  O          9.9810    2.8530   -7.4180 O.2   211  ASN211     -0.2867
    124  CB        10.8250    5.3830   -8.4310 C.3   211  ASN211      0.1155
    125  CG        10.4960    6.8220   -8.7850 C.2   211  ASN211      0.2627
    126  OD1        9.3450    7.2470   -8.6790 O.2   211  ASN211     -0.2716
    127  ND2       11.5070    7.5860   -9.1810 N.am  211  ASN211     -0.0877
    128  N         19.7950   11.3350  -12.0700 N.3   239  ASP239     -0.1239
    129  CA        18.4320   11.6970  -12.3760 C.3   239  ASP239      0.1674
    130  C         17.9310   12.3450  -11.0900 C.2   239  ASP239      0.2266
    131  O         17.5560   11.6540  -10.1450 O.2   239  ASP239     -0.2867
    132  CB        17.5950   10.4590  -12.6820 C.3   239  ASP239      0.1410
    133  CG        16.1510   10.8000  -12.9620 C.2   239  ASP239      0.3668
    134  OD1       15.7180   11.9010  -12.5620 O.co2 239  ASP239     -0.2456
    135  OD2       15.4480    9.9740  -13.5710 O.co2 239  ASP239     -0.2456
    136  N         15.3770   14.4210  -10.9610 N.3   241  VAL241     -0.1231
    137  CA        14.0600   14.9440  -11.2470 C.3   241  VAL241      0.1692
    138  C         13.3000   15.0460   -9.9350 C.2   241  VAL241      0.2591
    139  O         12.6000   16.0250   -9.6870 O.2   241  VAL241     -0.2718
    140  CB        13.2900   14.0170  -12.2080 C.3   241  VAL241      0.0266
    141  CG1       11.8010   14.3090  -12.1390 C.3   241  VAL241      0.0020
    142  CG2       13.7960   14.2120  -13.6240 C.3   241  VAL241      0.0020
    143  N         13.4590   14.0380   -9.0840 N.am  242  MET242     -0.1979
    144  CA        12.7590   14.0190   -7.8040 C.3   242  MET242      0.1605
    145  C         13.5660   14.5910   -6.6450 C.2   242  MET242      0.2287
    146  O         13.0170   15.2700   -5.7730 O.2   242  MET242     -0.2864
    147  CB        12.3300   12.5870   -7.4660 C.3   242  MET242      0.0413
    148  CG        11.5210   12.4500   -6.1930 C.3   242  MET242      0.0598
    149  SD        11.0130   10.7270   -5.8910 S.3   242  MET242     -0.1393
    150  CE         9.6360   10.6010   -7.0370 C.3   242  MET242      0.0692
    151  N          9.9530   18.3460  -11.9090 N.3   267  LYS267     -0.1245
    152  CA         9.0760   18.6470  -10.7920 C.3   267  LYS267      0.1561
    153  C          9.2500   20.0390  -10.1860 C.2   267  LYS267      0.2260
    154  O          8.6950   21.0100  -10.6990 O.2   267  LYS267     -0.2867
    155  CB         9.2430   17.5610   -9.7260 C.3   267  LYS267      0.0271
    156  CG         8.8830   16.1840  -10.2610 C.3   267  LYS267      0.0035
    157  CD         9.3230   15.0790   -9.3220 C.3   267  LYS267      0.0206
    158  CE         9.1590   13.7070   -9.9770 C.3   267  LYS267      0.1093
    159  NZ         7.7410   13.2860  -10.0950 N.3   267  LYS267     -0.1314
    160  N          6.7730    4.4090   -3.3410 N.3   400  GLU400     -0.1245
    161  CA         6.9420    5.8170   -3.6710 C.3   400  GLU400      0.1567
    162  C          7.3270    6.5220   -2.3830 C.2   400  GLU400      0.2260
    163  O          6.7240    6.2820   -1.3340 O.2   400  GLU400     -0.2867
    164  CB         5.6530    6.4210   -4.2320 C.3   400  GLU400      0.0388
    165  CG         5.3160    5.9790   -5.6510 C.3   400  GLU400      0.1160
    166  CD         6.4240    6.2930   -6.6620 C.2   400  GLU400      0.3649
    167  OE1        7.3010    7.1360   -6.3710 O.co2 400  GLU400     -0.2457
    168  OE2        6.4080    5.7030   -7.7630 O.co2 400  GLU400     -0.2457
@<TRIPOS>BOND
     1    98    97    2
     2    97    96    1
     3   102   104   ar
     4   102   100   ar
     5    66    65    2
     6   104   103   ar
     7    59    58    2
     8    62    60    1
     9    65    64    1
    10    58    57    1
    11   100    99    1
    12   100   101   ar
    13    96    99    1
    14    96    95    1
    15    51    50    1
    16   103   101   ar
    17    60    57    1
    18    60    61    1
    19    95    93   am
    20    63    64    1
    21    46    47    1
    22    64    67    1
    23    57    56    1
    24    50    47    1
    25    49    48    2
    26    67    68    1
    27    47    48    1
    28    93    94    2
    29    93    92    1
    30    56    54   am
    31    48    52   am
    32    55    54    2
    33    84    83    2
    34    92    91    1
    35    54    53    1
    36    52    53    1
    37    83    91   am
    38    83    82    1
    39    80    79    1
    40    85    82    1
    41    85    86    1
    42    82    81    1
    43    12    13    1
    44    12    11    1
    45    77    79   ar
    46    77    75   ar
    47     1     2    1
    48    13     7    1
    49    79    78   ar
    50    87    86   ar
    51    87    89   ar
    52    86    88   ar
    53     2     5    1
    54     2     3    1
    55    81    71   am
    56    75    74   ar
    57     7     3   am
    58     7     8    1
    59     6     5    1
    60    78    76   ar
    61    11     8    1
    62     3     4    2
    63    89    90   ar
    64    88    90   ar
    65   142   140    1
    66   135   133   ar
    67     8     9    1
    68    71    70    1
    69    71    72    2
    70    74    76   ar
    71    74    73    1
    72    30    29    1
    73   133   132    1
    74   133   134   ar
    75    31    29    1
    76    70    73    1
    77    70    69    1
    78   132   129    1
    79    29    28    2
    80   129   128    1
    81   129   130    1
    82   110   109    1
    83   140   141    1
    84   140   137    1
    85     9    10    2
    86     9    14   am
    87   151   152    1
    88    28    27    1
    89    27    26    1
    90   137   136    1
    91   137   138    1
    92    14    15    1
    93   130   131    2
    94   109   106    1
    95   152   153    1
    96   152   155    1
    97   154   153    2
    98    26    25    1
    99    25    22    1
   100   107   106    1
   101   107   108    2
   102   156   155    1
   103   156   157    1
   104   159   158    1
   105   106   105    1
   106   158   157    1
   107    21    22    1
   108    21    16   am
   109   138   139    2
   110   138   143   am
   111    15    16    1
   112    15    18    1
   113   111   112    1
   114    22    23    1
   115    19    18    1
   116   119   117   ar
   117    23    24    2
   118   116   117    1
   119   116   115    1
   120    16    17    2
   121   127   125   am
   122    18    20    1
   123   143   144    1
   124   112   115    1
   125   112   113    1
   126   117   118   ar
   127   125   126    2
   128   125   124    1
   129   124   121    1
   130    38    40   ar
   131    38    37   ar
   132   144   147    1
   133   144   145    1
   134   168   166   ar
   135    36    37    1
   136    36    33    1
   137    40    41   ar
   138   113   114    2
   139    37    39   ar
   140   147   148    1
   141   123   122    2
   142    35    34    2
   143   150   149    1
   144    41    39   ar
   145    41    43   ar
   146   121   122    1
   147   121   120    1
   148    39    42   ar
   149   166   167   ar
   150   166   165    1
   151   145   146    2
   152    34    33    1
   153    33    32    1
   154    43    45   ar
   155   148   149    1
   156    42    44   ar
   157   165   164    1
   158    45    44   ar
   159   164   161    1
   160   161   160    1
   161   161   162    1
   162   162   163    2
