@<TRIPOS>MOLECULE
tmp/3fqaA01.pdb
 89 86 0 0 0
SMALL
GASTEIGER

@<TRIPOS>ATOM
      1  N         15.1770   25.4160  -28.3020 N.3    22  SER22      -0.1203
      2  CA        14.7590   24.6200  -29.4510 C.3    22  SER22       0.2005
      3  C         15.4700   25.1050  -30.7290 C.2    22  SER22       0.2461
      4  O         15.4000   26.2820  -31.0870 O.2    22  SER22      -0.2732
      5  CB        13.2460   24.7180  -29.6160 C.3    22  SER22       0.2103
      6  OG        12.7430   23.7270  -30.4910 O.3    22  SER22      -0.2182
      7  N         16.1340   24.1810  -31.4460 N.am   23  PRO23      -0.2717
      8  CA        16.8940   24.3950  -32.6860 C.3    23  PRO23       0.1535
      9  C         16.3850   25.4210  -33.6960 C.2    23  PRO23       0.2598
     10  O         17.1180   26.3270  -34.0850 O.2    23  PRO23      -0.2715
     11  CB        16.9660   22.9960  -33.2910 C.3    23  PRO23       0.0310
     12  CG        17.0300   22.1190  -32.0770 C.3    23  PRO23       0.0237
     13  CD        15.9690   22.7360  -31.1860 C.3    23  PRO23       0.0939
     14  N         15.1410   25.2880  -34.1290 N.am   24  VAL24      -0.1964
     15  CA        14.6040   26.2170  -35.1220 C.3    24  VAL24       0.1727
     16  C         14.6360   27.6890  -34.7150 C.2    24  VAL24       0.2616
     17  O         14.7830   28.5670  -35.5670 O.2    24  VAL24      -0.2715
     18  CB        13.1680   25.8520  -35.5060 C.3    24  VAL24       0.0290
     19  CG1       12.2550   25.9840  -34.2970 C.3    24  VAL24       0.0023
     20  CG2       12.7110   26.7390  -36.6640 C.3    24  VAL24       0.0023
     21  N         14.5060   27.9710  -33.4250 N.am   25  ARG25      -0.1977
     22  CA        14.5370   29.3580  -32.9880 C.3    25  ARG25       0.1597
     23  C         15.8940   29.9610  -33.3370 C.2    25  ARG25       0.2287
     24  O         16.0730   31.1770  -33.2860 O.2    25  ARG25      -0.2864
     25  CB        14.2980   29.4440  -31.4760 C.3    25  ARG25       0.0334
     26  CG        13.0190   28.7480  -31.0260 C.3    25  ARG25       0.0492
     27  CD        12.7910   28.8400  -29.5260 C.3    25  ARG25       0.2205
     28  NE        11.6980   27.9670  -29.0900 N.pl3  25  ARG25      -0.0865
     29  CZ        11.2320   27.9070  -27.8460 C.cat  25  ARG25       0.5346
     30  NH1       11.7550   28.6780  -26.9040 N.pl3  25  ARG25       0.1354
     31  NH2       10.2580   27.0640  -27.5390 N.pl3  25  ARG25       0.1354
     32  N          4.0740   28.4510  -32.9730 N.3    60  TRP60      -0.1241
     33  CA         4.0910   27.1880  -33.6950 C.3    60  TRP60       0.1605
     34  C          2.8170   26.3500  -33.7040 C.2    60  TRP60       0.2264
     35  O          2.8810   25.1120  -33.7280 O.2    60  TRP60      -0.2867
     36  CB         5.2780   26.3480  -33.2220 C.3    60  TRP60       0.0550
     37  CG         6.5740   27.1020  -33.3520 C.ar   60  TRP60       0.0003
     38  CD1        7.1810   27.8710  -32.3940 C.ar   60  TRP60       0.0946
     39  CD2        7.3820   27.2220  -34.5290 C.ar   60  TRP60       0.0152
     40  NE1        8.3150   28.4590  -32.9050 N.ar   60  TRP60      -0.2442
     41  CE2        8.4590   28.0780  -34.2140 C.ar   60  TRP60       0.0810
     42  CE3        7.2960   26.6920  -35.8220 C.ar   60  TRP60       0.0012
     43  CZ2        9.4400   28.4190  -35.1470 C.ar   60  TRP60       0.0191
     44  CZ3        8.2710   27.0310  -36.7480 C.ar   60  TRP60       0.0001
     45  CH2        9.3280   27.8860  -36.4060 C.ar   60  TRP60       0.0015
     46  N          8.0020   15.0000  -39.2240 N.3   143  TYR143     -0.1241
     47  CA         8.5980   15.0860  -37.8900 C.3   143  TYR143      0.1605
     48  C          7.6110   14.6320  -36.8160 C.2   143  TYR143      0.2264
     49  O          6.5060   15.1550  -36.7310 O.2   143  TYR143     -0.2867
     50  CB         9.0450   16.5250  -37.6060 C.3   143  TYR143      0.0534
     51  CG         9.8010   16.6750  -36.3090 C.ar  143  TYR143     -0.0201
     52  CD1       11.0030   15.9980  -36.1030 C.ar  143  TYR143     -0.0009
     53  CD2        9.2980   17.4500  -35.2700 C.ar  143  TYR143     -0.0009
     54  CE1       11.6790   16.0840  -34.8940 C.ar  143  TYR143      0.0417
     55  CE2        9.9710   17.5440  -34.0580 C.ar  143  TYR143      0.0417
     56  CZ        11.1560   16.8580  -33.8760 C.ar  143  TYR143      0.1957
     57  OH        11.8240   16.9330  -32.6770 O.3   143  TYR143     -0.2866
     58  N         11.4220   19.3270  -40.1710 N.3   156  SER156     -0.1217
     59  CA        11.5130   20.3950  -39.1830 C.3   156  SER156      0.1889
     60  C         12.9430   20.9200  -39.0570 C.2   156  SER156      0.2288
     61  O         13.6050   21.1870  -40.0600 O.2   156  SER156     -0.2866
     62  CB        11.0190   19.8890  -37.8200 C.3   156  SER156      0.2089
     63  OG        10.9110   20.9490  -36.8800 O.3   156  SER156     -0.2183
     64  N          6.1490   20.0370  -41.5340 N.3   210  ASN210     -0.1240
     65  CA         7.5710   20.0600  -41.1750 C.3   210  ASN210      0.1653
     66  C          8.6090   19.9200  -42.2920 C.2   210  ASN210      0.2266
     67  O          9.7860   19.6810  -42.0340 O.2   210  ASN210     -0.2867
     68  CB         7.8390   19.0140  -40.0930 C.3   210  ASN210      0.1155
     69  CG         7.2060   19.3830  -38.7710 C.2   210  ASN210      0.2627
     70  OD1        7.5480   20.4040  -38.1750 O.2   210  ASN210     -0.2716
     71  ND2        6.2760   18.5620  -38.3090 N.am  210  ASN210     -0.0877
     72  N         -0.1410   20.9140  -29.1600 N.3   266  LYS266     -0.1245
     73  CA        -0.2870   22.3490  -29.3880 C.3   266  LYS266      0.1561
     74  C         -1.6340   22.9670  -28.9940 C.2   266  LYS266      0.2260
     75  O         -1.8550   23.2760  -27.8230 O.2   266  LYS266     -0.2867
     76  CB         0.0470   22.6510  -30.8490 C.3   266  LYS266      0.0271
     77  CG         1.4900   22.2700  -31.2050 C.3   266  LYS266      0.0035
     78  CD         1.7560   22.3350  -32.7020 C.3   266  LYS266      0.0206
     79  CE         3.0690   21.6500  -33.0950 C.3   266  LYS266      0.1093
     80  NZ         4.2760   22.4890  -32.8610 N.3   266  LYS266     -0.1314
     81  N          8.9540   25.1150  -42.8810 N.3   399  GLU399     -0.1245
     82  CA         7.9740   25.2200  -41.8100 C.3   399  GLU399      0.1567
     83  C          6.7140   25.8750  -42.3530 C.2   399  GLU399      0.2260
     84  O          6.7850   26.9210  -42.9880 O.2   399  GLU399     -0.2867
     85  CB         8.5260   26.0630  -40.6650 C.3   399  GLU399      0.0388
     86  CG         9.6080   25.3860  -39.8320 C.3   399  GLU399      0.1160
     87  CD         9.1070   24.1340  -39.1260 C.2   399  GLU399      0.3649
     88  OE1        7.8900   24.0570  -38.8570 O.co2 399  GLU399     -0.2457
     89  OE2        9.9300   23.2420  -38.8310 O.co2 399  GLU399     -0.2457
@<TRIPOS>BOND
     1    84    83    2
     2    81    82    1
     3    83    82    1
     4    66    67    2
     5    66    65    1
     6    82    85    1
     7    64    65    1
     8    65    68    1
     9    85    86    1
    10    58    59    1
    11    68    69    1
    12    61    60    2
    13    86    87    1
    14    46    47    1
    15    59    60    1
    16    59    62    1
    17    87    88   ar
    18    87    89   ar
    19    69    71   am
    20    69    70    2
    21    47    50    1
    22    47    48    1
    23    62    63    1
    24    50    51    1
    25    48    49    2
    26    44    45   ar
    27    44    42   ar
    28    20    18    1
    29    45    43   ar
    30    51    52   ar
    31    51    53   ar
    32    52    54   ar
    33    42    39   ar
    34    17    16    2
    35    18    15    1
    36    18    19    1
    37    53    55   ar
    38    43    41   ar
    39    15    16    1
    40    15    14    1
    41    54    56   ar
    42    16    21   am
    43    39    41   ar
    44    39    37   ar
    45    41    40   ar
    46    14     9   am
    47    10     9    2
    48    55    56   ar
    49    56    57    1
    50    35    34    2
    51    34    33    1
    52     9     8    1
    53    33    36    1
    54    33    32    1
    55    21    22    1
    56    37    36    1
    57    37    38   ar
    58    23    24    2
    59    23    22    1
    60    11     8    1
    61    11    12    1
    62    79    80    1
    63    79    78    1
    64    22    25    1
    65    40    38   ar
    66    78    77    1
    67     8     7    1
    68    12    13    1
    69    25    26    1
    70     7    13    1
    71     7     3   am
    72    77    76    1
    73     4     3    2
    74    26    27    1
    75    76    73    1
    76     3     2    1
    77     6     5    1
    78     5     2    1
    79    27    28    1
    80     2     1    1
    81    73    72    1
    82    73    74    1
    83    28    29    2
    84    74    75    2
    85    29    31    1
    86    29    30    1
