@<TRIPOS>MOLECULE
tmp/3fqcA01.pdb
 147 138 0 0 0
SMALL
GASTEIGER

@<TRIPOS>ATOM
      1  N        -21.3320   13.2130   16.5570 N.3     5  LEU5       -0.1231
      2  CA       -22.5010   12.6060   15.9170 C.3     5  LEU5        0.1693
      3  C        -22.5870   13.0500   14.4510 C.2     5  LEU5        0.2592
      4  O        -22.8420   14.2250   14.1650 O.2     5  LEU5       -0.2718
      5  CB       -23.7840   12.9400   16.7010 C.3     5  LEU5        0.0284
      6  CG       -25.1700   12.5080   16.1920 C.3     5  LEU5        0.0019
      7  CD1      -25.2230   11.0420   15.7990 C.3     5  LEU5        0.0001
      8  CD2      -26.2540   12.8270   17.2420 C.3     5  LEU5        0.0001
      9  N        -22.3820   12.1010   13.5320 N.am    6  VAL6       -0.1966
     10  CA       -22.1960   12.3980   12.1040 C.3     6  VAL6        0.1727
     11  C        -22.6890   11.2830   11.1580 C.2     6  VAL6        0.2616
     12  O        -22.6180   10.0820   11.4830 O.2     6  VAL6       -0.2715
     13  CB       -20.6930   12.7560   11.7880 C.3     6  VAL6        0.0290
     14  CG1      -19.7650   11.5660   12.0300 C.3     6  VAL6        0.0023
     15  CG2      -20.5250   13.2970   10.3510 C.3     6  VAL6        0.0023
     16  N        -23.2120   11.6990   10.0060 N.am    7  ALA7       -0.1977
     17  CA       -23.4560   10.7990    8.8860 C.3     7  ALA7        0.1597
     18  C        -22.5320   11.1610    7.6980 C.2     7  ALA7        0.2287
     19  O        -22.6190   12.2720    7.1360 O.2     7  ALA7       -0.2864
     20  CB       -24.9110   10.8740    8.4720 C.3     7  ALA7        0.0319
     21  N        -20.1230   14.9770    3.9270 N.3    14  ILE14      -0.1245
     22  CA       -21.2120   15.2240    4.8970 C.3    14  ILE14       0.1561
     23  C        -22.2730   16.2230    4.4010 C.2    14  ILE14       0.2260
     24  O        -23.3920   16.2670    4.9350 O.2    14  ILE14      -0.2867
     25  CB       -20.6830   15.6600    6.3010 C.3    14  ILE14       0.0252
     26  CG1      -20.0060   17.0420    6.2410 C.3    14  ILE14       0.0019
     27  CG2      -19.7640   14.5820    6.8930 C.3    14  ILE14       0.0019
     28  CD1      -19.5720   17.6000    7.6130 C.3    14  ILE14       0.0001
     29  N        -26.7650   21.6030    2.5340 N.3    19  GLN19      -0.1231
     30  CA       -27.7440   20.5480    2.7840 C.3    19  GLN19       0.1698
     31  C        -27.1070   19.1600    2.8440 C.2    19  GLN19       0.2592
     32  O        -26.0010   18.9490    2.3360 O.2    19  GLN19      -0.2718
     33  CB       -28.8160   20.5410    1.7020 C.3    19  GLN19       0.0381
     34  CG       -29.7680   21.7140    1.7520 C.3    19  GLN19       0.0905
     35  CD       -30.9440   21.4940    0.8280 C.2    19  GLN19       0.2608
     36  OE1      -31.8980   20.7690    1.1630 O.2    19  GLN19      -0.2717
     37  NE2      -30.8740   22.0880   -0.3560 N.am   19  GLN19      -0.0878
     38  N        -27.8210   18.2250    3.4630 N.am   20  LEU20      -0.1980
     39  CA       -27.5030   16.8050    3.3700 C.3    20  LEU20       0.1596
     40  C        -27.6860   16.3040    1.9450 C.2    20  LEU20       0.2287
     41  O        -28.7070   16.5940    1.3210 O.2    20  LEU20      -0.2864
     42  CB       -28.4280   15.9880    4.2660 C.3    20  LEU20       0.0297
     43  CG       -27.9800   15.2970    5.5490 C.3    20  LEU20       0.0022
     44  CD1      -28.9760   14.1510    5.8260 C.3    20  LEU20       0.0001
     45  CD2      -26.5750   14.7700    5.4640 C.3    20  LEU20       0.0001
     46  N        -31.7310    7.0320    9.9220 N.3    27  ASP27      -0.1225
     47  CA       -30.6190    7.7460   10.5340 C.3    27  ASP27       0.1805
     48  C        -31.1040    8.9440   11.3490 C.2    27  ASP27       0.2597
     49  O        -30.5070    9.2920   12.3660 O.2    27  ASP27      -0.2718
     50  CB       -29.5820    8.1690    9.4990 C.3    27  ASP27       0.1424
     51  CG       -28.4580    8.9810   10.1150 C.2    27  ASP27       0.3668
     52  OD1      -28.3620   10.1660    9.7680 O.co2  27  ASP27      -0.2456
     53  OD2      -27.7030    8.4590   10.9740 O.co2  27  ASP27      -0.2456
     54  N        -32.1830    9.5730   10.8940 N.am   28  LEU28      -0.1979
     55  CA       -32.8340   10.6240   11.6670 C.3    28  LEU28       0.1596
     56  C        -33.3650   10.0750   13.0010 C.2    28  LEU28       0.2287
     57  O        -33.2680   10.7280   14.0310 O.2    28  LEU28      -0.2864
     58  CB       -33.9560   11.2750   10.8490 C.3    28  LEU28       0.0297
     59  CG       -33.5030   12.0450    9.5950 C.3    28  LEU28       0.0022
     60  CD1      -34.6990   12.5480    8.8050 C.3    28  LEU28       0.0001
     61  CD2      -32.5760   13.1890    9.9490 C.3    28  LEU28       0.0001
     62  N        -32.0750    7.4260   14.5380 N.3    30  HIS30      -0.1226
     63  CA       -30.8130    7.2280   15.2570 C.3    30  HIS30       0.1752
     64  C        -30.3530    8.5130   15.9920 C.2    30  HIS30       0.2595
     65  O        -29.9370    8.4520   17.1500 O.2    30  HIS30      -0.2718
     66  CB       -29.7650    6.7060   14.2620 C.3    30  HIS30       0.0759
     67  CG       -28.3890    6.5310   14.8270 C.ar   30  HIS30       0.0818
     68  ND1      -28.0580    5.5020   15.6820 N.ar   30  HIS30      -0.2268
     69  CD2      -27.2460    7.2240   14.6120 C.ar   30  HIS30       0.1154
     70  CE1      -26.7770    5.5840   15.9950 C.ar   30  HIS30       0.1986
     71  NE2      -26.2580    6.6190   15.3560 N.ar   30  HIS30      -0.2212
     72  N        -30.4540    9.6650   15.3260 N.am   31  VAL31      -0.1980
     73  CA       -30.1330   10.9590   15.9400 C.3    31  VAL31       0.1595
     74  C        -31.0920   11.3130   17.0950 C.2    31  VAL31       0.2287
     75  O        -30.6600   11.7430   18.1590 O.2    31  VAL31      -0.2864
     76  CB       -30.1250   12.1150   14.8960 C.3    31  VAL31       0.0276
     77  CG1      -30.0240   13.4810   15.5910 C.3    31  VAL31       0.0022
     78  CG2      -28.9870   11.9350   13.9040 C.3    31  VAL31       0.0022
     79  N        -24.3990   25.1890   10.1570 N.3    46  THR46      -0.1218
     80  CA       -25.2560   24.0230   10.4100 C.3    46  THR46       0.1862
     81  C        -26.6080   24.4610   10.9950 C.2    46  THR46       0.2287
     82  O        -27.6510   24.0340   10.5220 O.2    46  THR46      -0.2866
     83  CB       -24.5830   22.9620   11.3320 C.3    46  THR46       0.1770
     84  OG1      -23.4410   22.4140   10.6760 O.3    46  THR46      -0.2211
     85  CG2      -25.5480   21.8240   11.6620 C.3    46  THR46       0.0375
     86  N        -29.0160   26.0170    8.4820 N.3    49  SER49      -0.1202
     87  CA       -29.6310   25.0150    7.6130 C.3    49  SER49       0.2020
     88  C        -30.8850   24.4220    8.2490 C.2    49  SER49       0.2618
     89  O        -31.8110   24.0230    7.5430 O.2    49  SER49      -0.2717
     90  CB       -28.6340   23.9090    7.2410 C.3    49  SER49       0.2103
     91  OG       -28.3070   23.0930    8.3570 O.3    49  SER49      -0.2182
     92  N        -30.9020   24.3610    9.5790 N.am   50  ILE50      -0.1979
     93  CA       -32.0570   23.8760   10.3210 C.3    50  ILE50       0.1595
     94  C        -33.0170   25.0390   10.5900 C.2    50  ILE50       0.2287
     95  O        -34.2020   24.9570   10.2690 O.2    50  ILE50      -0.2864
     96  CB       -31.6490   23.1770   11.6470 C.3    50  ILE50       0.0276
     97  CG1      -30.5730   22.1170   11.3920 C.3    50  ILE50       0.0022
     98  CG2      -32.8570   22.5110   12.2990 C.3    50  ILE50       0.0022
     99  CD1      -29.9190   21.5800   12.6560 C.3    50  ILE50       0.0001
    100  N        -33.6260   21.8490   17.6260 N.3    54  LEU54      -0.1245
    101  CA       -34.2520   20.5320   17.6120 C.3    54  LEU54       0.1561
    102  C        -34.8970   20.2560   18.9740 C.2    54  LEU54       0.2260
    103  O        -34.3050   20.5830   20.0140 O.2    54  LEU54      -0.2867
    104  CB       -33.2470   19.4450   17.2190 C.3    54  LEU54       0.0270
    105  CG       -32.6600   19.5380   15.8040 C.3    54  LEU54       0.0019
    106  CD1      -31.6390   18.4380   15.5730 C.3    54  LEU54       0.0001
    107  CD2      -33.7440   19.4960   14.7310 C.3    54  LEU54       0.0001
    108  N        -34.0150   18.6950   23.6360 N.3    57  ARG57      -0.1245
    109  CA       -32.5970   18.6970   24.0050 C.3    57  ARG57       0.1563
    110  C        -32.0480   20.1160   24.0130 C.2    57  ARG57       0.2260
    111  O        -32.6510   21.0110   23.4360 O.2    57  ARG57      -0.2867
    112  CB       -31.7820   17.7960   23.0610 C.3    57  ARG57       0.0307
    113  CG       -31.6150   18.3280   21.6510 C.3    57  ARG57       0.0489
    114  CD       -31.6000   17.1900   20.6630 C.3    57  ARG57       0.2205
    115  NE       -32.9310   16.9140   20.1390 N.pl3  57  ARG57      -0.0865
    116  CZ       -33.1870   16.0940   19.1210 C.cat  57  ARG57       0.5346
    117  NH1      -32.1990   15.4550   18.5010 N.pl3  57  ARG57       0.1354
    118  NH2      -34.4370   15.9180   18.7150 N.pl3  57  ARG57       0.1354
    119  N        -22.2030   18.0240   16.7990 N.3    92  PHE92      -0.1241
    120  CA       -23.2230   17.7370   15.8000 C.3    92  PHE92       0.1605
    121  C        -22.8590   18.1980   14.3650 C.2    92  PHE92       0.2264
    122  O        -23.5320   17.8250   13.3830 O.2    92  PHE92      -0.2867
    123  CB       -24.5230   18.4040   16.2730 C.3    92  PHE92       0.0534
    124  CG       -25.7650   17.8770   15.6290 C.ar   92  PHE92      -0.0203
    125  CD1      -26.6490   18.7460   15.0130 C.ar   92  PHE92      -0.0042
    126  CD2      -26.0700   16.5200   15.6610 C.ar   92  PHE92      -0.0042
    127  CE1      -27.8190   18.2760   14.4250 C.ar   92  PHE92      -0.0003
    128  CE2      -27.2360   16.0360   15.0750 C.ar   92  PHE92      -0.0003
    129  CZ       -28.1070   16.9130   14.4530 C.ar   92  PHE92      -0.0000
    130  N        -16.4430   19.6520   13.3560 N.3    98  PHE98      -0.1241
    131  CA       -15.8430   18.3180   13.3050 C.3    98  PHE98       0.1605
    132  C        -14.3090   18.3360   13.2590 C.2    98  PHE98       0.2264
    133  O        -13.6520   17.5500   13.9510 O.2    98  PHE98      -0.2867
    134  CB       -16.3980   17.5020   12.1370 C.3    98  PHE98       0.0534
    135  CG       -17.8230   17.0700   12.3170 C.ar   98  PHE98      -0.0203
    136  CD1      -18.3250   16.7560   13.5910 C.ar   98  PHE98      -0.0042
    137  CD2      -18.6640   16.9490   11.2120 C.ar   98  PHE98      -0.0042
    138  CE1      -19.6410   16.3210   13.7590 C.ar   98  PHE98      -0.0003
    139  CE2      -19.9990   16.5410   11.3690 C.ar   98  PHE98      -0.0003
    140  CZ       -20.4860   16.2180   12.6530 C.ar   98  PHE98      -0.0000
    141  N        -22.7070    7.2540   11.2760 N.3   111  THR111     -0.1218
    142  CA       -23.4670    6.5060   10.2950 C.3   111  THR111      0.1862
    143  C        -22.7030    6.5790    8.9510 C.2   111  THR111      0.2287
    144  O        -22.5790    7.6410    8.3450 O.2   111  THR111     -0.2866
    145  CB       -24.8940    7.0590   10.1540 C.3   111  THR111      0.1770
    146  OG1      -25.4440    7.3060   11.4560 O.3   111  THR111     -0.2211
    147  CG2      -25.7900    6.0640    9.4110 C.3   111  THR111      0.0375
@<TRIPOS>BOND
     1    37    35   am
     2    35    36    2
     3    35    34    1
     4    41    40    2
     5    33    34    1
     6    33    30    1
     7    40    39    1
     8    32    31    2
     9    29    30    1
    10    30    31    1
    11    31    38   am
    12    39    38    1
    13    39    42    1
    14    21    22    1
    15    42    43    1
    16    23    22    1
    17    23    24    2
    18    22    25    1
    19    45    43    1
    20    43    44    1
    21    26    25    1
    22    26    28    1
    23    25    27    1
    24    19    18    2
    25    90    87    1
    26    90    91    1
    27    89    88    2
    28    87    88    1
    29    87    86    1
    30    18    17    1
    31    88    92   am
    32   144   143    2
    33    20    17    1
    34    60    59    1
    35    17    16    1
    36   143   142    1
    37   147   145    1
    38    50    51    1
    39    50    47    1
    40    92    93    1
    41    59    61    1
    42    59    58    1
    43    52    51   ar
    44    46    47    1
    45    16    11   am
    46    51    53   ar
    47   145   142    1
    48   145   146    1
    49    79    80    1
    50    95    94    2
    51   142   141    1
    52    93    94    1
    53    93    96    1
    54    15    13    1
    55    80    81    1
    56    80    83    1
    57    82    81    2
    58    47    48    1
    59    84    83    1
    60    58    55    1
    61    54    48   am
    62    54    55    1
    63    11    12    2
    64    11    10    1
    65   137   139   ar
    66   137   135   ar
    67    83    85    1
    68    48    49    2
    69   139   140   ar
    70    97    96    1
    71    97    99    1
    72    96    98    1
    73    55    56    1
    74    13    14    1
    75    13    10    1
    76    10     9    1
    77   134   135    1
    78   134   131    1
    79   135   136   ar
    80   140   138   ar
    81    56    57    2
    82   132   131    1
    83   132   133    2
    84   131   130    1
    85   122   121    2
    86     9     3   am
    87   136   138   ar
    88    78    76    1
    89     4     3    2
    90    66    67    1
    91    66    63    1
    92   121   120    1
    93   127   129   ar
    94   127   125   ar
    95     3     2    1
    96   129   128   ar
    97    62    63    1
    98    69    67   ar
    99    69    71   ar
   100   107   105    1
   101    67    68   ar
   102    76    77    1
   103    76    73    1
   104   125   124   ar
   105   128   126   ar
   106    63    64    1
   107    72    73    1
   108    72    64   am
   109    71    70   ar
   110   106   105    1
   111   124   126   ar
   112   124   123    1
   113    68    70   ar
   114     7     6    1
   115   120   123    1
   116   120   119    1
   117   105   104    1
   118     2     1    1
   119     2     5    1
   120    73    74    1
   121    64    65    2
   122     6     5    1
   123     6     8    1
   124    74    75    2
   125   104   101    1
   126   101   100    1
   127   101   102    1
   128   117   116    1
   129   118   116    1
   130   102   103    2
   131   116   115    2
   132   115   114    1
   133   114   113    1
   134   113   112    1
   135   112   109    1
   136   111   110    2
   137   108   109    1
   138   109   110    1
