@<TRIPOS>MOLECULE
tmp/3fqeA00.pdb
 160 152 0 0 0
SMALL
GASTEIGER

@<TRIPOS>ATOM
      1  N         -1.4310   -3.8850    8.7480 N.3    15  LEU15      -0.1231
      2  CA        -1.9690   -3.5300   10.0570 C.3    15  LEU15       0.1693
      3  C         -2.4320   -2.0830   10.1240 C.2    15  LEU15       0.2593
      4  O         -3.3400   -1.7440   10.8950 O.2    15  LEU15      -0.2718
      5  CB        -0.9230   -3.7800   11.1370 C.3    15  LEU15       0.0284
      6  CG        -0.4420   -5.2130   11.3380 C.3    15  LEU15       0.0019
      7  CD1        0.8110   -5.1700   12.1770 C.3    15  LEU15       0.0001
      8  CD2       -1.5050   -6.0970   11.9870 C.3    15  LEU15       0.0001
      9  N         -1.7960   -1.2390    9.3180 N.am   16  GLY16      -0.1942
     10  CA        -2.0850    0.1840    9.2900 C.3    16  GLY16       0.2014
     11  C         -1.5490    0.7860    8.0160 C.2    16  GLY16       0.2640
     12  O         -0.9120    0.1010    7.2110 O.2    16  GLY16      -0.2714
     13  N         -1.8020    2.0750    7.8340 N.am   17  SER17      -0.1935
     14  CA        -1.4270    2.7480    6.6070 C.3    17  SER17       0.2055
     15  C         -1.1040    4.2200    6.8280 C.2    17  SER17       0.2643
     16  O         -1.6860    4.8790    7.6980 O.2    17  SER17      -0.2714
     17  CB        -2.5390    2.6050    5.5640 C.3    17  SER17       0.2130
     18  OG        -2.1400    3.1800    4.3330 O.3    17  SER17      -0.2179
     19  N         -0.1650    4.7160    6.0300 N.am   18  GLY18      -0.1954
     20  CA         0.1620    6.1300    5.9850 C.3    18  GLY18       0.1869
     21  C          0.4640    6.5400    4.5540 C.2    18  GLY18       0.2309
     22  O          0.3070    5.7400    3.6270 O.2    18  GLY18      -0.2863
     23  N          3.3710    7.1830    3.3240 N.3    20  PHE20      -0.1241
     24  CA         4.6150    6.4780    2.9910 C.3    20  PHE20       0.1605
     25  C          4.4020    5.1080    2.3380 C.2    20  PHE20       0.2264
     26  O          5.2030    4.6790    1.5070 O.2    20  PHE20      -0.2867
     27  CB         5.4790    6.3190    4.2570 C.3    20  PHE20       0.0534
     28  CG         4.8140    5.5210    5.3560 C.ar   20  PHE20      -0.0203
     29  CD1        4.9490    4.1300    5.4120 C.ar   20  PHE20      -0.0042
     30  CD2        4.0400    6.1570    6.3280 C.ar   20  PHE20      -0.0042
     31  CE1        4.3270    3.3820    6.4210 C.ar   20  PHE20      -0.0003
     32  CE2        3.4180    5.4180    7.3470 C.ar   20  PHE20      -0.0003
     33  CZ         3.5640    4.0290    7.3930 C.ar   20  PHE20      -0.0000
     34  N          2.2480   -0.4670    7.0610 N.3    23  VAL23      -0.1245
     35  CA         2.8240   -1.0880    8.2470 C.3    23  VAL23       0.1561
     36  C          2.3480   -2.5360    8.2840 C.2    23  VAL23       0.2260
     37  O          1.1480   -2.8040    8.3100 O.2    23  VAL23      -0.2867
     38  CB         2.4280   -0.3510    9.5680 C.3    23  VAL23       0.0252
     39  CG1        3.1010   -1.0050   10.7790 C.3    23  VAL23       0.0019
     40  CG2        2.8000    1.1140    9.4990 C.3    23  VAL23       0.0019
     41  N          7.3810   -4.7820   13.6460 N.3    38  ALA38      -0.1245
     42  CA         6.5440   -4.0010   12.7550 C.3    38  ALA38       0.1562
     43  C          7.4840   -3.4140   11.7270 C.2    38  ALA38       0.2260
     44  O          8.5900   -2.9770   12.0740 O.2    38  ALA38      -0.2867
     45  CB         5.8150   -2.9060   13.5020 C.3    38  ALA38       0.0290
     46  N          7.8680   -0.7100    8.4780 N.3    40  LYS40      -0.1245
     47  CA         7.3630    0.3190    7.5870 C.3    40  LYS40       0.1561
     48  C          7.8960    0.0450    6.1840 C.2    40  LYS40       0.2260
     49  O          9.1130   -0.0390    5.9670 O.2    40  LYS40      -0.2867
     50  CB         7.7320    1.7300    8.0600 C.3    40  LYS40       0.0271
     51  CG         6.8590    2.2620    9.1970 C.3    40  LYS40       0.0035
     52  CD         7.0870    3.7690    9.4580 C.3    40  LYS40       0.0206
     53  CE         6.3630    4.2560   10.7210 C.3    40  LYS40       0.1093
     54  NZ         6.3800    5.7430   10.8600 N.3    40  LYS40      -0.1314
     55  N          9.7370    3.7320   21.0050 N.3    66  VAL66      -0.1245
     56  CA         9.8940    2.5400   20.1410 C.3    66  VAL66       0.1561
     57  C         11.3480    2.3470   19.6870 C.2    66  VAL66       0.2260
     58  O         12.0520    3.3100   19.3530 O.2    66  VAL66      -0.2867
     59  CB         8.9300    2.5270   18.9050 C.3    66  VAL66       0.0252
     60  CG1        9.3190    1.4220   17.9000 C.3    66  VAL66       0.0019
     61  CG2        7.4910    2.3110   19.3450 C.3    66  VAL66       0.0019
     62  N         11.1610   -2.3090   13.2520 N.3    81  MET81      -0.1230
     63  CA        11.0830   -1.9090   14.6530 C.3    81  MET81       0.1702
     64  C         10.5210   -3.0560   15.4620 C.2    81  MET81       0.2592
     65  O          9.8180   -3.8950   14.9190 O.2    81  MET81      -0.2718
     66  CB        10.1180   -0.7340   14.8000 C.3    81  MET81       0.0401
     67  CG        10.4260    0.4630   13.9380 C.3    81  MET81       0.0596
     68  SD         9.0080    1.5520   13.8570 S.3    81  MET81      -0.1393
     69  CE         8.0450    0.7540   12.5680 C.3    81  MET81       0.0692
     70  N         10.7960   -3.0700   16.7630 N.am   82  GLU82      -0.1966
     71  CA        10.0960   -3.9700   17.6660 C.3    82  GLU82       0.1733
     72  C          8.5950   -3.6820   17.5610 C.2    82  GLU82       0.2616
     73  O          8.1860   -2.5580   17.2430 O.2    82  GLU82      -0.2715
     74  CB        10.5860   -3.8040   19.1040 C.3    82  GLU82       0.0429
     75  CG        10.0920   -2.5450   19.7850 C.3    82  GLU82       0.1163
     76  CD        10.5670   -2.4050   21.2290 C.2    82  GLU82       0.3649
     77  OE1       10.9450   -3.4450   21.8620 O.co2  82  GLU82      -0.2457
     78  OE2       10.5540   -1.2410   21.7150 O.co2  82  GLU82      -0.2457
     79  N          7.7870   -4.7030   17.8160 N.am   83  MET83      -0.1963
     80  CA         6.3370   -4.6280   17.6130 C.3    83  MET83       0.1736
     81  C          5.5610   -4.2010   18.8830 C.2    83  MET83       0.2616
     82  O          5.7970   -4.7350   19.9640 O.2    83  MET83      -0.2715
     83  CB         5.8430   -5.9750   17.0600 C.3    83  MET83       0.0427
     84  CG         4.3550   -6.1990   17.1050 C.3    83  MET83       0.0599
     85  SD         3.3840   -5.1130   16.0560 S.3    83  MET83      -0.1393
     86  CE         3.6300   -5.8010   14.4510 C.3    83  MET83       0.0692
     87  N          4.6710   -3.2140   18.7410 N.am   84  ALA84      -0.1963
     88  CA         3.7170   -2.8280   19.8020 C.3    84  ALA84       0.1728
     89  C          2.3530   -3.4270   19.4700 C.2    84  ALA84       0.2616
     90  O          1.5790   -2.8670   18.7070 O.2    84  ALA84      -0.2715
     91  CB         3.6300   -1.3190   19.9470 C.3    84  ALA84       0.0334
     92  N          2.0940   -4.5860   20.0630 N.am   85  GLU85      -0.1963
     93  CA         1.0150   -5.4950   19.6820 C.3    85  GLU85       0.1733
     94  C         -0.4070   -4.9220   19.7020 C.2    85  GLU85       0.2616
     95  O         -1.2390   -5.2740   18.8500 O.2    85  GLU85      -0.2715
     96  CB         1.0920   -6.7250   20.5810 C.3    85  GLU85       0.0429
     97  CG         2.3360   -7.5740   20.3380 C.3    85  GLU85       0.1163
     98  CD         2.2050   -8.4400   19.0910 C.2    85  GLU85       0.3649
     99  OE1        3.2450   -8.8850   18.5630 O.co2  85  GLU85      -0.2457
    100  OE2        1.0560   -8.6850   18.6400 O.co2  85  GLU85      -0.2457
    101  N         -0.6810   -4.0550   20.6760 N.am   86  LEU86      -0.1963
    102  CA        -2.0210   -3.5190   20.8770 C.3    86  LEU86       0.1728
    103  C         -2.2730   -2.2660   20.0370 C.2    86  LEU86       0.2617
    104  O         -3.3710   -1.7180   20.0420 O.2    86  LEU86      -0.2715
    105  CB        -2.2740   -3.2600   22.3720 C.3    86  LEU86       0.0311
    106  CG        -2.9000   -4.3570   23.2470 C.3    86  LEU86       0.0022
    107  CD1       -2.1950   -5.7080   23.1360 C.3    86  LEU86       0.0001
    108  CD2       -2.9540   -3.9160   24.7030 C.3    86  LEU86       0.0001
    109  N         -1.2450   -1.8130   19.3250 N.am   87  GLY87      -0.1941
    110  CA        -1.3960   -0.7630   18.3190 C.3    87  GLY87       0.1998
    111  C         -1.5400    0.6690   18.8070 C.2    87  GLY87       0.2480
    112  O         -1.3120    0.9640   19.9890 O.2    87  GLY87      -0.2729
    113  N         -1.8950    1.5780   17.8790 N.am   88  PRO88      -0.2726
    114  CA        -2.0370    3.0220   18.1520 C.3    88  PRO88       0.1402
    115  C         -3.0890    3.3360   19.2240 C.2    88  PRO88       0.2269
    116  O         -4.2160    2.8170   19.1760 O.2    88  PRO88      -0.2865
    117  CB        -2.4210    3.6140   16.7910 C.3    88  PRO88       0.0296
    118  CG        -2.9080    2.4490   15.9710 C.3    88  PRO88       0.0237
    119  CD        -2.1540    1.2540   16.4630 C.3    88  PRO88       0.0939
    120  N         -2.3980    8.8550   17.6730 N.3   131  ARG131     -0.1231
    121  CA        -2.1900    7.8500   16.6230 C.3   131  ARG131      0.1694
    122  C         -0.7290    7.3930   16.5840 C.2   131  ARG131      0.2592
    123  O         -0.4250    6.3320   16.0460 O.2   131  ARG131     -0.2718
    124  CB        -2.6080    8.3990   15.2420 C.3   131  ARG131      0.0321
    125  CG        -1.6530    9.4500   14.6720 C.3   131  ARG131      0.0489
    126  CD        -2.2430   10.2370   13.5120 C.3   131  ARG131      0.2205
    127  NE        -1.3440   11.3360   13.1190 N.pl3 131  ARG131     -0.0865
    128  CZ        -1.5120   12.6220   13.4440 C.cat 131  ARG131      0.5346
    129  NH1       -2.5600   13.0090   14.1620 N.pl3 131  ARG131      0.1354
    130  NH2       -0.6300   13.5310   13.0380 N.pl3 131  ARG131      0.1354
    131  N          0.1700    8.2150   17.1320 N.am  132  ASN132     -0.1974
    132  CA         1.6100    7.9350   17.1260 C.3   132  ASN132      0.1688
    133  C          2.1380    7.4850   18.4870 C.2   132  ASN132      0.2292
    134  O          3.3670    7.4490   18.7250 O.2   132  ASN132     -0.2864
    135  CB         2.3940    9.1360   16.6030 C.3   132  ASN132      0.1181
    136  CG         2.0110    9.5020   15.1920 C.2   132  ASN132      0.2629
    137  OD1        1.5270    8.6600   14.4180 O.2   132  ASN132     -0.2716
    138  ND2        2.2240   10.7580   14.8390 N.am  132  ASN132     -0.0877
    139  N          2.0230    4.0880   20.7020 N.3   134  LEU134     -0.1245
    140  CA         1.8180    2.6840   20.4140 C.3   134  LEU134      0.1561
    141  C          1.8020    1.8750   21.7150 C.2   134  LEU134      0.2260
    142  O          2.6210    2.1150   22.6050 O.2   134  LEU134     -0.2867
    143  CB         2.9070    2.1980   19.4480 C.3   134  LEU134      0.0270
    144  CG         2.7150    2.3450   17.9240 C.3   134  LEU134      0.0019
    145  CD1        1.6450    1.3850   17.4220 C.3   134  LEU134      0.0001
    146  CD2        2.3860    3.7660   17.4930 C.3   134  LEU134      0.0001
    147  N          6.2270    6.5540   18.9370 N.3   144  SER144     -0.1202
    148  CA         6.8920    6.2540   17.6720 C.3   144  SER144      0.2020
    149  C          6.6380    7.3050   16.5870 C.2   144  SER144      0.2618
    150  O          6.2820    8.4570   16.8830 O.2   144  SER144     -0.2717
    151  CB         6.5360    4.8560   17.1730 C.3   144  SER144      0.2103
    152  OG         5.3740    4.8800   16.3780 O.3   144  SER144     -0.2182
    153  N          6.8600    6.9020   15.3350 N.am  145  ASP145     -0.1973
    154  CA         6.5490    7.7160   14.1630 C.3   145  ASP145      0.1709
    155  C          7.3550    9.0290   14.1440 C.2   145  ASP145      0.2293
    156  O          6.8130   10.1270   14.3580 O.2   145  ASP145     -0.2864
    157  CB         5.0340    7.9240   14.0620 C.3   145  ASP145      0.1436
    158  CG         4.2880    6.6210   13.8490 C.2   145  ASP145      0.3671
    159  OD1        4.3410    6.0690   12.7210 O.co2 145  ASP145     -0.2456
    160  OD2        3.6510    6.1260   14.8030 O.co2 145  ASP145     -0.2456
@<TRIPOS>BOND
     1    26    25    2
     2    25    24    1
     3    24    23    1
     4    24    27    1
     5    22    21    2
     6    27    28    1
     7    18    17    1
     8    21    20    1
     9    28    29   ar
    10    28    30   ar
    11    29    31   ar
    12    17    14    1
    13    49    48    2
    14    20    19    1
    15    19    15   am
    16    48    47    1
    17    30    32   ar
    18    31    33   ar
    19    14    15    1
    20    14    13    1
    21    15    16    2
    22    34    35    1
    23    12    11    2
    24    32    33   ar
    25    47    50    1
    26    47    46    1
    27    13    11   am
    28    11    10    1
    29    50    51    1
    30    35    36    1
    31    35    38    1
    32    36    37    2
    33     1     2    1
    34    51    52    1
    35    10     9    1
    36     9     3   am
    37    52    53    1
    38    40    38    1
    39    38    39    1
    40     2     3    1
    41     2     5    1
    42     3     4    2
    43    53    54    1
    44     5     6    1
    45     6     8    1
    46     6     7    1
    47    43    44    2
    48    43    42    1
    49    69    68    1
    50   159   158   ar
    51    42    45    1
    52    42    41    1
    53   130   128    1
    54   127   128    2
    55   127   126    1
    56    62    63    1
    57   128   129    1
    58   126   125    1
    59   158   157    1
    60   158   160   ar
    61    68    67    1
    62    67    66    1
    63   157   154    1
    64   155   154    1
    65   155   156    2
    66   154   153    1
    67   137   136    2
    68    86    85    1
    69    63    66    1
    70    63    64    1
    71   125   124    1
    72   138   136   am
    73    65    64    2
    74   136   135    1
    75   124   121    1
    76   153   149   am
    77    64    70   am
    78   118   119    1
    79   118   117    1
    80   123   122    2
    81    85    84    1
    82   152   151    1
    83   119   113    1
    84   122   121    1
    85   122   131   am
    86   149   150    2
    87   149   148    1
    88   135   132    1
    89   121   120    1
    90    70    71    1
    91   117   114    1
    92    83    84    1
    93    83    80    1
    94   132   131    1
    95   132   133    1
    96   151   148    1
    97    73    72    2
    98   145   144    1
    99   146   144    1
   100    72    71    1
   101    72    79   am
   102    80    79    1
   103    80    81    1
   104    71    74    1
   105   148   147    1
   106   113   114    1
   107   113   111   am
   108    60    59    1
   109   144   143    1
   110   114   115    1
   111   110   111    1
   112   110   109    1
   113   133   134    2
   114    99    98   ar
   115   100    98   ar
   116    90    89    2
   117    87    81   am
   118    87    88    1
   119   111   112    2
   120    95    94    2
   121    81    82    2
   122    59    61    1
   123    59    56    1
   124    98    97    1
   125    74    75    1
   126   116   115    2
   127   109   103   am
   128    58    57    2
   129   143   140    1
   130    89    88    1
   131    89    92   am
   132    93    94    1
   133    93    92    1
   134    93    96    1
   135    57    56    1
   136    94   101   am
   137    75    76    1
   138    88    91    1
   139   103   104    2
   140   103   102    1
   141    56    55    1
   142    97    96    1
   143   140   139    1
   144   140   141    1
   145   101   102    1
   146   102   105    1
   147    76    78   ar
   148    76    77   ar
   149   141   142    2
   150   105   106    1
   151   107   106    1
   152   106   108    1
