@<TRIPOS>MOLECULE
tmp/3fqhB00.pdb
 145 137 0 0 0
SMALL
GASTEIGER

@<TRIPOS>ATOM
      1  N         -3.6150   23.4310   56.3140 N.3    15  LEU15      -0.1231
      2  CA        -3.1080   22.1840   55.7210 C.3    15  LEU15       0.1693
      3  C         -2.4940   22.4150   54.3360 C.2    15  LEU15       0.2593
      4  O         -1.4050   21.9210   54.0430 O.2    15  LEU15      -0.2718
      5  CB        -4.2100   21.1170   55.6390 C.3    15  LEU15       0.0284
      6  CG        -4.8260   20.5410   56.9200 C.3    15  LEU15       0.0019
      7  CD1       -6.1300   19.8350   56.6020 C.3    15  LEU15       0.0001
      8  CD2       -3.8650   19.6010   57.6370 C.3    15  LEU15       0.0001
      9  N         -3.2050   23.1660   53.4970 N.am   16  GLY16      -0.1942
     10  CA        -2.7360   23.5190   52.1620 C.3    16  GLY16       0.2014
     11  C         -3.5930   24.5990   51.5290 C.2    16  GLY16       0.2639
     12  O         -4.6090   24.9980   52.0990 O.2    16  GLY16      -0.2714
     13  N         -3.1780   25.0720   50.3530 N.am   17  SER17      -0.1949
     14  CA        -3.9100   26.1020   49.6050 C.3    17  SER17       0.1924
     15  C         -4.2550   25.6340   48.1920 C.2    17  SER17       0.2314
     16  O         -3.3780   25.2220   47.4310 O.2    17  SER17      -0.2863
     17  CB        -3.1110   27.4080   49.5400 C.3    17  SER17       0.2116
     18  OG        -3.0450   28.0320   50.8080 O.3    17  SER17      -0.2180
     19  N         -7.3260   24.9930   52.7050 N.3    19  VAL19      -0.1245
     20  CA        -7.9570   23.8980   53.4440 C.3    19  VAL19       0.1561
     21  C         -7.4040   23.8860   54.8780 C.2    19  VAL19       0.2260
     22  O         -6.1830   23.8410   55.0870 O.2    19  VAL19      -0.2867
     23  CB        -7.7300   22.5140   52.7540 C.3    19  VAL19       0.0252
     24  CG1       -8.0940   21.3500   53.6860 C.3    19  VAL19       0.0019
     25  CG2       -8.5390   22.4100   51.4750 C.3    19  VAL19       0.0019
     26  N        -12.0600   18.5700   57.6510 N.3    34  ALA34      -0.1245
     27  CA       -11.2320   19.4220   56.8130 C.3    34  ALA34       0.1562
     28  C        -12.1700   20.3650   56.0780 C.2    34  ALA34       0.2260
     29  O        -13.2130   19.9590   55.5400 O.2    34  ALA34      -0.2867
     30  CB       -10.4180   18.5990   55.8550 C.3    34  ALA34       0.0290
     31  N        -14.4190   11.0420   49.5770 N.3    62  VAL62      -0.1245
     32  CA       -14.5720   11.9520   50.7110 C.3    62  VAL62       0.1561
     33  C        -16.0390   12.3910   50.8630 C.2    62  VAL62       0.2260
     34  O        -16.6440   12.9230   49.9160 O.2    62  VAL62      -0.2867
     35  CB       -13.6860   13.2100   50.5920 C.3    62  VAL62       0.0252
     36  CG1      -13.9520   14.1480   51.7820 C.3    62  VAL62       0.0019
     37  CG2      -12.2080   12.8420   50.5370 C.3    62  VAL62       0.0019
     38  N        -15.7580   18.9660   55.2500 N.3    77  MET77      -0.1230
     39  CA       -15.7110   17.5420   54.9130 C.3    77  MET77       0.1702
     40  C        -15.1280   16.7350   56.0670 C.2    77  MET77       0.2592
     41  O        -14.4560   17.2990   56.9140 O.2    77  MET77      -0.2718
     42  CB       -14.8610   17.3400   53.6520 C.3    77  MET77       0.0401
     43  CG       -15.4150   18.0310   52.3970 C.3    77  MET77       0.0596
     44  SD       -14.1510   18.2860   51.1400 S.3    77  MET77      -0.1393
     45  CE       -13.2430   19.6850   51.8300 C.3    77  MET77       0.0692
     46  N        -15.3780   15.4260   56.1020 N.am   78  GLU78      -0.1966
     47  CA       -14.6770   14.5610   57.0480 C.3    78  GLU78       0.1733
     48  C        -13.2090   14.4480   56.6610 C.2    78  GLU78       0.2616
     49  O        -12.8690   14.2440   55.5010 O.2    78  GLU78      -0.2715
     50  CB       -15.3060   13.1610   57.1690 C.3    78  GLU78       0.0429
     51  CG       -15.5380   12.4690   55.8640 C.3    78  GLU78       0.1163
     52  CD       -15.5860   10.9600   55.9790 C.2    78  GLU78       0.3649
     53  OE1      -15.8920   10.4460   57.0910 O.co2  78  GLU78      -0.2457
     54  OE2      -15.3230   10.3060   54.9300 O.co2  78  GLU78      -0.2457
     55  N        -12.3470   14.5800   57.6580 N.am   79  MET79      -0.1963
     56  CA       -10.9040   14.6190   57.4610 C.3    79  MET79       0.1736
     57  C        -10.3200   13.2340   57.2030 C.2    79  MET79       0.2616
     58  O        -10.4760   12.3280   58.0230 O.2    79  MET79      -0.2715
     59  CB       -10.2630   15.2270   58.7040 C.3    79  MET79       0.0427
     60  CG        -8.7530   15.1640   58.7410 C.3    79  MET79       0.0599
     61  SD        -7.9190   16.7440   58.7590 S.3    79  MET79      -0.1393
     62  CE        -8.7120   17.4790   60.1580 C.3    79  MET79       0.0692
     63  N         -9.6770   13.0760   56.0460 N.am   80  ALA80      -0.1963
     64  CA        -8.7180   11.9880   55.8150 C.3    80  ALA80       0.1728
     65  C         -7.3490   12.5010   56.2800 C.2    80  ALA80       0.2616
     66  O         -6.7280   13.3370   55.6260 O.2    80  ALA80      -0.2715
     67  CB        -8.6890   11.5900   54.3470 C.3    80  ALA80       0.0334
     68  N         -6.8930   12.0000   57.4200 N.am   81  GLU81      -0.1963
     69  CA        -5.8050   12.6470   58.1780 C.3    81  GLU81       0.1733
     70  C         -4.3770   12.4290   57.6840 C.2    81  GLU81       0.2616
     71  O         -3.5360   13.3160   57.8260 O.2    81  GLU81      -0.2715
     72  CB        -5.9390   12.3300   59.6730 C.3    81  GLU81       0.0429
     73  CG        -7.3400   12.6870   60.2030 C.3    81  GLU81       0.1163
     74  CD        -7.3940   12.8680   61.7030 C.2    81  GLU81       0.3649
     75  OE1       -8.4840   12.6660   62.2920 O.co2  81  GLU81      -0.2457
     76  OE2       -6.3440   13.2070   62.2850 O.co2  81  GLU81      -0.2457
     77  N         -4.1050   11.2660   57.1010 N.am   82  LEU82      -0.1963
     78  CA        -2.7940   10.9830   56.5000 C.3    82  LEU82       0.1728
     79  C         -2.4850   11.8290   55.2570 C.2    82  LEU82       0.2617
     80  O         -1.3410   11.8720   54.8250 O.2    82  LEU82      -0.2715
     81  CB        -2.6500    9.4920   56.1760 C.3    82  LEU82       0.0311
     82  CG        -1.9800    8.5740   57.2020 C.3    82  LEU82       0.0022
     83  CD1       -2.5540    8.7820   58.6030 C.3    82  LEU82       0.0001
     84  CD2       -2.1240    7.1190   56.7860 C.3    82  LEU82       0.0001
     85  N         -3.5000   12.4880   54.6930 N.am   83  GLY83      -0.1941
     86  CA        -3.3110   13.4400   53.5840 C.3    83  GLY83       0.1998
     87  C         -3.0880   12.7910   52.2230 C.2    83  GLY83       0.2480
     88  O         -3.3450   11.5910   52.0570 O.2    83  GLY83      -0.2729
     89  N         -2.5910   13.5770   51.2430 N.am   84  PRO84      -0.2726
     90  CA        -2.4300   13.1250   49.8500 C.3    84  PRO84       0.1402
     91  C         -1.5260   11.8980   49.6670 C.2    84  PRO84       0.2269
     92  O         -0.5420   11.7340   50.3930 O.2    84  PRO84      -0.2865
     93  CB        -1.8400   14.3590   49.1440 C.3    84  PRO84       0.0296
     94  CG        -2.1860   15.5260   50.0380 C.3    84  PRO84       0.0237
     95  CD        -2.1440   14.9730   51.4190 C.3    84  PRO84       0.0939
     96  N          2.4480   12.6510   48.4390 N.3    87  LYS87      -0.1245
     97  CA         3.3040   13.0730   49.5470 C.3    87  LYS87       0.1561
     98  C          3.5220   11.9400   50.5450 C.2    87  LYS87       0.2260
     99  O          4.6470   11.6960   50.9720 O.2    87  LYS87      -0.2867
    100  CB         2.7180   14.3090   50.2280 C.3    87  LYS87       0.0271
    101  CG         2.7790   15.5620   49.3560 C.3    87  LYS87       0.0035
    102  CD         1.8940   16.6610   49.9250 C.3    87  LYS87       0.0206
    103  CE         2.0220   17.9550   49.1190 C.3    87  LYS87       0.1093
    104  NZ         1.2300   19.0630   49.7270 N.3    87  LYS87      -0.1314
    105  N         -2.3550   13.4920   44.0180 N.3   127  ARG127     -0.1231
    106  CA        -2.5350   14.5920   44.9840 C.3   127  ARG127      0.1694
    107  C         -3.9790   14.7010   45.5420 C.2   127  ARG127      0.2592
    108  O         -4.1980   15.2740   46.6190 O.2   127  ARG127     -0.2718
    109  CB        -2.1040   15.9260   44.3540 C.3   127  ARG127      0.0321
    110  CG        -2.8500   16.2730   43.0670 C.3   127  ARG127      0.0489
    111  CD        -2.6700   17.7300   42.6570 C.3   127  ARG127      0.2205
    112  NE        -3.3190   18.0250   41.3760 N.pl3 127  ARG127     -0.0865
    113  CZ        -2.8560   17.6360   40.1850 C.cat 127  ARG127      0.5346
    114  NH1       -1.7440   16.9190   40.1010 N.pl3 127  ARG127      0.1354
    115  NH2       -3.5110   17.9520   39.0740 N.pl3 127  ARG127      0.1354
    116  N         -4.9350   14.1310   44.8010 N.am  128  ASN128     -0.1974
    117  CA        -6.3600   14.1280   45.1440 C.3   128  ASN128      0.1688
    118  C         -6.8780   12.7660   45.6090 C.2   128  ASN128      0.2292
    119  O         -8.0970   12.5390   45.6670 O.2   128  ASN128     -0.2864
    120  CB        -7.1890   14.6250   43.9570 C.3   128  ASN128      0.1181
    121  CG        -6.8710   16.0520   43.5990 C.2   128  ASN128      0.2629
    122  OD1       -6.3840   16.8170   44.4410 O.2   128  ASN128     -0.2716
    123  ND2       -7.1450   16.4310   42.3630 N.am  128  ASN128     -0.0877
    124  N         -6.8250   10.7760   48.9780 N.3   130  LEU130     -0.1245
    125  CA        -6.5420   11.0850   50.3680 C.3   130  LEU130      0.1561
    126  C         -6.5690    9.8340   51.2110 C.2   130  LEU130      0.2260
    127  O         -7.4380    8.9790   51.0360 O.2   130  LEU130     -0.2867
    128  CB        -7.5000   12.1570   50.9030 C.3   130  LEU130      0.0270
    129  CG        -7.4730   13.5200   50.2010 C.3   130  LEU130      0.0019
    130  CD1       -8.4150   14.4770   50.8870 C.3   130  LEU130      0.0001
    131  CD2       -6.0740   14.1280   50.1290 C.3   130  LEU130      0.0001
    132  N        -10.8070   12.7710   46.3500 N.3   140  SER140     -0.1202
    133  CA       -11.2470   14.0910   46.7840 C.3   140  SER140      0.2020
    134  C        -11.1680   15.0990   45.6490 C.2   140  SER140      0.2618
    135  O        -10.8140   14.7550   44.5260 O.2   140  SER140     -0.2717
    136  CB       -10.3990   14.5760   47.9620 C.3   140  SER140      0.2103
    137  OG        -9.0770   14.8740   47.5350 O.3   140  SER140     -0.2182
    138  N        -11.4930   16.3420   45.9790 N.am  141  ASP141     -0.1973
    139  CA       -11.4150   17.4880   45.0830 C.3   141  ASP141      0.1709
    140  C        -12.2980   17.3720   43.8530 C.2   141  ASP141      0.2293
    141  O        -11.8400   16.9910   42.7710 O.2   141  ASP141     -0.2864
    142  CB        -9.9730   17.8060   44.6860 C.3   141  ASP141      0.1436
    143  CG        -9.8000   19.2490   44.2640 C.2   141  ASP141      0.3671
    144  OD1       -8.6820   19.7710   44.4250 O.co2 141  ASP141     -0.2456
    145  OD2      -10.7870   19.8730   43.7980 O.co2 141  ASP141     -0.2456
@<TRIPOS>BOND
     1   115   113    1
     2   114   113    1
     3   113   112    2
     4   112   111    1
     5   123   121   am
     6   111   110    1
     7   141   140    2
     8   110   109    1
     9   121   120    1
    10   121   122    2
    11   145   143   ar
    12   140   139    1
    13   120   117    1
    14   105   106    1
    15   143   144   ar
    16   143   142    1
    17   109   106    1
    18   135   134    2
    19   142   139    1
    20   116   117    1
    21   116   107   am
    22   106   107    1
    23   139   138    1
    24   117   118    1
    25   107   108    2
    26   118   119    2
    27   134   138   am
    28   134   133    1
    29   132   133    1
    30   133   136    1
    31    16    15    2
    32   137   136    1
    33    15    14    1
    34    96    97    1
    35   124   125    1
    36   103   104    1
    37   103   102    1
    38    93    90    1
    39    93    94    1
    40   101   102    1
    41   101   100    1
    42    17    14    1
    43    17    18    1
    44    97   100    1
    45    97    98    1
    46    31    32    1
    47    14    13    1
    48    91    90    1
    49    91    92    2
    50    90    89    1
    51    34    33    2
    52    94    95    1
    53   131   129    1
    54   129   130    1
    55   129   128    1
    56    13    11   am
    57   125   128    1
    58   125   126    1
    59    37    35    1
    60    98    99    2
    61    35    32    1
    62    35    36    1
    63    32    33    1
    64   127   126    2
    65    44    45    1
    66    44    43    1
    67    89    95    1
    68    89    87   am
    69    25    23    1
    70    11    12    2
    71    11    10    1
    72    88    87    2
    73    10     9    1
    74    87    86    1
    75    43    42    1
    76    19    20    1
    77    23    20    1
    78    23    24    1
    79    20    21    1
    80     9     3   am
    81    86    85    1
    82    42    39    1
    83     4     3    2
    84     3     2    1
    85    67    64    1
    86    85    79   am
    87    80    79    2
    88    21    22    2
    89    39    38    1
    90    39    40    1
    91    54    52   ar
    92    79    78    1
    93    49    48    2
    94    29    28    2
    95    66    65    2
    96     5     2    1
    97     5     6    1
    98     2     1    1
    99    64    63    1
   100    64    65    1
   101    30    27    1
   102    51    52    1
   103    51    50    1
   104    52    53   ar
   105    63    57   am
   106    40    46   am
   107    40    41    2
   108    28    27    1
   109    46    47    1
   110    81    78    1
   111    81    82    1
   112    65    68   am
   113    78    77    1
   114     7     6    1
   115    48    47    1
   116    48    55   am
   117    84    82    1
   118    27    26    1
   119     6     8    1
   120    47    50    1
   121    77    70   am
   122    82    83    1
   123    57    56    1
   124    57    58    2
   125    68    69    1
   126    56    55    1
   127    56    59    1
   128    70    71    2
   129    70    69    1
   130    69    72    1
   131    59    60    1
   132    60    61    1
   133    61    62    1
   134    72    73    1
   135    73    74    1
   136    74    76   ar
   137    74    75   ar
