@<TRIPOS>MOLECULE
tmp/3fqiA00.pdb
 134 130 0 0 0
SMALL
GASTEIGER

@<TRIPOS>ATOM
      1  N         15.6530    8.9240    0.9760 N.3    31  ARG31      -0.1245
      2  CA        14.7210    7.7820    1.0350 C.3    31  ARG31       0.1563
      3  C         15.1870    6.5840    0.1890 C.2    31  ARG31       0.2260
      4  O         14.3890    5.7290   -0.2070 O.2    31  ARG31      -0.2867
      5  CB        13.2900    8.2260    0.6850 C.3    31  ARG31       0.0307
      6  CG        12.1650    7.3100    1.1900 C.3    31  ARG31       0.0489
      7  CD        12.0020    7.3990    2.6930 C.3    31  ARG31       0.2205
      8  NE        10.8210    6.6830    3.1750 N.pl3  31  ARG31      -0.0865
      9  CZ        10.5330    6.5040    4.4620 C.cat  31  ARG31       0.5346
     10  NH1       11.3510    6.9750    5.4020 N.pl3  31  ARG31       0.1354
     11  NH2        9.4340    5.8480    4.8170 N.pl3  31  ARG31       0.1354
     12  N          9.3150   13.9880    5.1980 N.3    63  ARG63      -0.1245
     13  CA         9.0390   12.9990    4.1640 C.3    63  ARG63       0.1563
     14  C          7.7800   13.3810    3.3840 C.2    63  ARG63       0.2260
     15  O          6.8270   13.8970    3.9530 O.2    63  ARG63      -0.2867
     16  CB         8.8770   11.6230    4.8050 C.3    63  ARG63       0.0307
     17  CG         8.7790   10.4580    3.8290 C.3    63  ARG63       0.0489
     18  CD         8.5850    9.1520    4.5640 C.3    63  ARG63       0.2205
     19  NE         7.3060    9.0690    5.2720 N.pl3  63  ARG63      -0.0865
     20  CZ         6.1870    8.5740    4.7460 C.cat  63  ARG63       0.5346
     21  NH1        6.1690    8.1250    3.5020 N.pl3  63  ARG63       0.1354
     22  NH2        5.0790    8.5350    5.4700 N.pl3  63  ARG63       0.1354
     23  N          4.6260   12.3860    2.2750 N.3    65  GLU65      -0.1245
     24  CA         3.6730   11.3350    2.6370 C.3    65  GLU65       0.1567
     25  C          2.7290   10.8970    1.5100 C.2    65  GLU65       0.2260
     26  O          1.9770    9.9300    1.6680 O.2    65  GLU65      -0.2867
     27  CB         2.8690   11.7400    3.8790 C.3    65  GLU65       0.0388
     28  CG         3.6700   11.6680    5.1720 C.3    65  GLU65       0.1160
     29  CD         2.9320   12.2390    6.3680 C.2    65  GLU65       0.3649
     30  OE1        1.9420   11.6200    6.8140 O.co2  65  GLU65      -0.2457
     31  OE2        3.3560   13.2990    6.8760 O.co2  65  GLU65      -0.2457
     32  N          3.7870    9.7170   -1.3590 N.3    67  VAL67      -0.1231
     33  CA         4.3960    8.4850   -1.8520 C.3    67  VAL67       0.1692
     34  C          3.9620    7.3510   -0.9320 C.2    67  VAL67       0.2592
     35  O          4.3160    7.3360    0.2450 O.2    67  VAL67      -0.2718
     36  CB         5.9450    8.5630   -1.8700 C.3    67  VAL67       0.0266
     37  CG1        6.5370    7.3560   -2.5950 C.3    67  VAL67       0.0020
     38  CG2        6.4210    9.8560   -2.5170 C.3    67  VAL67       0.0020
     39  N          3.1820    6.4130   -1.4570 N.am   68  GLN68      -0.1966
     40  CA         2.7360    5.2850   -0.6340 C.3    68  GLN68       0.1733
     41  C          3.6170    4.0660   -0.8870 C.2    68  GLN68       0.2616
     42  O          3.4460    3.3410   -1.8640 O.2    68  GLN68      -0.2715
     43  CB         1.2520    4.9930   -0.8520 C.3    68  GLN68       0.0408
     44  CG         0.3420    6.2050   -0.6140 C.3    68  GLN68       0.0908
     45  CD        -0.0290    6.4170    0.8450 C.2    68  GLN68       0.2608
     46  OE1        0.1270    7.5170    1.3860 O.2    68  GLN68      -0.2717
     47  NE2       -0.5350    5.3670    1.4890 N.am   68  GLN68      -0.0878
     48  N          4.5740    3.8580    0.0110 N.am   69  GLU69      -0.1963
     49  CA         5.5930    2.8370   -0.1730 C.3    69  GLU69       0.1733
     50  C          5.0730    1.4460    0.1110 C.2    69  GLU69       0.2616
     51  O          5.6540    0.4700   -0.3540 O.2    69  GLU69      -0.2715
     52  CB         6.8080    3.1330    0.7010 C.3    69  GLU69       0.0429
     53  CG         7.3780    4.5020    0.4440 C.3    69  GLU69       0.1163
     54  CD         8.4140    4.8900    1.4470 C.2    69  GLU69       0.3649
     55  OE1        8.3640    4.3870    2.5940 O.co2  69  GLU69      -0.2457
     56  OE2        9.2810    5.7020    1.0830 O.co2  69  GLU69      -0.2457
     57  N          3.9760    1.3780    0.8690 N.am   70  ARG70      -0.1977
     58  CA         3.3450    0.1220    1.2630 C.3    70  ARG70       0.1597
     59  C          4.4080   -0.8430    1.8020 C.2    70  ARG70       0.2287
     60  O          5.1730   -0.4630    2.6880 O.2    70  ARG70      -0.2864
     61  CB         2.4960   -0.4530    0.1110 C.3    70  ARG70       0.0334
     62  CG         1.3750    0.5160   -0.2870 C.3    70  ARG70       0.0492
     63  CD         0.4990    0.0130   -1.3910 C.3    70  ARG70       0.2205
     64  NE         1.1470    0.0820   -2.6960 N.pl3  70  ARG70      -0.0865
     65  CZ         0.5200   -0.1210   -3.8540 C.cat  70  ARG70       0.5346
     66  NH1       -0.7720   -0.4080   -3.8820 N.pl3  70  ARG70       0.1354
     67  NH2        1.1950   -0.0350   -4.9900 N.pl3  70  ARG70       0.1354
     68  N          4.0850   -4.7950    8.2680 N.3    94  TRP94      -0.1227
     69  CA         4.8020   -3.8490    9.1440 C.3    94  TRP94       0.1737
     70  C          4.3540   -4.0580   10.5830 C.2    94  TRP94       0.2595
     71  O          3.1810   -4.3650   10.8470 O.2    94  TRP94      -0.2718
     72  CB         4.5160   -2.3970    8.7390 C.3    94  TRP94       0.0564
     73  CG         5.2980   -1.9760    7.5450 C.ar   94  TRP94       0.0003
     74  CD1        4.8750   -1.9570    6.2430 C.ar   94  TRP94       0.0946
     75  CD2        6.6570   -1.5350    7.5330 C.ar   94  TRP94       0.0152
     76  NE1        5.8890   -1.5300    5.4230 N.ar   94  TRP94      -0.2442
     77  CE2        6.9950   -1.2610    6.1880 C.ar   94  TRP94       0.0810
     78  CE3        7.6210   -1.3340    8.5320 C.ar   94  TRP94       0.0012
     79  CZ2        8.2660   -0.8020    5.8110 C.ar   94  TRP94       0.0191
     80  CZ3        8.8810   -0.8780    8.1610 C.ar   94  TRP94       0.0001
     81  CH2        9.1920   -0.6190    6.8080 C.ar   94  TRP94       0.0015
     82  N          5.2810   -3.8720   11.5160 N.am   95  ARG95      -0.1966
     83  CA         4.9420   -3.8230   12.9430 C.3    95  ARG95       0.1729
     84  C          3.7190   -2.9410   13.2230 C.2    95  ARG95       0.2617
     85  O          2.8160   -3.3480   13.9620 O.2    95  ARG95      -0.2715
     86  CB         6.1430   -3.3160   13.7470 C.3    95  ARG95       0.0348
     87  CG         5.9580   -3.3200   15.2770 C.3    95  ARG95       0.0492
     88  CD         5.4040   -1.9990   15.8160 C.3    95  ARG95       0.2205
     89  NE         6.1620   -0.8430   15.3340 N.pl3  95  ARG95      -0.0865
     90  CZ         7.3500   -0.4520   15.7920 C.cat  95  ARG95       0.5346
     91  NH1        7.9510   -1.0990   16.7790 N.pl3  95  ARG95       0.1354
     92  NH2        7.9410    0.6120   15.2600 N.pl3  95  ARG95       0.1354
     93  N          3.7050   -1.7380   12.6460 N.am   96  GLY96      -0.1940
     94  CA         2.6330   -0.7560   12.8840 C.3    96  GLY96       0.2014
     95  C          1.2460   -1.2630   12.5370 C.2    96  GLY96       0.2638
     96  O          0.2550   -0.9170   13.1940 O.2    96  GLY96      -0.2714
     97  N          1.1800   -2.0940   11.5030 N.am   97  HIS97      -0.1973
     98  CA        -0.0710   -2.7130   11.0820 C.3    97  HIS97       0.1656
     99  C         -0.5920   -3.6250   12.1940 C.2    97  HIS97       0.2291
    100  O         -1.7570   -3.5240   12.5800 O.2    97  HIS97      -0.2864
    101  CB         0.1370   -3.4710    9.7700 C.3    97  HIS97       0.0771
    102  CG         0.5730   -2.6050    8.6260 C.ar   97  HIS97       0.0820
    103  ND1        0.8640   -1.2640    8.7660 N.ar   97  HIS97      -0.2267
    104  CD2        0.7760   -2.8950    7.3200 C.ar   97  HIS97       0.1154
    105  CE1        1.2250   -0.7660    7.5970 C.ar   97  HIS97       0.1986
    106  NE2        1.1750   -1.7360    6.7020 N.ar   97  HIS97      -0.2212
    107  N          8.7220   -5.8870    9.7240 N.3   195  SER195     -0.1202
    108  CA         9.7160   -4.8510    9.9780 C.3   195  SER195      0.2020
    109  C          9.1000   -3.7730   10.8560 C.2   195  SER195      0.2619
    110  O          7.8870   -3.6010   10.8710 O.2   195  SER195     -0.2717
    111  CB        10.2390   -4.2470    8.6740 C.3   195  SER195      0.2103
    112  OG         9.1770   -4.0630    7.7490 O.3   195  SER195     -0.2182
    113  N          9.9460   -3.0730   11.6030 N.am  196  GLY196     -0.1942
    114  CA         9.5170   -1.9600   12.4390 C.3   196  GLY196      0.2014
    115  C         10.6080   -0.9100   12.5030 C.2   196  GLY196      0.2638
    116  O         11.7850   -1.2470   12.6430 O.2   196  GLY196     -0.2714
    117  N         10.2260    0.3600   12.3820 N.am  197  GLU197     -0.1977
    118  CA        11.1780    1.4590   12.5740 C.3   197  GLU197      0.1602
    119  C         11.6440    1.5020   14.0440 C.2   197  GLU197      0.2287
    120  O         10.8420    1.3470   14.9680 O.2   197  GLU197     -0.2864
    121  CB        10.6000    2.8030   12.0770 C.3   197  GLU197      0.0415
    122  CG        10.1790    2.7380   10.5950 C.3   197  GLU197      0.1163
    123  CD         9.6350    4.0420   10.0080 C.2   197  GLU197      0.3649
    124  OE1        9.0520    4.8590   10.7530 O.co2 197  GLU197     -0.2457
    125  OE2        9.7830    4.2300    8.7720 O.co2 197  GLU197     -0.2457
    126  N          2.8680   -0.9990   20.4910 N.3   243  GLN243     -0.1245
    127  CA         3.9640   -0.7190   19.5630 C.3   243  GLN243      0.1566
    128  C          5.2660   -1.4320   19.9520 C.2   243  GLN243      0.2260
    129  O          5.9300   -2.0150   19.0920 O.2   243  GLN243     -0.2867
    130  CB         4.2030    0.7950   19.4360 C.3   243  GLN243      0.0367
    131  CG         5.2110    1.1530   18.3400 C.3   243  GLN243      0.0905
    132  CD         5.8190    2.5250   18.5070 C.2   243  GLN243      0.2608
    133  OE1        5.6120    3.1910   19.5250 O.2   243  GLN243     -0.2717
    134  NE2        6.5860    2.9590   17.5070 N.am  243  GLN243     -0.0878
@<TRIPOS>BOND
     1    67    65    1
     2    66    65    1
     3    65    64    2
     4    64    63    1
     5    37    36    1
     6    38    36    1
     7    36    33    1
     8    42    41    2
     9    33    32    1
    10    33    34    1
    11    39    34   am
    12    39    40    1
    13    63    62    1
    14    34    35    2
    15    41    40    1
    16    41    48   am
    17    43    40    1
    18    43    44    1
    19    44    45    1
    20    51    50    2
    21    62    61    1
    22     4     3    2
    23    49    48    1
    24    49    50    1
    25    49    52    1
    26    50    57   am
    27    61    58    1
    28     3     2    1
    29    53    52    1
    30    53    54    1
    31     5     2    1
    32     5     6    1
    33    45    46    2
    34    45    47   am
    35    57    58    1
    36     1     2    1
    37    56    54   ar
    38     6     7    1
    39    58    59    1
    40    54    55   ar
    41    25    26    2
    42    25    24    1
    43    59    60    2
    44    23    24    1
    45    24    27    1
    46     7     8    1
    47     8     9    2
    48    14    15    2
    49    14    13    1
    50    21    20    1
    51    17    18    1
    52    17    16    1
    53    27    28    1
    54    13    16    1
    55    13    12    1
    56     9    11    1
    57     9    10    1
    58    18    19    1
    59    20    19    2
    60    20    22    1
    61    28    29    1
    62    76    77   ar
    63    76    74   ar
    64    79    77   ar
    65    79    81   ar
    66    77    75   ar
    67    74    73   ar
    68    29    30   ar
    69    29    31   ar
    70   106   104   ar
    71   106   105   ar
    72    81    80   ar
    73   104   102   ar
    74    75    73   ar
    75    75    78   ar
    76    73    72    1
    77   105   103   ar
    78   112   111    1
    79    80    78   ar
    80    68    69    1
    81   102   103   ar
    82   102   101    1
    83   111   108    1
    84    72    69    1
    85   125   123   ar
    86    69    70    1
    87   107   108    1
    88   101    98    1
    89   108   109    1
    90   123   122    1
    91   123   124   ar
    92    70    71    2
    93    70    82   am
    94   122   121    1
    95   109   110    2
    96   109   113   am
    97    98    97    1
    98    98    99    1
    99    97    95   am
   100    82    83    1
   101   113   114    1
   102   121   118    1
   103    99   100    2
   104   117   115   am
   105   117   118    1
   106   114   115    1
   107   115   116    2
   108    95    94    1
   109    95    96    2
   110   118   119    1
   111    93    94    1
   112    93    84   am
   113    83    84    1
   114    83    86    1
   115    84    85    2
   116    86    87    1
   117   119   120    2
   118    92    90    1
   119    87    88    1
   120    89    90    2
   121    89    88    1
   122    90    91    1
   123   134   132   am
   124   131   132    1
   125   131   130    1
   126   132   133    2
   127   129   128    2
   128   130   127    1
   129   127   128    1
   130   127   126    1
