@<TRIPOS>MOLECULE
tmp/3fqjA00.pdb
 169 161 0 0 0
SMALL
GASTEIGER

@<TRIPOS>ATOM
      1  N          4.5880  -25.5290   29.1500 N.3    26  PHE26      -0.1241
      2  CA         5.0160  -26.8840   28.8500 C.3    26  PHE26       0.1605
      3  C          5.2490  -27.0560   27.3540 C.2    26  PHE26       0.2264
      4  O          4.8480  -26.2110   26.5550 O.2    26  PHE26      -0.2867
      5  CB         4.0070  -27.9080   29.3820 C.3    26  PHE26       0.0534
      6  CG         2.6250  -27.7800   28.7890 C.ar   26  PHE26      -0.0203
      7  CD1        2.2940  -28.4380   27.6050 C.ar   26  PHE26      -0.0042
      8  CD2        1.6510  -27.0270   29.4270 C.ar   26  PHE26      -0.0042
      9  CE1        1.0230  -28.3270   27.0560 C.ar   26  PHE26      -0.0003
     10  CE2        0.3800  -26.9110   28.8880 C.ar   26  PHE26      -0.0003
     11  CZ         0.0650  -27.5630   27.7000 C.ar   26  PHE26      -0.0000
     12  N          5.3370  -29.9500   23.9510 N.3    28  LEU28      -0.1245
     13  CA         5.1440  -31.2670   23.3510 C.3    28  LEU28       0.1561
     14  C          6.2580  -31.5130   22.3390 C.2    28  LEU28       0.2260
     15  O          6.6610  -30.5900   21.6090 O.2    28  LEU28      -0.2867
     16  CB         3.7630  -31.3840   22.7050 C.3    28  LEU28       0.0270
     17  CG         2.5920  -31.0360   23.6300 C.3    28  LEU28       0.0019
     18  CD1        1.2850  -31.0140   22.8690 C.3    28  LEU28       0.0001
     19  CD2        2.5030  -31.9860   24.8070 C.3    28  LEU28       0.0001
     20  N          4.5610  -36.0950   20.5230 N.3    32  ARG32      -0.1245
     21  CA         3.4150  -35.5810   21.2830 C.3    32  ARG32       0.1563
     22  C          3.5010  -35.8790   22.7880 C.2    32  ARG32       0.2260
     23  O          2.4750  -36.0260   23.4660 O.2    32  ARG32      -0.2867
     24  CB         2.0980  -36.1020   20.6830 C.3    32  ARG32       0.0307
     25  CG         0.8740  -35.2420   20.9500 C.3    32  ARG32       0.0489
     26  CD         0.9520  -33.9150   20.2200 C.3    32  ARG32       0.2205
     27  NE        -0.1820  -33.0610   20.5520 N.pl3  32  ARG32      -0.0865
     28  CZ        -0.3080  -31.7940   20.1750 C.cat  32  ARG32       0.5346
     29  NH1        0.6360  -31.2040   19.4520 N.pl3  32  ARG32       0.1354
     30  NH2       -1.3820  -31.1150   20.5310 N.pl3  32  ARG32       0.1354
     31  N          0.4570  -34.0290   13.0190 N.3    69  ARG69      -0.1231
     32  CA        -0.0310  -34.6540   14.2350 C.3    69  ARG69       0.1694
     33  C         -1.2960  -35.4420   13.9180 C.2    69  ARG69       0.2592
     34  O         -2.1250  -35.0040   13.1100 O.2    69  ARG69      -0.2718
     35  CB        -0.2820  -33.6160   15.3240 C.3    69  ARG69       0.0321
     36  CG        -1.7210  -33.1870   15.4740 C.3    69  ARG69       0.0489
     37  CD        -1.8630  -32.2020   16.6010 C.3    69  ARG69       0.2205
     38  NE        -1.3840  -30.8830   16.2020 N.pl3  69  ARG69      -0.0865
     39  CZ        -2.1610  -29.9220   15.7140 C.cat  69  ARG69       0.5346
     40  NH1       -3.4680  -30.1290   15.5700 N.pl3  69  ARG69       0.1354
     41  NH2       -1.6290  -28.7500   15.3770 N.pl3  69  ARG69       0.1354
     42  N         -1.4170  -36.6130   14.5410 N.am   70  ASP70      -0.1960
     43  CA        -2.5550  -37.5020   14.3380 C.3    70  ASP70       0.1840
     44  C         -3.8150  -36.8840   14.9410 C.2    70  ASP70       0.2621
     45  O         -3.9080  -36.6880   16.1510 O.2    70  ASP70      -0.2715
     46  CB        -2.2630  -38.8650   14.9600 C.3    70  ASP70       0.1450
     47  CG        -3.3600  -39.8760   14.7080 C.2    70  ASP70       0.3671
     48  OD1       -4.4160  -39.5180   14.1370 O.co2  70  ASP70      -0.2456
     49  OD2       -3.1570  -41.0450   15.0910 O.co2  70  ASP70      -0.2456
     50  N         -4.7800  -36.5830   14.0840 N.am   71  GLU71      -0.1977
     51  CA        -5.9290  -35.7720   14.4770 C.3    71  GLU71       0.1602
     52  C         -7.1010  -36.5800   15.0180 C.2    71  GLU71       0.2287
     53  O         -8.0470  -36.0090   15.5640 O.2    71  GLU71      -0.2864
     54  CB        -6.3810  -34.8820   13.3100 C.3    71  GLU71       0.0415
     55  CG        -5.5700  -33.5920   13.1460 C.3    71  GLU71       0.1163
     56  CD        -5.7840  -32.9310   11.7840 C.2    71  GLU71       0.3649
     57  OE1       -5.9490  -33.6620   10.7780 O.co2  71  GLU71      -0.2457
     58  OE2       -5.7830  -31.6800   11.7180 O.co2  71  GLU71      -0.2457
     59  N         -6.7670  -38.6970   17.4530 N.3    73  VAL73      -0.1245
     60  CA        -6.5250  -38.7300   18.8980 C.3    73  VAL73       0.1561
     61  C         -7.2080  -37.5580   19.6020 C.2    73  VAL73       0.2260
     62  O         -6.8620  -36.4060   19.3790 O.2    73  VAL73      -0.2867
     63  CB        -5.0150  -38.7260   19.2260 C.3    73  VAL73       0.0252
     64  CG1       -4.7920  -38.9190   20.7190 C.3    73  VAL73       0.0019
     65  CG2       -4.2830  -39.8100   18.4250 C.3    73  VAL73       0.0019
     66  N         -7.4870  -35.4050   22.6350 N.3    75  GLU75      -0.1245
     67  CA        -6.5360  -35.0540   23.6910 C.3    75  GLU75       0.1567
     68  C         -7.2350  -34.3880   24.8650 C.2    75  GLU75       0.2260
     69  O         -6.7390  -34.4420   25.9920 O.2    75  GLU75      -0.2867
     70  CB        -5.4310  -34.1470   23.1410 C.3    75  GLU75       0.0388
     71  CG        -4.5490  -34.8250   22.1060 C.3    75  GLU75       0.1160
     72  CD        -3.4010  -33.9480   21.6400 C.2    75  GLU75       0.3649
     73  OE1       -3.6620  -32.9130   20.9780 O.co2  75  GLU75      -0.2457
     74  OE2       -2.2330  -34.3040   21.9200 O.co2  75  GLU75      -0.2457
     75  N         -3.1180  -32.5320   28.6410 N.3    79  HIS79      -0.1241
     76  CA        -1.8240  -31.8820   28.8190 C.3    79  HIS79       0.1621
     77  C         -1.8940  -30.7550   29.8560 C.2    79  HIS79       0.2264
     78  O         -0.9990  -30.6190   30.6810 O.2    79  HIS79      -0.2867
     79  CB        -1.2730  -31.3700   27.4860 C.3    79  HIS79       0.0745
     80  CG        -1.0060  -32.4510   26.4840 C.ar   79  HIS79       0.0817
     81  ND1       -0.4460  -33.6640   26.8240 N.ar   79  HIS79      -0.2268
     82  CD2       -1.2030  -32.4920   25.1440 C.ar   79  HIS79       0.1154
     83  CE1       -0.3240  -34.4110   25.7410 C.ar   79  HIS79       0.1986
     84  NE2       -0.7710  -33.7210   24.7070 N.ar   79  HIS79      -0.2212
     85  N         -8.5720  -24.5190   27.2010 N.3   100  TRP100     -0.1227
     86  CA        -7.6080  -24.0630   26.2180 C.3   100  TRP100      0.1737
     87  C         -8.0250  -22.6960   25.6820 C.2   100  TRP100      0.2595
     88  O         -9.2050  -22.4560   25.4000 O.2   100  TRP100     -0.2718
     89  CB        -7.5250  -25.0250   25.0360 C.3   100  TRP100      0.0564
     90  CG        -7.0970  -26.4180   25.3540 C.ar  100  TRP100      0.0003
     91  CD1       -7.8520  -27.5480   25.2260 C.ar  100  TRP100      0.0946
     92  CD2       -5.8110  -26.8460   25.8110 C.ar  100  TRP100      0.0152
     93  NE1       -7.1240  -28.6510   25.5910 N.ar  100  TRP100     -0.2442
     94  CE2       -5.8670  -28.2490   25.9540 C.ar  100  TRP100      0.0810
     95  CE3       -4.6200  -26.1820   26.1270 C.ar  100  TRP100      0.0012
     96  CZ2       -4.7800  -29.0010   26.3970 C.ar  100  TRP100      0.0191
     97  CZ3       -3.5340  -26.9360   26.5620 C.ar  100  TRP100      0.0001
     98  CH2       -3.6250  -28.3290   26.6930 C.ar  100  TRP100      0.0015
     99  N         -7.0400  -21.8150   25.5210 N.am  101  ARG101     -0.1966
    100  CA        -7.2230  -20.5070   24.8900 C.3   101  ARG101      0.1729
    101  C         -8.1350  -20.5690   23.6620 C.2   101  ARG101      0.2617
    102  O         -9.0150  -19.7160   23.4920 O.2   101  ARG101     -0.2715
    103  CB        -5.8620  -19.9320   24.5070 C.3   101  ARG101      0.0348
    104  CG        -5.8940  -18.5410   23.8780 C.3   101  ARG101      0.0492
    105  CD        -6.0310  -18.5820   22.3380 C.3   101  ARG101      0.2205
    106  NE        -5.0800  -19.4930   21.7060 N.pl3 101  ARG101     -0.0865
    107  CZ        -3.8000  -19.2150   21.4740 C.cat 101  ARG101      0.5346
    108  NH1       -3.2860  -18.0330   21.8100 N.pl3 101  ARG101      0.1354
    109  NH2       -3.0290  -20.1280   20.8970 N.pl3 101  ARG101      0.1354
    110  N         -7.9170  -21.5830   22.8200 N.am  102  GLY102     -0.1940
    111  CA        -8.6940  -21.8040   21.5990 C.3   102  GLY102      0.2014
    112  C        -10.1860  -21.8920   21.8330 C.2   102  GLY102      0.2638
    113  O        -10.9770  -21.3690   21.0460 O.2   102  GLY102     -0.2714
    114  N        -10.5790  -22.5480   22.9190 N.am  103  HIS103     -0.1973
    115  CA       -11.9950  -22.6430   23.2830 C.3   103  HIS103      0.1656
    116  C        -12.5540  -21.2430   23.5870 C.2   103  HIS103      0.2291
    117  O        -13.6580  -20.9010   23.1500 O.2   103  HIS103     -0.2864
    118  CB       -12.1860  -23.5730   24.4880 C.3   103  HIS103      0.0771
    119  CG       -11.6840  -24.9670   24.2740 C.ar  103  HIS103      0.0820
    120  ND1      -11.0280  -25.3610   23.1290 N.ar  103  HIS103     -0.2267
    121  CD2      -11.7190  -26.0570   25.0780 C.ar  103  HIS103      0.1154
    122  CE1      -10.7030  -26.6370   23.2250 C.ar  103  HIS103      0.1986
    123  NE2      -11.1080  -27.0840   24.4000 N.ar  103  HIS103     -0.2212
    124  N        -11.3610  -18.4430   22.4260 N.3   105  THR105     -0.1218
    125  CA       -11.3980  -17.7670   21.1220 C.3   105  THR105      0.1862
    126  C        -12.7700  -17.9000   20.4460 C.2   105  THR105      0.2287
    127  O        -13.3310  -16.9100   19.9540 O.2   105  THR105     -0.2866
    128  CB       -10.3230  -18.3050   20.1600 C.3   105  THR105      0.1770
    129  OG1       -9.0390  -18.2690   20.7970 O.3   105  THR105     -0.2211
    130  CG2      -10.2820  -17.4750   18.8750 C.3   105  THR105      0.0375
    131  N          4.7830  -28.5890   19.9230 N.3   184  ALA184     -0.1245
    132  CA         4.1260  -27.3430   20.3060 C.3   184  ALA184      0.1562
    133  C          4.6990  -26.7590   21.6010 C.2   184  ALA184      0.2260
    134  O          5.1620  -27.4970   22.4720 O.2   184  ALA184     -0.2867
    135  CB         2.6240  -27.5610   20.4400 C.3   184  ALA184      0.0290
    136  N          3.4490  -24.2960   24.7890 N.3   186  CYS186     -0.1235
    137  CA         2.2510  -23.7230   25.3950 C.3   186  CYS186      0.1677
    138  C          2.5710  -22.9170   26.6300 C.2   186  CYS186      0.2270
    139  O          3.3550  -23.3520   27.4710 O.2   186  CYS186     -0.2867
    140  CB         1.2520  -24.8200   25.7590 C.3   186  CYS186      0.0956
    141  SG         0.6730  -25.7890   24.3640 S.3   186  CYS186     -0.0801
    142  N         -4.4450  -22.3140   28.8000 N.3   201  SER201     -0.1202
    143  CA        -3.1810  -22.2430   28.0780 C.3   201  SER201      0.2020
    144  C         -3.3760  -22.2710   26.5790 C.2   201  SER201      0.2619
    145  O         -4.2910  -22.9240   26.0690 O.2   201  SER201     -0.2717
    146  CB        -2.2130  -23.3510   28.5080 C.3   201  SER201      0.2103
    147  OG        -2.7320  -24.6330   28.2340 O.3   201  SER201     -0.2182
    148  N         -2.5000  -21.5570   25.8800 N.am  202  GLY202     -0.1942
    149  CA        -2.4930  -21.5690   24.4280 C.3   202  GLY202      0.2014
    150  C         -1.1220  -21.8140   23.8280 C.2   202  GLY202      0.2638
    151  O         -0.0930  -21.4860   24.4360 O.2   202  GLY202     -0.2714
    152  N         -1.1310  -22.4040   22.6330 N.am  203  GLU203     -0.1977
    153  CA         0.0360  -22.5350   21.7770 C.3   203  GLU203      0.1602
    154  C          0.6290  -21.1500   21.5460 C.2   203  GLU203      0.2287
    155  O         -0.0800  -20.2210   21.1430 O.2   203  GLU203     -0.2864
    156  CB        -0.3920  -23.1490   20.4420 C.3   203  GLU203      0.0415
    157  CG         0.6790  -23.9300   19.6680 C.3   203  GLU203      0.1163
    158  CD         0.0830  -24.9630   18.6710 C.2   203  GLU203      0.3649
    159  OE1       -1.1730  -25.0890   18.5550 O.co2 203  GLU203     -0.2457
    160  OE2        0.8810  -25.6600   17.9930 O.co2 203  GLU203     -0.2457
    161  N         -7.5240  -14.5580   19.3670 N.3   249  GLN249     -0.1245
    162  CA        -6.5300  -15.5760   19.7070 C.3   249  GLN249      0.1566
    163  C         -5.3620  -15.0110   20.5300 C.2   249  GLN249      0.2260
    164  O         -4.9330  -15.6290   21.5010 O.2   249  GLN249     -0.2867
    165  CB        -6.0280  -16.3010   18.4480 C.3   249  GLN249      0.0367
    166  CG        -5.0750  -17.4760   18.7220 C.3   249  GLN249      0.0905
    167  CD        -4.4860  -18.1030   17.4550 C.2   249  GLN249      0.2608
    168  OE1       -4.2670  -17.4270   16.4460 O.2   249  GLN249     -0.2717
    169  NE2       -4.2160  -19.4030   17.5140 N.am  249  GLN249     -0.0878
@<TRIPOS>BOND
     1    57    56   ar
     2    58    56   ar
     3    56    55    1
     4    31    32    1
     5    34    33    2
     6    55    54    1
     7    54    51    1
     8    33    32    1
     9    33    42   am
    10    50    51    1
    11    50    44   am
    12    48    47   ar
    13    32    35    1
    14    43    42    1
    15    43    44    1
    16    43    46    1
    17    51    52    1
    18    47    46    1
    19    47    49   ar
    20    44    45    2
    21    52    53    2
    22    35    36    1
    23    41    39    1
    24    36    37    1
    25    40    39    1
    26    39    38    2
    27    38    37    1
    28   168   167    2
    29    59    60    1
    30   167   169   am
    31   167   166    1
    32   160   158   ar
    33    65    63    1
    34   165   166    1
    35   165   162    1
    36   159   158   ar
    37   158   157    1
    38   130   128    1
    39    60    63    1
    40    60    61    1
    41    63    64    1
    42   161   162    1
    43    62    61    2
    44    29    28    1
    45   157   156    1
    46   162   163    1
    47   131   132    1
    48   127   126    2
    49   128   129    1
    50   128   125    1
    51    28    30    1
    52    28    27    2
    53    26    27    1
    54    26    25    1
    55   132   135    1
    56   132   133    1
    57   156   153    1
    58   126   125    1
    59    20    21    1
    60   163   164    2
    61    24    25    1
    62    24    21    1
    63   109   107    1
    64    73    72   ar
    65   113   112    2
    66   125   124    1
    67   155   154    2
    68    21    22    1
    69   107   106    2
    70   107   108    1
    71   154   153    1
    72   111   112    1
    73   111   110    1
    74   133   134    2
    75    15    14    2
    76    72    74   ar
    77    72    71    1
    78   106   105    1
    79   153   152    1
    80   112   114   am
    81    71    70    1
    82   105   104    1
    83    14    13    1
    84   152   150   am
    85    66    67    1
    86    16    13    1
    87    16    17    1
    88    22    23    2
    89   110   101   am
    90    18    17    1
    91   114   115    1
    92   120   122   ar
    93   120   119   ar
    94    70    67    1
    95   117   116    2
    96   122   123   ar
    97   115   116    1
    98   115   118    1
    99    13    12    1
   100   102   101    2
   101    17    19    1
   102   101   100    1
   103    67    68    1
   104   150   149    1
   105   150   151    2
   106   104   103    1
   107   119   118    1
   108   119   121   ar
   109   141   140    1
   110   123   121   ar
   111   149   148    1
   112   103   100    1
   113    84    82   ar
   114    84    83   ar
   115   136   137    1
   116    68    69    2
   117   100    99    1
   118    89    90    1
   119    89    86    1
   120    82    80   ar
   121    91    90   ar
   122    91    93   ar
   123    90    92   ar
   124   137   140    1
   125   137   138    1
   126    88    87    2
   127    99    87   am
   128    93    94   ar
   129    87    86    1
   130    83    81   ar
   131    92    94   ar
   132    92    95   ar
   133   148   144   am
   134    94    96   ar
   135   145   144    2
   136    95    97   ar
   137    86    85    1
   138    96    98   ar
   139    80    81   ar
   140    80    79    1
   141     4     3    2
   142    97    98   ar
   143   144   143    1
   144   138   139    2
   145     9     7   ar
   146     9    11   ar
   147     3     2    1
   148    79    76    1
   149     7     6   ar
   150    11    10   ar
   151   143   146    1
   152   143   142    1
   153   147   146    1
   154    75    76    1
   155     6     5    1
   156     6     8   ar
   157    76    77    1
   158     2     1    1
   159     2     5    1
   160    10     8   ar
   161    77    78    2
