@<TRIPOS>MOLECULE
tmp/3fqqA00.pdb
 84 83 0 0 0
SMALL
GASTEIGER

@<TRIPOS>ATOM
      1  N         35.3070    1.7330   15.5140 N.3    12  TYR12      -0.1227
      2  CA        34.8520    1.4330   14.1640 C.3    12  TYR12       0.1736
      3  C         34.9220    2.6770   13.2820 C.2    12  TYR12       0.2595
      4  O         34.5660    3.7700   13.7160 O.2    12  TYR12      -0.2718
      5  CB        33.4180    0.8850   14.2160 C.3    12  TYR12       0.0548
      6  CG        32.8080    0.6120   12.8670 C.ar   12  TYR12      -0.0200
      7  CD1       33.1550   -0.5260   12.1440 C.ar   12  TYR12      -0.0009
      8  CD2       31.8720    1.4810   12.3170 C.ar   12  TYR12      -0.0009
      9  CE1       32.6010   -0.7840   10.9080 C.ar   12  TYR12       0.0417
     10  CE2       31.3110    1.2260   11.0730 C.ar   12  TYR12       0.0417
     11  CZ        31.6910    0.0970   10.3750 C.ar   12  TYR12       0.1957
     12  OH        31.1390   -0.1670    9.1480 O.3    12  TYR12      -0.2866
     13  N         35.3920    2.5020   12.0490 N.am   13  LYS13      -0.1966
     14  CA        35.3000    3.5380   11.0210 C.3    13  LYS13       0.1728
     15  C         34.7560    2.9340    9.7380 C.2    13  LYS13       0.2617
     16  O         35.4110    2.1010    9.1150 O.2    13  LYS13      -0.2715
     17  CB        36.6600    4.1950   10.7570 C.3    13  LYS13       0.0311
     18  CG        36.6390    5.1760    9.5810 C.3    13  LYS13       0.0038
     19  CD        37.5990    6.3370    9.7700 C.3    13  LYS13       0.0206
     20  CE        39.0390    5.9530    9.5790 C.3    13  LYS13       0.1093
     21  NZ        39.8210    7.1750    9.8770 N.3    13  LYS13      -0.1314
     22  N         33.5560    3.3410    9.3460 N.am   14  GLY14      -0.1940
     23  CA        32.9470    2.7520    8.1790 C.3    14  GLY14       0.2014
     24  C         31.5240    3.1710    7.9290 C.2    14  GLY14       0.2639
     25  O         31.0600    4.1770    8.4420 O.2    14  GLY14      -0.2714
     26  N         30.8340    2.3820    7.1200 N.am   15  VAL15      -0.1963
     27  CA        29.4350    2.6530    6.7970 C.3    15  VAL15       0.1727
     28  C         28.5710    2.3240    8.0190 C.2    15  VAL15       0.2616
     29  O         28.8510    1.3670    8.7470 O.2    15  VAL15      -0.2715
     30  CB        28.9640    1.8730    5.5440 C.3    15  VAL15       0.0290
     31  CG1       27.4820    2.1330    5.2660 C.3    15  VAL15       0.0023
     32  CG2       29.8060    2.2560    4.3120 C.3    15  VAL15       0.0023
     33  N         27.5500    3.1520    8.2310 N.am   16  TRP16      -0.1974
     34  CA        26.5480    2.9680    9.2760 C.3    16  TRP16       0.1640
     35  C         25.1480    2.8350    8.6630 C.2    16  TRP16       0.2290
     36  O         24.7910    3.5750    7.7390 O.2    16  TRP16      -0.2864
     37  CB        26.5640    4.1650   10.2350 C.3    16  TRP16       0.0576
     38  CG        27.7680    4.2070   11.1150 C.ar   16  TRP16       0.0006
     39  CD1       29.0000    4.7130   10.8060 C.ar   16  TRP16       0.0946
     40  CD2       27.8570    3.7160   12.4600 C.ar   16  TRP16       0.0152
     41  NE1       29.8560    4.5600   11.8780 N.ar   16  TRP16      -0.2442
     42  CE2       29.1790    3.9470   12.9030 C.ar   16  TRP16       0.0810
     43  CE3       26.9460    3.1030   13.3340 C.ar   16  TRP16       0.0012
     44  CZ2       29.6070    3.5960   14.1890 C.ar   16  TRP16       0.0191
     45  CZ3       27.3780    2.7470   14.6100 C.ar   16  TRP16       0.0001
     46  CH2       28.6890    2.9990   15.0240 C.ar   16  TRP16       0.0015
     47  N         23.3440    9.5140    6.0250 N.3    38  ASN38      -0.1225
     48  CA        23.6270    8.8480    4.7550 C.3    38  ASN38       0.1785
     49  C         24.8290    7.9200    4.8050 C.2    38  ASN38       0.2598
     50  O         25.6860    7.9670    3.9280 O.2    38  ASN38      -0.2718
     51  CB        23.7640    9.8690    3.6160 C.3    38  ASN38       0.1169
     52  CG        22.4690   10.6030    3.3370 C.2    38  ASN38       0.2627
     53  OD1       21.4110    9.9830    3.1590 O.2    38  ASN38      -0.2716
     54  ND2       22.5410   11.9360    3.2940 N.am   38  ASN38      -0.0877
     55  N         24.8840    7.0800    5.8390 N.am   39  GLY39      -0.1942
     56  CA        25.9290    6.0610    5.9660 C.3    39  GLY39       0.2014
     57  C         27.2090    6.5420    6.6260 C.2    39  GLY39       0.2640
     58  O         28.0700    5.7440    6.9740 O.2    39  GLY39      -0.2714
     59  N         27.3220    7.8490    6.8140 N.am   40  SER40      -0.1935
     60  CA        28.5710    8.4590    7.2390 C.3    40  SER40       0.2055
     61  C         28.4720    9.0550    8.6400 C.2    40  SER40       0.2642
     62  O         27.5290    9.7810    8.9310 O.2    40  SER40      -0.2714
     63  CB        28.9620    9.5430    6.2360 C.3    40  SER40       0.2130
     64  OG        30.3630    9.7050    6.2060 O.3    40  SER40      -0.2179
     65  N         29.4500    8.7520    9.4930 N.am   41  MET41      -0.1976
     66  CA        29.4700    9.2730   10.8620 C.3    41  MET41       0.1605
     67  C         30.4640   10.4050   11.0820 C.2    41  MET41       0.2287
     68  O         31.6550   10.2520   10.8360 O.2    41  MET41      -0.2864
     69  CB        29.7480    8.1530   11.8830 C.3    41  MET41       0.0413
     70  CG        29.8290    8.6580   13.3320 C.3    41  MET41       0.0598
     71  SD        30.1240    7.3600   14.5500 S.3    41  MET41      -0.1393
     72  CE        28.4520    6.8020   14.8480 C.3    41  MET41       0.0692
     73  N         32.5040   12.3280   13.7230 N.3    43  ILE43      -0.1245
     74  CA        33.0300   12.0180   15.0660 C.3    43  ILE43       0.1561
     75  C         33.3810   13.2970   15.8300 C.2    43  ILE43       0.2260
     76  O         34.0810   14.1670   15.3080 O.2    43  ILE43      -0.2867
     77  CB        34.2730   11.0850   14.9560 C.3    43  ILE43       0.0252
     78  CG1       33.9100    9.7840   14.2210 C.3    43  ILE43       0.0019
     79  CG2       34.9310   10.8120   16.3160 C.3    43  ILE43       0.0019
     80  CD1       33.1310    8.7810   15.0280 C.3    43  ILE43       0.0001
     81  N         39.5140    9.1600   14.1030 N.3    55  GLY55      -0.1225
     82  CA        38.1620    9.2550   13.5400 C.3    55  GLY55       0.1811
     83  C         37.4090    7.9340   13.6530 C.2    55  GLY55       0.2280
     84  O         36.7490    7.4980   12.6980 O.2    55  GLY55      -0.2866
@<TRIPOS>BOND
     1    53    52    2
     2    54    52   am
     3    52    51    1
     4    51    48    1
     5    50    49    2
     6    32    30    1
     7    48    49    1
     8    48    47    1
     9    49    55   am
    10    31    30    1
    11    30    27    1
    12    55    56    1
    13    56    57    1
    14    64    63    1
    15    63    60    1
    16    57    59   am
    17    57    58    2
    18    27    26    1
    19    27    28    1
    20    59    60    1
    21    26    24   am
    22    60    61    1
    23    36    35    2
    24    24    23    1
    25    24    25    2
    26    28    33   am
    27    28    29    2
    28    23    22    1
    29    33    34    1
    30    61    62    2
    31    61    65   am
    32    35    34    1
    33    16    15    2
    34    12    11    1
    35    34    37    1
    36    22    15   am
    37    65    66    1
    38    20    19    1
    39    20    21    1
    40    18    19    1
    41    18    17    1
    42    15    14    1
    43    37    38    1
    44    11     9   ar
    45    11    10   ar
    46    17    14    1
    47    39    38   ar
    48    39    41   ar
    49    68    67    2
    50    66    67    1
    51    66    69    1
    52     9     7   ar
    53    14    13    1
    54    10     8   ar
    55    38    40   ar
    56    41    42   ar
    57    69    70    1
    58    13     3   am
    59     7     6   ar
    60     8     6   ar
    61    40    42   ar
    62    40    43   ar
    63    84    83    2
    64     6     5    1
    65    42    44   ar
    66     3     4    2
    67     3     2    1
    68    70    71    1
    69    43    45   ar
    70    82    83    1
    71    82    81    1
    72    73    74    1
    73     2     5    1
    74     2     1    1
    75    44    46   ar
    76    78    77    1
    77    78    80    1
    78    71    72    1
    79    45    46   ar
    80    77    74    1
    81    77    79    1
    82    74    75    1
    83    76    75    2
