@<TRIPOS>MOLECULE
tmp/3fqrA00.pdb
 170 165 0 0 0
SMALL
GASTEIGER

@<TRIPOS>ATOM
      1  N          6.9640   -0.5410  -43.8380 N.3     5  MET5       -0.1245
      2  CA         6.0090   -1.5170  -43.3290 C.3     5  MET5        0.1570
      3  C          6.7870   -2.7830  -42.9930 C.2     5  MET5        0.2261
      4  O          7.6460   -3.2170  -43.7630 O.2     5  MET5       -0.2867
      5  CB         4.9070   -1.8090  -44.3480 C.3     5  MET5        0.0387
      6  CG         3.8790   -2.7980  -43.8110 C.3     5  MET5        0.0595
      7  SD         2.3710   -2.9000  -44.7830 S.3     5  MET5       -0.1393
      8  CE         2.9280   -3.7500  -46.2580 C.3     5  MET5        0.0692
      9  N          6.4980   -6.7950  -40.9580 N.3     7  TYR7       -0.1241
     10  CA         5.7900   -7.8420  -40.2370 C.3     7  TYR7        0.1605
     11  C          6.7920   -8.7190  -39.4990 C.2     7  TYR7        0.2264
     12  O          7.8720   -9.0270  -40.0270 O.2     7  TYR7       -0.2867
     13  CB         4.9730   -8.7110  -41.1900 C.3     7  TYR7        0.0534
     14  CG         3.6490   -8.1070  -41.6030 C.ar    7  TYR7       -0.0201
     15  CD1        2.5140   -8.2470  -40.8040 C.ar    7  TYR7       -0.0009
     16  CD2        3.5340   -7.4060  -42.7910 C.ar    7  TYR7       -0.0009
     17  CE1        1.2950   -7.7030  -41.1920 C.ar    7  TYR7        0.0417
     18  CE2        2.3250   -6.8570  -43.1850 C.ar    7  TYR7        0.0417
     19  CZ         1.2130   -7.0110  -42.3820 C.ar    7  TYR7        0.1957
     20  OH         0.0160   -6.4740  -42.7830 O.3     7  TYR7       -0.2866
     21  N          7.0730  -12.3860  -37.2000 N.3     9  PHE9       -0.1241
     22  CA         6.3920  -13.6430  -36.9000 C.3     9  PHE9        0.1605
     23  C          7.2540  -14.4840  -35.9790 C.2     9  PHE9        0.2264
     24  O          8.4500  -14.6250  -36.2130 O.2     9  PHE9       -0.2867
     25  CB         6.1350  -14.4460  -38.1800 C.3     9  PHE9        0.0534
     26  CG         5.4850  -13.6520  -39.2640 C.ar    9  PHE9       -0.0203
     27  CD1        4.1080  -13.6260  -39.3860 C.ar    9  PHE9       -0.0042
     28  CD2        6.2530  -12.9190  -40.1590 C.ar    9  PHE9       -0.0042
     29  CE1        3.5000  -12.8750  -40.3910 C.ar    9  PHE9       -0.0003
     30  CE2        5.6600  -12.1620  -41.1650 C.ar    9  PHE9       -0.0003
     31  CZ         4.2750  -12.1410  -41.2790 C.ar    9  PHE9       -0.0000
     32  N         -6.8810  -12.1580  -37.7680 N.3    45  MET45      -0.1245
     33  CA        -6.0730  -10.9570  -37.6870 C.3    45  MET45       0.1570
     34  C         -6.9330   -9.8840  -37.0420 C.2    45  MET45       0.2261
     35  O         -8.1140   -9.7420  -37.3850 O.2    45  MET45      -0.2867
     36  CB        -5.6150  -10.4970  -39.0700 C.3    45  MET45       0.0387
     37  CG        -4.5530   -9.4090  -38.9970 C.3    45  MET45       0.0595
     38  SD        -2.9580  -10.0070  -38.3850 S.3    45  MET45      -0.1393
     39  CE        -2.1890  -10.5350  -39.9040 C.3    45  MET45       0.0692
     40  N        -10.8880   -7.5230  -46.5040 N.3    59  TYR59      -0.1241
     41  CA        -9.5370   -7.3120  -45.9930 C.3    59  TYR59       0.1605
     42  C         -9.2600   -8.2430  -44.8190 C.2    59  TYR59       0.2264
     43  O         -8.2610   -8.9540  -44.8090 O.2    59  TYR59      -0.2867
     44  CB        -9.3190   -5.8540  -45.5670 C.3    59  TYR59       0.0534
     45  CG        -7.9570   -5.5910  -44.9400 C.ar   59  TYR59      -0.0201
     46  CD1       -7.7760   -5.6790  -43.5630 C.ar   59  TYR59      -0.0009
     47  CD2       -6.8570   -5.2590  -45.7270 C.ar   59  TYR59      -0.0009
     48  CE1       -6.5330   -5.4470  -42.9800 C.ar   59  TYR59       0.0417
     49  CE2       -5.6030   -5.0140  -45.1530 C.ar   59  TYR59       0.0417
     50  CZ        -5.4530   -5.1070  -43.7790 C.ar   59  TYR59       0.1957
     51  OH        -4.2200   -4.8760  -43.1920 O.3    59  TYR59      -0.2866
     52  N         -6.4890  -11.2410  -44.6220 N.3    63  GLU63      -0.1245
     53  CA        -5.3290  -11.1870  -43.7320 C.3    63  GLU63       0.1567
     54  C         -5.3380  -12.3750  -42.7830 C.2    63  GLU63       0.2260
     55  O         -4.2840  -12.8960  -42.4150 O.2    63  GLU63      -0.2867
     56  CB        -5.2860   -9.8800  -42.9380 C.3    63  GLU63       0.0388
     57  CG        -5.1380   -8.6450  -43.8190 C.3    63  GLU63       0.1160
     58  CD        -3.9650   -8.7550  -44.7700 C.2    63  GLU63       0.3649
     59  OE1       -2.8100   -8.8500  -44.2950 O.co2  63  GLU63      -0.2457
     60  OE2       -4.1980   -8.7340  -45.9940 O.co2  63  GLU63      -0.2457
     61  N         -4.1800  -15.4570  -44.8250 N.3    66  LYS66      -0.1231
     62  CA        -2.7420  -15.4160  -45.0560 C.3    66  LYS66       0.1693
     63  C         -1.9510  -15.6760  -43.7760 C.2    66  LYS66       0.2591
     64  O         -0.9700  -16.4200  -43.7950 O.2    66  LYS66      -0.2718
     65  CB        -2.3200  -14.0960  -45.7160 C.3    66  LYS66       0.0285
     66  CG        -2.8750  -13.9380  -47.1260 C.3    66  LYS66       0.0035
     67  CD        -2.4210  -12.6320  -47.7700 C.3    66  LYS66       0.0206
     68  CE        -3.1570  -11.4390  -47.1860 C.3    66  LYS66       0.1093
     69  NZ        -2.8080  -10.1670  -47.8890 N.3    66  LYS66      -0.1314
     70  N         -2.3710  -15.0830  -42.6620 N.am   67  VAL67      -0.1980
     71  CA        -1.5800  -15.2370  -41.4390 C.3    67  VAL67       0.1595
     72  C         -1.6460  -16.6930  -40.9590 C.2    67  VAL67       0.2287
     73  O         -0.6650  -17.2250  -40.4360 O.2    67  VAL67      -0.2864
     74  CB        -1.9840  -14.2280  -40.3310 C.3    67  VAL67       0.0276
     75  CG1       -3.1770  -14.7340  -39.5320 C.3    67  VAL67       0.0022
     76  CG2       -0.8070  -13.9620  -39.4040 C.3    67  VAL67       0.0022
     77  N          0.8610  -18.5430  -43.0440 N.3    70  HIS70      -0.1241
     78  CA         2.1970  -18.2940  -42.4820 C.3    70  HIS70       0.1621
     79  C          2.4210  -19.2370  -41.2990 C.2    70  HIS70       0.2264
     80  O          3.4750  -19.8620  -41.1730 O.2    70  HIS70      -0.2867
     81  CB         2.3410  -16.8530  -41.9670 C.3    70  HIS70       0.0745
     82  CG         2.5790  -15.8120  -43.0250 C.ar   70  HIS70       0.0817
     83  ND1        1.7410  -15.6350  -44.1060 N.ar   70  HIS70      -0.2268
     84  CD2        3.5150  -14.8350  -43.1150 C.ar   70  HIS70       0.1154
     85  CE1        2.1690  -14.6150  -44.8320 C.ar   70  HIS70       0.1986
     86  NE2        3.2430  -14.1100  -44.2520 N.ar   70  HIS70      -0.2212
     87  N          9.7310   -9.4750  -42.4700 N.3    99  TYR99      -0.1241
     88  CA         9.8350   -8.9500  -43.8200 C.3    99  TYR99       0.1605
     89  C          9.1270   -7.6120  -43.9610 C.2    99  TYR99       0.2264
     90  O          8.3060   -7.2370  -43.1270 O.2    99  TYR99      -0.2867
     91  CB         9.3620   -9.9670  -44.8750 C.3    99  TYR99       0.0534
     92  CG         7.8880  -10.3670  -44.8760 C.ar   99  TYR99      -0.0201
     93  CD1        6.8980   -9.4950  -45.3290 C.ar   99  TYR99      -0.0009
     94  CD2        7.5050  -11.6510  -44.5060 C.ar   99  TYR99      -0.0009
     95  CE1        5.5510   -9.8790  -45.3600 C.ar   99  TYR99       0.0417
     96  CE2        6.1620  -12.0530  -44.5440 C.ar   99  TYR99       0.0417
     97  CZ         5.1910  -11.1640  -44.9700 C.ar   99  TYR99       0.1957
     98  OH         3.8650  -11.5650  -45.0080 O.3    99  TYR99      -0.2866
     99  N         13.6520   -9.6690  -46.1530 N.3   114  HIS114     -0.1241
    100  CA        12.9460  -10.8900  -45.8000 C.3   114  HIS114      0.1621
    101  C         13.9590  -11.8130  -45.1640 C.2   114  HIS114      0.2264
    102  O         14.8480  -12.3450  -45.8450 O.2   114  HIS114     -0.2867
    103  CB        12.3260  -11.5690  -47.0200 C.3   114  HIS114      0.0745
    104  CG        11.4140  -12.7040  -46.6710 C.ar  114  HIS114      0.0817
    105  ND1       10.0640  -12.6870  -46.9490 N.ar  114  HIS114     -0.2268
    106  CD2       11.6550  -13.8830  -46.0500 C.ar  114  HIS114      0.1154
    107  CE1        9.5140  -13.8100  -46.5210 C.ar  114  HIS114      0.1986
    108  NE2       10.4580  -14.5530  -45.9690 N.ar  114  HIS114     -0.2212
    109  N          9.3560  -14.2430  -56.3120 N.3   155  GLN155     -0.1231
    110  CA         8.0390  -13.9540  -55.7450 C.3   155  GLN155      0.1698
    111  C          8.1870  -12.9270  -54.6390 C.2   155  GLN155      0.2592
    112  O          7.3830  -12.0000  -54.5220 O.2   155  GLN155     -0.2718
    113  CB         7.3930  -15.2290  -55.1880 C.3   155  GLN155      0.0381
    114  CG         7.1890  -16.3100  -56.2260 C.3   155  GLN155      0.0905
    115  CD         6.5630  -17.5680  -55.6490 C.2   155  GLN155      0.2608
    116  OE1        5.8800  -17.5220  -54.6310 O.2   155  GLN155     -0.2717
    117  NE2        6.7900  -18.6970  -56.3080 N.am  155  GLN155     -0.0878
    118  N          9.2320  -13.0790  -53.8330 N.am  156  LEU156     -0.1980
    119  CA         9.4400  -12.1650  -52.7180 C.3   156  LEU156      0.1596
    120  C          9.7490  -10.7680  -53.2310 C.2   156  LEU156      0.2287
    121  O          9.1970   -9.7730  -52.7460 O.2   156  LEU156     -0.2864
    122  CB        10.5570  -12.6670  -51.7960 C.3   156  LEU156      0.0297
    123  CG        10.2590  -13.9190  -50.9700 C.3   156  LEU156      0.0022
    124  CD1       11.4490  -14.2040  -50.0700 C.3   156  LEU156      0.0001
    125  CD2        8.9900  -13.7520  -50.1340 C.3   156  LEU156      0.0001
    126  N          6.6050   -8.9600  -54.3800 N.3   159  TYR159     -0.1241
    127  CA         5.7840   -8.4730  -53.2680 C.3   159  TYR159      0.1605
    128  C          6.4180   -7.2330  -52.6340 C.2   159  TYR159      0.2264
    129  O          5.7520   -6.2240  -52.3890 O.2   159  TYR159     -0.2867
    130  CB         5.5820   -9.5710  -52.2040 C.3   159  TYR159      0.0534
    131  CG         5.0690   -9.0330  -50.8760 C.ar  159  TYR159     -0.0201
    132  CD1        3.7180   -8.7940  -50.6770 C.ar  159  TYR159     -0.0009
    133  CD2        5.9470   -8.7380  -49.8350 C.ar  159  TYR159     -0.0009
    134  CE1        3.2470   -8.2850  -49.4710 C.ar  159  TYR159      0.0417
    135  CE2        5.4850   -8.2280  -48.6250 C.ar  159  TYR159      0.0417
    136  CZ         4.1350   -8.0050  -48.4500 C.ar  159  TYR159      0.1957
    137  OH         3.6730   -7.5000  -47.2480 O.3   159  TYR159     -0.2866
    138  N          3.3610   -4.8760  -54.1810 N.3   163  THR163     -0.1218
    139  CA         2.2770   -4.9740  -53.2090 C.3   163  THR163      0.1862
    140  C          2.5950   -4.2910  -51.8770 C.2   163  THR163      0.2287
    141  O          1.7780   -3.5360  -51.3310 O.2   163  THR163     -0.2866
    142  CB         1.9340   -6.4460  -52.9260 C.3   163  THR163      0.1770
    143  OG1        1.5690   -7.0950  -54.1550 O.3   163  THR163     -0.2211
    144  CG2        0.7770   -6.5420  -51.9460 C.3   163  THR163      0.0375
    145  N          0.4330   -0.9850  -50.5350 N.3   167  TRP167     -0.1241
    146  CA        -0.3630   -0.9860  -49.3170 C.3   167  TRP167      0.1605
    147  C          0.2240   -0.0620  -48.2420 C.2   167  TRP167      0.2264
    148  O         -0.5160    0.5870  -47.5020 O.2   167  TRP167     -0.2867
    149  CB        -0.5990   -2.4170  -48.8200 C.3   167  TRP167      0.0550
    150  CG        -1.6580   -3.0900  -49.6330 C.ar  167  TRP167      0.0003
    151  CD1       -1.4970   -3.7250  -50.8350 C.ar  167  TRP167      0.0946
    152  CD2       -3.0490   -3.1720  -49.3180 C.ar  167  TRP167      0.0152
    153  NE1       -2.7130   -4.1960  -51.2870 N.ar  167  TRP167     -0.2442
    154  CE2       -3.6790   -3.8700  -50.3720 C.ar  167  TRP167      0.0810
    155  CE3       -3.8270   -2.7230  -48.2480 C.ar  167  TRP167      0.0012
    156  CZ2       -5.0480   -4.1270  -50.3820 C.ar  167  TRP167      0.0191
    157  CZ3       -5.1900   -2.9780  -48.2600 C.ar  167  TRP167      0.0001
    158  CH2       -5.7840   -3.6770  -49.3180 C.ar  167  TRP167      0.0015
    159  N         -1.9180    2.8380  -46.3320 N.3   171  TYR171     -0.1241
    160  CA        -1.9510    3.0260  -44.8850 C.3   171  TYR171      0.1605
    161  C         -1.4910    4.4300  -44.4950 C.2   171  TYR171      0.2264
    162  O         -2.0820    5.0680  -43.6290 O.2   171  TYR171     -0.2867
    163  CB        -1.0830    1.9830  -44.1700 C.3   171  TYR171      0.0534
    164  CG        -1.5040    0.5400  -44.3820 C.ar  171  TYR171     -0.0201
    165  CD1       -2.8360    0.1960  -44.6150 C.ar  171  TYR171     -0.0009
    166  CD2       -0.5670   -0.4830  -44.3200 C.ar  171  TYR171     -0.0009
    167  CE1       -3.2110   -1.1340  -44.8000 C.ar  171  TYR171      0.0417
    168  CE2       -0.9300   -1.8070  -44.4950 C.ar  171  TYR171      0.0417
    169  CZ        -2.2540   -2.1290  -44.7280 C.ar  171  TYR171      0.1957
    170  OH        -2.6030   -3.4550  -44.9040 O.3   171  TYR171     -0.2866
@<TRIPOS>BOND
     1   109   110    1
     2   117   115   am
     3   114   115    1
     4   114   113    1
     5   110   113    1
     6   110   111    1
     7   115   116    2
     8   111   112    2
     9   111   118   am
    10   126   127    1
    11   138   139    1
    12   143   142    1
    13   118   119    1
    14   127   128    1
    15   127   130    1
    16   120   121    2
    17   120   119    1
    18   139   142    1
    19   139   140    1
    20   142   144    1
    21   119   122    1
    22   128   129    2
    23   130   131    1
    24   140   141    2
    25   122   123    1
    26   153   151   ar
    27   153   154   ar
    28   123   125    1
    29   123   124    1
    30   131   132   ar
    31   131   133   ar
    32   151   150   ar
    33   132   134   ar
    34   145   146    1
    35   156   154   ar
    36   156   158   ar
    37   154   152   ar
    38   133   135   ar
    39   150   152   ar
    40   150   149    1
    41   134   136   ar
    42   158   157   ar
    43   152   155   ar
    44   146   149    1
    45   146   147    1
    46   135   136   ar
    47   136   137    1
    48   157   155   ar
    49   147   148    2
    50    69    68    1
    51    67    68    1
    52    67    66    1
    53    66    65    1
    54   103   104    1
    55   103   100    1
    56   105   104   ar
    57   105   107   ar
    58   104   106   ar
    59   107   108   ar
    60    40    41    1
    61   159   160    1
    62     8     7    1
    63    99   100    1
    64   106   108   ar
    65    60    58   ar
    66    41    44    1
    67    41    42    1
    68   102   101    2
    69   100   101    1
    70    47    49   ar
    71    47    45   ar
    72    65    62    1
    73    44    45    1
    74    95    93   ar
    75    95    97   ar
    76    93    92   ar
    77    49    50   ar
    78    62    61    1
    79    62    63    1
    80    98    97    1
    81    97    96   ar
    82    45    46   ar
    83   170   169    1
    84   160   161    1
    85   160   163    1
    86    92    91    1
    87    92    94   ar
    88    91    88    1
    89    85    86   ar
    90    85    83   ar
    91    42    43    2
    92   167   169   ar
    93   167   165   ar
    94     7     6    1
    95    58    59   ar
    96    58    57    1
    97   169   168   ar
    98    52    53    1
    99   165   164   ar
   100    96    94   ar
   101   161   162    2
   102   168   166   ar
   103   164   166   ar
   104   164   163    1
   105     5     6    1
   106     5     2    1
   107    86    84   ar
   108    83    82   ar
   109    89    88    1
   110    89    90    2
   111     1     2    1
   112    88    87    1
   113    57    56    1
   114    64    63    2
   115    50    51    1
   116    50    48   ar
   117    63    70   am
   118     4     3    2
   119    53    56    1
   120    53    54    1
   121    46    48   ar
   122     2     3    1
   123    18    16   ar
   124    18    19   ar
   125    84    82   ar
   126    77    78    1
   127    82    81    1
   128    16    14   ar
   129    54    55    2
   130    20    19    1
   131    70    71    1
   132    78    81    1
   133    78    79    1
   134    19    17   ar
   135    14    13    1
   136    14    15   ar
   137    71    72    1
   138    71    74    1
   139    79    80    2
   140    31    30   ar
   141    31    29   ar
   142    17    15   ar
   143    13    10    1
   144    30    28   ar
   145    72    73    2
   146     9    10    1
   147    29    27   ar
   148    74    75    1
   149    74    76    1
   150    10    11    1
   151    28    26   ar
   152    12    11    2
   153    39    38    1
   154    27    26   ar
   155    26    25    1
   156    36    37    1
   157    36    33    1
   158    37    38    1
   159    25    22    1
   160    32    33    1
   161    33    34    1
   162    35    34    2
   163    21    22    1
   164    22    23    1
   165    24    23    2
