@<TRIPOS>MOLECULE
tmp/3fqsA00.pdb
 157 149 0 0 0
SMALL
GASTEIGER

@<TRIPOS>ATOM
      1  N         -1.6400   -5.9840    6.6840 N.3    14  GLU14      -0.1231
      2  CA        -1.2140   -4.5950    6.6530 C.3    14  GLU14       0.1699
      3  C         -1.6020   -3.8580    7.9350 C.2    14  GLU14       0.2592
      4  O         -2.6470   -4.1340    8.5260 O.2    14  GLU14      -0.2718
      5  CB        -1.8570   -3.9230    5.4450 C.3    14  GLU14       0.0402
      6  CG        -1.0970   -2.7640    4.8690 C.3    14  GLU14       0.1161
      7  CD        -1.5910   -2.4260    3.4810 C.2    14  GLU14       0.3649
      8  OE1       -1.3190   -3.2040    2.5410 O.co2  14  GLU14      -0.2457
      9  OE2       -2.2570   -1.3820    3.3310 O.co2  14  GLU14      -0.2457
     10  N         -0.7520   -2.9290    8.3660 N.am   15  LEU15      -0.1966
     11  CA        -1.0350   -2.1180    9.5490 C.3    15  LEU15       0.1728
     12  C         -1.4530   -0.7040    9.1760 C.2    15  LEU15       0.2617
     13  O         -2.1240   -0.0250    9.9530 O.2    15  LEU15      -0.2715
     14  CB         0.1710   -2.0670   10.4910 C.3    15  LEU15       0.0311
     15  CG         0.6300   -3.3520   11.1840 C.3    15  LEU15       0.0022
     16  CD1        1.9530   -3.0940   11.8690 C.3    15  LEU15       0.0001
     17  CD2       -0.4060   -3.8780   12.1740 C.3    15  LEU15       0.0001
     18  N         -1.0480   -0.2650    7.9870 N.am   16  GLY16      -0.1940
     19  CA        -1.3800    1.0680    7.5090 C.3    16  GLY16       0.2014
     20  C         -0.9120    1.3260    6.0940 C.2    16  GLY16       0.2639
     21  O         -0.1830    0.5220    5.5150 O.2    16  GLY16      -0.2714
     22  N         -1.3390    2.4600    5.5460 N.am   17  SER17      -0.1949
     23  CA        -1.0020    2.8610    4.1830 C.3    17  SER17       0.1924
     24  C         -0.7570    4.3580    4.1050 C.2    17  SER17       0.2314
     25  O         -1.1710    5.1150    4.9860 O.2    17  SER17      -0.2863
     26  CB        -2.1290    2.4890    3.2200 C.3    17  SER17       0.2116
     27  OG        -2.1280    1.1050    2.9450 O.3    17  SER17      -0.2180
     28  N          4.0060    7.1130    1.1880 N.3    20  PHE20      -0.1241
     29  CA         5.3160    6.5080    1.4450 C.3    20  PHE20       0.1605
     30  C          5.3570    5.0240    1.0560 C.2    20  PHE20       0.2264
     31  O          6.4040    4.5100    0.6710 O.2    20  PHE20      -0.2867
     32  CB         5.7030    6.6690    2.9290 C.3    20  PHE20       0.0534
     33  CG         4.8570    5.8480    3.8720 C.ar   20  PHE20      -0.0203
     34  CD1        3.7110    6.3870    4.4490 C.ar   20  PHE20      -0.0042
     35  CD2        5.1980    4.5270    4.1670 C.ar   20  PHE20      -0.0042
     36  CE1        2.9210    5.6240    5.3060 C.ar   20  PHE20      -0.0003
     37  CE2        4.4130    3.7600    5.0150 C.ar   20  PHE20      -0.0003
     38  CZ         3.2750    4.3080    5.5900 C.ar   20  PHE20      -0.0000
     39  N          2.9200   -0.1180    5.9590 N.3    23  VAL23      -0.1245
     40  CA         3.4950   -0.7220    7.1620 C.3    23  VAL23       0.1561
     41  C          2.8730   -2.1030    7.3730 C.2    23  VAL23       0.2260
     42  O          1.6520   -2.2340    7.4670 O.2    23  VAL23      -0.2867
     43  CB         3.2810    0.1340    8.4360 C.3    23  VAL23       0.0252
     44  CG1        3.9910   -0.4980    9.6330 C.3    23  VAL23       0.0019
     45  CG2        3.7680    1.5550    8.2310 C.3    23  VAL23       0.0019
     46  N          7.1290   -4.2740   13.4230 N.3    38  ALA38      -0.1245
     47  CA         6.3840   -3.4820   12.4490 C.3    38  ALA38       0.1562
     48  C          7.3660   -2.9470   11.4200 C.2    38  ALA38       0.2260
     49  O          8.4090   -2.3900   11.7680 O.2    38  ALA38      -0.2867
     50  CB         5.6420   -2.3420   13.1230 C.3    38  ALA38       0.0290
     51  N          7.9910   -0.6420    8.0930 N.3    40  LYS40      -0.1245
     52  CA         7.6590    0.3880    7.1160 C.3    40  LYS40       0.1561
     53  C          8.3690    0.1080    5.7730 C.2    40  LYS40       0.2260
     54  O          9.6010    0.1090    5.7050 O.2    40  LYS40      -0.2867
     55  CB         8.0610    1.7520    7.6700 C.3    40  LYS40       0.0271
     56  CG         7.5330    2.9340    6.8910 C.3    40  LYS40       0.0035
     57  CD         8.0080    4.2270    7.5160 C.3    40  LYS40       0.0206
     58  CE         7.3310    5.4230    6.8940 C.3    40  LYS40       0.1093
     59  NZ         7.7500    6.6760    7.5800 N.3    40  LYS40      -0.1314
     60  N          9.2130    3.9470   20.9100 N.3    66  VAL66      -0.1245
     61  CA         9.3430    2.7840   20.0310 C.3    66  VAL66       0.1561
     62  C         10.8120    2.6150   19.5670 C.2    66  VAL66       0.2260
     63  O         11.4640    3.5950   19.1920 O.2    66  VAL66      -0.2867
     64  CB         8.3590    2.8680   18.8150 C.3    66  VAL66       0.0252
     65  CG1        8.6310    1.7610   17.8080 C.3    66  VAL66       0.0019
     66  CG2        6.9180    2.7560   19.2930 C.3    66  VAL66       0.0019
     67  N         10.8500   -1.8770   12.9090 N.3    81  MET81      -0.1230
     68  CA        10.7100   -1.4330   14.2940 C.3    81  MET81       0.1702
     69  C         10.0060   -2.4620   15.1400 C.2    81  MET81       0.2592
     70  O          9.3360   -3.3390   14.6130 O.2    81  MET81      -0.2718
     71  CB         9.9450   -0.1160   14.3660 C.3    81  MET81       0.0401
     72  CG        10.7530    1.0760   13.8990 C.3    81  MET81       0.0596
     73  SD         9.6180    2.3100   13.3060 S.3    81  MET81      -0.1393
     74  CE         8.8770    1.4900   11.8860 C.3    81  MET81       0.0692
     75  N         10.1520   -2.3300   16.4550 N.am   82  GLU82      -0.1966
     76  CA         9.4910   -3.2140   17.3910 C.3    82  GLU82       0.1733
     77  C          7.9820   -2.9980   17.3260 C.2    82  GLU82       0.2616
     78  O          7.5230   -1.8800   17.1510 O.2    82  GLU82      -0.2715
     79  CB        10.0340   -3.0070   18.8100 C.3    82  GLU82       0.0429
     80  CG         9.7500   -1.6300   19.4140 C.3    82  GLU82       0.1163
     81  CD        10.1440   -1.5390   20.8810 C.2    82  GLU82       0.3649
     82  OE1       10.8340   -2.4720   21.3830 O.co2  82  GLU82      -0.2457
     83  OE2        9.7760   -0.5250   21.5250 O.co2  82  GLU82      -0.2457
     84  N          7.2220   -4.0800   17.4580 N.am   83  MET83      -0.1963
     85  CA         5.7730   -4.0320   17.3010 C.3    83  MET83       0.1736
     86  C          5.0440   -3.6560   18.6060 C.2    83  MET83       0.2616
     87  O          5.2580   -4.2760   19.6490 O.2    83  MET83      -0.2715
     88  CB         5.2920   -5.3690   16.7300 C.3    83  MET83       0.0427
     89  CG         3.7990   -5.5970   16.7050 C.3    83  MET83       0.0599
     90  SD         2.9780   -4.5940   15.4760 S.3    83  MET83      -0.1393
     91  CE         3.5640   -5.3210   13.9770 C.3    83  MET83       0.0692
     92  N          4.2190   -2.6090   18.5420 N.am   84  ALA84      -0.1963
     93  CA         3.2720   -2.2710   19.6110 C.3    84  ALA84       0.1728
     94  C          1.9170   -2.9310   19.3280 C.2    84  ALA84       0.2616
     95  O          1.1550   -2.4520   18.4820 O.2    84  ALA84      -0.2715
     96  CB         3.1180   -0.7650   19.7080 C.3    84  ALA84       0.0334
     97  N          1.6140   -4.0190   20.0350 N.am   85  GLU85      -0.1963
     98  CA         0.4930   -4.9080   19.6660 C.3    85  GLU85       0.1733
     99  C         -0.9080   -4.2960   19.7170 C.2    85  GLU85       0.2616
    100  O         -1.7640   -4.6560   18.9080 O.2    85  GLU85      -0.2715
    101  CB         0.5270   -6.2200   20.4640 C.3    85  GLU85       0.0429
    102  CG         1.7620   -7.0970   20.2030 C.3    85  GLU85       0.1163
    103  CD         1.7430   -7.8370   18.8540 C.2    85  GLU85       0.3649
    104  OE1        2.7720   -8.4530   18.5090 O.co2  85  GLU85      -0.2457
    105  OE2        0.7140   -7.8240   18.1420 O.co2  85  GLU85      -0.2457
    106  N         -1.1340   -3.3670   20.6480 N.am   86  LEU86      -0.1963
    107  CA        -2.4740   -2.7980   20.8650 C.3    86  LEU86       0.1728
    108  C         -2.8010   -1.5870   19.9780 C.2    86  LEU86       0.2617
    109  O         -3.9230   -1.0920   19.9730 O.2    86  LEU86      -0.2715
    110  CB        -2.6700   -2.4510   22.3460 C.3    86  LEU86       0.0311
    111  CG        -3.3120   -3.5070   23.2480 C.3    86  LEU86       0.0022
    112  CD1       -2.8700   -4.9230   22.9220 C.3    86  LEU86       0.0001
    113  CD2       -2.9910   -3.1930   24.6630 C.3    86  LEU86       0.0001
    114  N         -1.8250   -1.1010   19.2340 N.am   87  GLY87      -0.1941
    115  CA        -2.1020   -0.0210   18.3000 C.3    87  GLY87       0.1998
    116  C         -2.1880    1.3550   18.9280 C.2    87  GLY87       0.2480
    117  O         -1.8030    1.5380   20.0890 O.2    87  GLY87      -0.2729
    118  N         -2.6880    2.3360   18.1540 N.am   88  PRO88      -0.2726
    119  CA        -2.6980    3.7510   18.5340 C.3    88  PRO88       0.1402
    120  C         -3.6380    4.0680   19.6990 C.2    88  PRO88       0.2269
    121  O         -4.7370    3.5160   19.7870 O.2    88  PRO88      -0.2865
    122  CB        -3.1660    4.4730   17.2650 C.3    88  PRO88       0.0296
    123  CG        -3.2200    3.4600   16.1840 C.3    88  PRO88       0.0237
    124  CD        -3.2740    2.1110   16.8200 C.3    88  PRO88       0.0939
    125  N         -2.6220    9.7180   17.9930 N.3   131  ARG131     -0.1245
    126  CA        -2.4410    8.7260   16.9130 C.3   131  ARG131      0.1563
    127  C         -1.0180    8.1450   16.8720 C.2   131  ARG131      0.2260
    128  O         -0.8090    7.0300   16.3730 O.2   131  ARG131     -0.2867
    129  CB        -2.8190    9.3150   15.5540 C.3   131  ARG131      0.0307
    130  CG        -1.8030   10.3240   14.9850 C.3   131  ARG131      0.0489
    131  CD        -2.3500   11.0230   13.7500 C.3   131  ARG131      0.2205
    132  NE        -1.6400   12.2750   13.4690 N.pl3 131  ARG131     -0.0865
    133  CZ        -1.9440   13.4410   14.0390 C.cat 131  ARG131      0.5346
    134  NH1       -2.9430   13.5140   14.9170 N.pl3 131  ARG131      0.1354
    135  NH2       -1.2520   14.5330   13.7400 N.pl3 131  ARG131      0.1354
    136  N          1.6250    4.6000   20.7890 N.3   134  LEU134     -0.1245
    137  CA         1.2450    3.2070   20.5430 C.3   134  LEU134      0.1561
    138  C          1.2780    2.3980   21.8310 C.2   134  LEU134      0.2260
    139  O          2.1430    2.5920   22.6730 O.2   134  LEU134     -0.2867
    140  CB         2.1390    2.5800   19.4540 C.3   134  LEU134      0.0270
    141  CG         2.2670    3.3790   18.1380 C.3   134  LEU134      0.0019
    142  CD1        3.1590    2.6560   17.1290 C.3   134  LEU134      0.0001
    143  CD2        0.8980    3.6540   17.5290 C.3   134  LEU134      0.0001
    144  N          5.7880    7.1010   18.9900 N.3   144  SER144     -0.1202
    145  CA         6.2690    6.6890   17.6610 C.3   144  SER144      0.2020
    146  C          6.2170    7.8130   16.6380 C.2   144  SER144      0.2618
    147  O          5.9880    8.9640   16.9910 O.2   144  SER144     -0.2717
    148  CB         5.4520    5.5130   17.1380 C.3   144  SER144      0.2103
    149  OG         4.1460    5.9440   16.7680 O.3   144  SER144     -0.2182
    150  N          6.4020    7.4360   15.3690 N.am  145  ASP145     -0.1973
    151  CA         6.4270    8.3350   14.2010 C.3   145  ASP145      0.1709
    152  C          7.3580    9.5240   14.3340 C.2   145  ASP145      0.2293
    153  O          6.9250   10.6470   14.6200 O.2   145  ASP145     -0.2864
    154  CB         5.0270    8.7870   13.7650 C.3   145  ASP145      0.1436
    155  CG         4.9970    9.2620   12.3090 C.2   145  ASP145      0.3671
    156  OD1        3.8850    9.5130   11.7810 O.co2 145  ASP145     -0.2456
    157  OD2        6.0850    9.3760   11.6790 O.co2 145  ASP145     -0.2456
@<TRIPOS>BOND
     1    31    30    2
     2    30    29    1
     3    28    29    1
     4    29    32    1
     5     8     7   ar
     6    32    33    1
     7    27    26    1
     8    26    23    1
     9     9     7   ar
    10     7     6    1
    11    33    35   ar
    12    33    34   ar
    13    24    23    1
    14    24    25    2
    15    35    37   ar
    16    23    22    1
    17    34    36   ar
    18     6     5    1
    19    37    38   ar
    20    36    38   ar
    21     5     2    1
    22    21    20    2
    23    22    20   am
    24    54    53    2
    25    53    52    1
    26    39    40    1
    27    20    19    1
    28     2     1    1
    29     2     3    1
    30    56    57    1
    31    56    55    1
    32    58    57    1
    33    58    59    1
    34    52    55    1
    35    52    51    1
    36    40    41    1
    37    40    43    1
    38    41    42    2
    39    19    18    1
    40     3    10   am
    41     3     4    2
    42    18    12   am
    43    45    43    1
    44    10    11    1
    45    43    44    1
    46    12    11    1
    47    12    13    2
    48    11    14    1
    49    14    15    1
    50    15    16    1
    51    15    17    1
    52    48    49    2
    53    48    47    1
    54   157   155   ar
    55   156   155   ar
    56    74    73    1
    57   155   154    1
    58    47    50    1
    59    47    46    1
    60    67    68    1
    61    73    72    1
    62   132   131    1
    63   132   133    2
    64   135   133    1
    65   131   130    1
    66   154   151    1
    67    72    71    1
    68    91    90    1
    69   133   134    1
    70   151   152    1
    71   151   150    1
    72    68    71    1
    73    68    69    1
    74   152   153    2
    75    70    69    2
    76   130   129    1
    77    69    75   am
    78   150   146   am
    79    90    89    1
    80   129   126    1
    81   123   124    1
    82   123   122    1
    83   128   127    2
    84    75    76    1
    85   146   147    2
    86   146   145    1
    87    89    88    1
    88    88    85    1
    89   149   148    1
    90   124   118    1
    91   127   126    1
    92   126   125    1
    93   142   141    1
    94   148   145    1
    95    78    77    2
    96   122   119    1
    97    85    84    1
    98    85    86    1
    99    77    76    1
   100    77    84   am
   101    76    79    1
   102   143   141    1
   103   145   144    1
   104    65    64    1
   105   141   140    1
   106   105   103   ar
   107   118   119    1
   108   118   116   am
   109   115   116    1
   110   115   114    1
   111    95    94    2
   112   104   103   ar
   113   119   120    1
   114    92    86   am
   115    92    93    1
   116    86    87    2
   117    79    80    1
   118    64    66    1
   119    64    61    1
   120   103   102    1
   121   100    99    2
   122   116   117    2
   123    63    62    2
   124   114   108   am
   125    94    93    1
   126    94    97   am
   127    80    81    1
   128   140   137    1
   129    62    61    1
   130    93    96    1
   131    98    99    1
   132    98    97    1
   133    98   101    1
   134   120   121    2
   135    99   106   am
   136   109   108    2
   137   108   107    1
   138    61    60    1
   139   102   101    1
   140   137   136    1
   141   137   138    1
   142   106   107    1
   143   107   110    1
   144    81    82   ar
   145    81    83   ar
   146   138   139    2
   147   110   111    1
   148   112   111    1
   149   111   113    1
