@<TRIPOS>MOLECULE
tmp/3fqwA00.pdb
 219 211 0 0 0
SMALL
GASTEIGER

@<TRIPOS>ATOM
      1  N          7.3100   -0.4550  -43.5170 N.3     5  MET5       -0.1245
      2  CA         6.3210   -1.3930  -43.0220 C.3     5  MET5        0.1570
      3  C          7.0540   -2.6820  -42.7020 C.2     5  MET5        0.2261
      4  O          7.8650   -3.1460  -43.5050 O.2     5  MET5       -0.2867
      5  CB         5.2240   -1.6460  -44.0540 C.3     5  MET5        0.0387
      6  CG         4.2120   -2.6990  -43.5730 C.3     5  MET5        0.0595
      7  SD         2.6410   -2.6280  -44.4560 S.3     5  MET5       -0.1393
      8  CE         3.1080   -3.3840  -46.0080 C.3     5  MET5        0.0692
      9  N          6.6840   -6.7610  -40.8020 N.3     7  TYR7       -0.1241
     10  CA         5.9420   -7.8280  -40.1370 C.3     7  TYR7        0.1605
     11  C          6.9120   -8.7370  -39.4100 C.2     7  TYR7        0.2264
     12  O          7.9860   -9.0360  -39.9330 O.2     7  TYR7       -0.2867
     13  CB         5.1100   -8.6360  -41.1360 C.3     7  TYR7        0.0534
     14  CG         3.8650   -7.9130  -41.6190 C.ar    7  TYR7       -0.0201
     15  CD1        2.6740   -7.9830  -40.9020 C.ar    7  TYR7       -0.0009
     16  CD2        3.8850   -7.1620  -42.7850 C.ar    7  TYR7       -0.0009
     17  CE1        1.5320   -7.3260  -41.3350 C.ar    7  TYR7        0.0417
     18  CE2        2.7480   -6.5100  -43.2340 C.ar    7  TYR7        0.0417
     19  CZ         1.5760   -6.5960  -42.5050 C.ar    7  TYR7        0.1957
     20  OH         0.4420   -5.9470  -42.9510 O.3     7  TYR7       -0.2866
     21  N          7.1860  -12.3970  -37.1450 N.3     9  PHE9       -0.1241
     22  CA         6.5120  -13.6620  -36.8730 C.3     9  PHE9        0.1605
     23  C          7.3570  -14.5100  -35.9490 C.2     9  PHE9        0.2264
     24  O          8.5310  -14.7250  -36.2210 O.2     9  PHE9       -0.2867
     25  CB         6.3250  -14.4590  -38.1690 C.3     9  PHE9        0.0534
     26  CG         5.5520  -13.7340  -39.2190 C.ar    9  PHE9       -0.0203
     27  CD1        4.1930  -13.9430  -39.3610 C.ar    9  PHE9       -0.0042
     28  CD2        6.1860  -12.8370  -40.0650 C.ar    9  PHE9       -0.0042
     29  CE1        3.4770  -13.2700  -40.3350 C.ar    9  PHE9       -0.0003
     30  CE2        5.4780  -12.1530  -41.0400 C.ar    9  PHE9       -0.0003
     31  CZ         4.1200  -12.3730  -41.1760 C.ar    9  PHE9       -0.0000
     32  N         -6.6060  -12.1960  -37.9050 N.3    45  MET45      -0.1245
     33  CA        -5.8090  -10.9790  -37.8340 C.3    45  MET45       0.1570
     34  C         -6.6930   -9.8870  -37.2360 C.2    45  MET45       0.2261
     35  O         -7.8420   -9.7400  -37.6480 O.2    45  MET45      -0.2867
     36  CB        -5.3330  -10.5480  -39.2140 C.3    45  MET45       0.0387
     37  CG        -4.3110   -9.4270  -39.1330 C.3    45  MET45       0.0595
     38  SD        -2.6850  -10.0730  -38.6790 S.3    45  MET45      -0.1393
     39  CE        -1.8540   -9.9290  -40.2570 C.3    45  MET45       0.0692
     40  N        -10.3060   -7.5970  -46.8330 N.3    59  TYR59      -0.1241
     41  CA        -8.9940   -7.3860  -46.2370 C.3    59  TYR59       0.1605
     42  C         -8.7780   -8.3440  -45.0700 C.2    59  TYR59       0.2264
     43  O         -7.8150   -9.1110  -45.0560 O.2    59  TYR59      -0.2867
     44  CB        -8.8440   -5.9390  -45.7570 C.3    59  TYR59       0.0534
     45  CG        -7.5060   -5.6250  -45.1100 C.ar   59  TYR59      -0.0201
     46  CD1       -7.3330   -5.7170  -43.7310 C.ar   59  TYR59      -0.0009
     47  CD2       -6.4190   -5.2170  -45.8800 C.ar   59  TYR59      -0.0009
     48  CE1       -6.1040   -5.4250  -43.1330 C.ar   59  TYR59       0.0417
     49  CE2       -5.1980   -4.9170  -45.3000 C.ar   59  TYR59       0.0417
     50  CZ        -5.0450   -5.0230  -43.9250 C.ar   59  TYR59       0.1957
     51  OH        -3.8320   -4.7200  -43.3510 O.3    59  TYR59      -0.2866
     52  N         -6.0890  -11.3710  -44.8410 N.3    63  GLU63      -0.1245
     53  CA        -4.9490  -11.2820  -43.9230 C.3    63  GLU63       0.1567
     54  C         -4.9570  -12.4600  -42.9550 C.2    63  GLU63       0.2260
     55  O         -3.9150  -13.0160  -42.6180 O.2    63  GLU63      -0.2867
     56  CB        -4.9690   -9.9590  -43.1490 C.3    63  GLU63       0.0388
     57  CG        -4.7140   -8.7370  -44.0230 C.3    63  GLU63       0.1160
     58  CD        -3.4130   -8.8530  -44.7940 C.2    63  GLU63       0.3649
     59  OE1       -2.3520   -8.5360  -44.2210 O.co2  63  GLU63      -0.2457
     60  OE2       -3.4440   -9.2720  -45.9720 O.co2  63  GLU63      -0.2457
     61  N         -3.8480  -15.6620  -44.8220 N.3    66  LYS66      -0.1231
     62  CA        -2.4120  -15.6710  -45.0940 C.3    66  LYS66       0.1693
     63  C         -1.5800  -15.8720  -43.8390 C.2    66  LYS66       0.2591
     64  O         -0.5940  -16.6080  -43.8700 O.2    66  LYS66      -0.2718
     65  CB        -1.9670  -14.3940  -45.8090 C.3    66  LYS66       0.0285
     66  CG        -2.2860  -14.3950  -47.2900 C.3    66  LYS66       0.0035
     67  CD        -2.2490  -12.9820  -47.8580 C.3    66  LYS66       0.0206
     68  CE        -2.9140  -12.9400  -49.2300 C.3    66  LYS66       0.1093
     69  NZ        -2.9960  -11.5670  -49.7940 N.3    66  LYS66      -0.1314
     70  N         -1.9490  -15.2280  -42.7340 N.am   67  VAL67      -0.1980
     71  CA        -1.1710  -15.3560  -41.5040 C.3    67  VAL67       0.1595
     72  C         -1.3190  -16.7680  -40.9220 C.2    67  VAL67       0.2287
     73  O         -0.3730  -17.3290  -40.3580 O.2    67  VAL67      -0.2864
     74  CB        -1.5350  -14.2540  -40.4660 C.3    67  VAL67       0.0276
     75  CG1       -2.8830  -14.5320  -39.8090 C.3    67  VAL67       0.0022
     76  CG2       -0.4490  -14.1220  -39.4120 C.3    67  VAL67       0.0022
     77  N         -1.7180  -19.3980  -42.7360 N.3    69  ALA69      -0.1231
     78  CA        -0.8400  -20.1860  -43.5970 C.3    69  ALA69       0.1694
     79  C          0.6320  -20.0590  -43.1680 C.2    69  ALA69       0.2592
     80  O          1.3750  -21.0450  -43.1910 O.2    69  ALA69      -0.2718
     81  CB        -1.0200  -19.7880  -45.0510 C.3    69  ALA69       0.0304
     82  N          1.0530  -18.8490  -42.7910 N.am   70  HIS70      -0.1976
     83  CA         2.3940  -18.6360  -42.2210 C.3    70  HIS70       0.1656
     84  C          2.5980  -19.5040  -40.9980 C.2    70  HIS70       0.2291
     85  O          3.6740  -20.0580  -40.7830 O.2    70  HIS70      -0.2864
     86  CB         2.5980  -17.1840  -41.7700 C.3    70  HIS70       0.0771
     87  CG         2.9360  -16.2360  -42.8790 C.ar   70  HIS70       0.0820
     88  ND1        4.2040  -15.7230  -43.0600 N.ar   70  HIS70      -0.2267
     89  CD2        2.1690  -15.6940  -43.8520 C.ar   70  HIS70       0.1154
     90  CE1        4.2020  -14.9080  -44.1010 C.ar   70  HIS70       0.1986
     91  NE2        2.9810  -14.8760  -44.6020 N.ar   70  HIS70      -0.2212
     92  N          3.2150  -23.0280  -42.0900 N.3    73  THR73      -0.1218
     93  CA         4.5490  -23.1150  -42.6780 C.3    73  THR73       0.1862
     94  C          5.6250  -23.2260  -41.5850 C.2    73  THR73       0.2287
     95  O          6.4970  -24.0880  -41.6460 O.2    73  THR73      -0.2866
     96  CB         4.8160  -21.9410  -43.6230 C.3    73  THR73       0.1770
     97  OG1        3.9860  -22.0880  -44.7800 O.3    73  THR73      -0.2211
     98  CG2        6.2980  -21.9070  -44.0620 C.3    73  THR73       0.0375
     99  N         10.6620  -14.8390  -38.1440 N.3    97  ARG97      -0.1245
    100  CA        10.7570  -14.3290  -39.4980 C.3    97  ARG97       0.1563
    101  C         10.3690  -12.8700  -39.4560 C.2    97  ARG97       0.2260
    102  O          9.4330  -12.4970  -38.7520 O.2    97  ARG97      -0.2867
    103  CB         9.8160  -15.0910  -40.4370 C.3    97  ARG97       0.0307
    104  CG         9.9830  -14.7140  -41.9050 C.3    97  ARG97       0.0489
    105  CD         8.7830  -15.1690  -42.7590 C.3    97  ARG97       0.2205
    106  NE         8.4940  -16.6020  -42.6740 N.pl3  97  ARG97      -0.0865
    107  CZ         8.8880  -17.5140  -43.5620 C.cat  97  ARG97       0.5346
    108  NH1        9.6300  -17.1680  -44.6080 N.pl3  97  ARG97       0.1354
    109  NH2        8.5450  -18.7890  -43.3990 N.pl3  97  ARG97       0.1354
    110  N          9.9960   -9.4290  -42.2370 N.3    99  TYR99      -0.1241
    111  CA        10.1520   -8.8680  -43.5640 C.3    99  TYR99       0.1605
    112  C          9.4740   -7.5170  -43.6800 C.2    99  TYR99       0.2264
    113  O          8.6350   -7.1590  -42.8590 O.2    99  TYR99      -0.2867
    114  CB         9.6800   -9.8350  -44.6550 C.3    99  TYR99       0.0534
    115  CG         8.2250  -10.2990  -44.5720 C.ar   99  TYR99      -0.0201
    116  CD1        7.1880   -9.4940  -45.0220 C.ar   99  TYR99      -0.0009
    117  CD2        7.9100  -11.5600  -44.0800 C.ar   99  TYR99      -0.0009
    118  CE1        5.8560   -9.9270  -44.9690 C.ar   99  TYR99       0.0417
    119  CE2        6.6000  -12.0110  -44.0310 C.ar   99  TYR99       0.0417
    120  CZ         5.5760  -11.1910  -44.4750 C.ar   99  TYR99       0.1957
    121  OH         4.2700  -11.6380  -44.4140 O.3    99  TYR99      -0.2866
    122  N         13.9870   -9.6370  -45.8630 N.3   114  HIS114     -0.1241
    123  CA        13.2690  -10.8260  -45.4310 C.3   114  HIS114      0.1621
    124  C         14.2790  -11.7520  -44.7980 C.2   114  HIS114      0.2264
    125  O         15.1300  -12.3190  -45.4850 O.2   114  HIS114     -0.2867
    126  CB        12.6280  -11.5350  -46.6100 C.3   114  HIS114      0.0745
    127  CG        11.9150  -12.7960  -46.2290 C.ar  114  HIS114      0.0817
    128  ND1       10.5410  -12.8850  -46.1760 N.ar  114  HIS114     -0.2268
    129  CD2       12.3850  -14.0050  -45.8460 C.ar  114  HIS114      0.1154
    130  CE1       10.1940  -14.1020  -45.7970 C.ar  114  HIS114      0.1986
    131  NE2       11.2930  -14.8020  -45.5920 N.ar  114  HIS114     -0.2212
    132  N         15.1690  -23.0370  -51.9160 N.3   147  TRP147     -0.1241
    133  CA        14.5000  -21.7780  -52.2080 C.3   147  TRP147      0.1605
    134  C         14.9020  -21.2360  -53.5750 C.2   147  TRP147      0.2264
    135  O         14.1180  -20.5500  -54.2360 O.2   147  TRP147     -0.2867
    136  CB        14.7790  -20.7660  -51.0970 C.3   147  TRP147      0.0550
    137  CG        13.9690  -21.0550  -49.8570 C.ar  147  TRP147      0.0003
    138  CD1       13.2510  -22.1940  -49.5990 C.ar  147  TRP147      0.0946
    139  CD2       13.7970  -20.2040  -48.7140 C.ar  147  TRP147      0.0152
    140  NE1       12.6400  -22.0970  -48.3730 N.ar  147  TRP147     -0.2442
    141  CE2       12.9590  -20.8910  -47.8060 C.ar  147  TRP147      0.0810
    142  CE3       14.2690  -18.9310  -48.3670 C.ar  147  TRP147      0.0012
    143  CZ2       12.5770  -20.3430  -46.5720 C.ar  147  TRP147      0.0191
    144  CZ3       13.8910  -18.3860  -47.1400 C.ar  147  TRP147      0.0001
    145  CH2       13.0510  -19.0910  -46.2590 C.ar  147  TRP147      0.0015
    146  N         12.7540  -23.1200  -55.9860 N.3   150  ALA150     -0.1245
    147  CA        11.3470  -22.7210  -55.8940 C.3   150  ALA150      0.1562
    148  C         11.0850  -21.2430  -56.2200 C.2   150  ALA150      0.2260
    149  O          9.9960  -20.7300  -55.9580 O.2   150  ALA150     -0.2867
    150  CB        10.7820  -23.0650  -54.5160 C.3   150  ALA150      0.0290
    151  N         11.8500  -18.6100  -54.8260 N.3   152  VAL152     -0.1245
    152  CA        11.3640  -17.8850  -53.6490 C.3   152  VAL152      0.1561
    153  C         11.7390  -16.4020  -53.6510 C.2   152  VAL152      0.2260
    154  O         10.9070  -15.5530  -53.3370 O.2   152  VAL152     -0.2867
    155  CB        11.8380  -18.5380  -52.3370 C.3   152  VAL152      0.0252
    156  CG1       11.4530  -17.6690  -51.1300 C.3   152  VAL152      0.0019
    157  CG2       11.2450  -19.9300  -52.2090 C.3   152  VAL152      0.0019
    158  N          9.4800  -14.1260  -55.8820 N.3   155  GLN155     -0.1231
    159  CA         8.1950  -13.8110  -55.2700 C.3   155  GLN155      0.1698
    160  C          8.3350  -12.7800  -54.1730 C.2   155  GLN155      0.2592
    161  O          7.4970  -11.8840  -54.0480 O.2   155  GLN155     -0.2718
    162  CB         7.5290  -15.0650  -54.7130 C.3   155  GLN155      0.0381
    163  CG         7.0580  -16.0240  -55.7800 C.3   155  GLN155      0.0905
    164  CD         6.4140  -17.2580  -55.1900 C.2   155  GLN155      0.2608
    165  OE1        5.5180  -17.1580  -54.3560 O.2   155  GLN155     -0.2717
    166  NE2        6.8700  -18.4310  -55.6200 N.am  155  GLN155     -0.0878
    167  N          9.3750  -12.9050  -53.3570 N.am  156  LEU156     -0.1980
    168  CA         9.5890  -11.9100  -52.2970 C.3   156  LEU156      0.1596
    169  C          9.9010  -10.5330  -52.8860 C.2   156  LEU156      0.2287
    170  O          9.3630   -9.5170  -52.4490 O.2   156  LEU156     -0.2864
    171  CB        10.7060  -12.3470  -51.3510 C.3   156  LEU156      0.0297
    172  CG        10.3600  -13.5140  -50.4290 C.3   156  LEU156      0.0022
    173  CD1       11.5950  -13.9040  -49.6360 C.3   156  LEU156      0.0001
    174  CD2        9.1950  -13.1290  -49.4830 C.3   156  LEU156      0.0001
    175  N          6.7830   -8.8620  -54.0800 N.3   159  TYR159     -0.1241
    176  CA         6.0160   -8.3560  -52.9300 C.3   159  TYR159      0.1605
    177  C          6.6310   -7.0850  -52.3300 C.2   159  TYR159      0.2264
    178  O          5.9340   -6.0830  -52.0850 O.2   159  TYR159     -0.2867
    179  CB         5.8630   -9.4390  -51.8400 C.3   159  TYR159      0.0534
    180  CG         5.3980   -8.8860  -50.5020 C.ar  159  TYR159     -0.0201
    181  CD1        4.0550   -8.6100  -50.2670 C.ar  159  TYR159     -0.0009
    182  CD2        6.3090   -8.6140  -49.4890 C.ar  159  TYR159     -0.0009
    183  CE1        3.6320   -8.0910  -49.0470 C.ar  159  TYR159      0.0417
    184  CE2        5.9000   -8.0950  -48.2750 C.ar  159  TYR159      0.0417
    185  CZ         4.5610   -7.8410  -48.0520 C.ar  159  TYR159      0.1957
    186  OH         4.1640   -7.3190  -46.8290 O.3   159  TYR159     -0.2866
    187  N          3.4320   -4.8270  -53.6790 N.3   163  THR163     -0.1218
    188  CA         2.4050   -4.8340  -52.6450 C.3   163  THR163      0.1862
    189  C          2.8500   -4.1610  -51.3490 C.2   163  THR163      0.2287
    190  O          2.1010   -3.3920  -50.7510 O.2   163  THR163     -0.2866
    191  CB         1.9370   -6.2650  -52.3220 C.3   163  THR163      0.1770
    192  OG1        1.2800   -6.8250  -53.4650 O.3   163  THR163     -0.2211
    193  CG2        0.9580   -6.2540  -51.1600 C.3   163  THR163      0.0375
    194  N          0.7850   -0.7710  -50.2490 N.3   167  TRP167     -0.1241
    195  CA        -0.0650   -0.7380  -49.0700 C.3   167  TRP167      0.1605
    196  C          0.5080    0.1270  -47.9420 C.2   167  TRP167      0.2264
    197  O         -0.2420    0.7620  -47.1960 O.2   167  TRP167     -0.2867
    198  CB        -0.4450   -2.1630  -48.6430 C.3   167  TRP167      0.0550
    199  CG        -1.4590   -2.6930  -49.6000 C.ar  167  TRP167      0.0003
    200  CD1       -1.2410   -3.0880  -50.8950 C.ar  167  TRP167      0.0946
    201  CD2       -2.8630   -2.8200  -49.3730 C.ar  167  TRP167      0.0152
    202  NE1       -2.4250   -3.4730  -51.4780 N.ar  167  TRP167     -0.2442
    203  CE2       -3.4360   -3.3160  -50.5650 C.ar  167  TRP167      0.0810
    204  CE3       -3.6940   -2.5740  -48.2750 C.ar  167  TRP167      0.0012
    205  CZ2       -4.7960   -3.5720  -50.6850 C.ar  167  TRP167      0.0191
    206  CZ3       -5.0470   -2.8250  -48.3990 C.ar  167  TRP167      0.0001
    207  CH2       -5.5830   -3.3200  -49.5930 C.ar  167  TRP167      0.0015
    208  N         -1.5740    3.0070  -46.1600 N.3   171  TYR171     -0.1241
    209  CA        -1.6450    3.1680  -44.7070 C.3   171  TYR171      0.1605
    210  C         -1.1980    4.5650  -44.2500 C.2   171  TYR171      0.2264
    211  O         -1.8480    5.1910  -43.4090 O.2   171  TYR171     -0.2867
    212  CB        -0.8020    2.0980  -43.9930 C.3   171  TYR171      0.0534
    213  CG        -1.2300    0.6750  -44.2710 C.ar  171  TYR171     -0.0201
    214  CD1       -2.5620    0.3590  -44.5350 C.ar  171  TYR171     -0.0009
    215  CD2       -0.3030   -0.3590  -44.2450 C.ar  171  TYR171     -0.0009
    216  CE1       -2.9500   -0.9500  -44.7870 C.ar  171  TYR171      0.0417
    217  CE2       -0.6810   -1.6640  -44.4900 C.ar  171  TYR171      0.0417
    218  CZ        -1.9970   -1.9560  -44.7630 C.ar  171  TYR171      0.1957
    219  OH        -2.3520   -3.2710  -44.9980 O.3   171  TYR171     -0.2866
@<TRIPOS>BOND
     1   148   149    2
     2   148   147    1
     3   146   147    1
     4   147   150    1
     5   158   159    1
     6   163   164    1
     7   163   162    1
     8   166   164   am
     9   159   162    1
    10   159   160    1
    11   164   165    2
    12   151   152    1
    13   135   134    2
    14   160   161    2
    15   160   167   am
    16   175   176    1
    17   187   188    1
    18   153   152    1
    19   153   154    2
    20   152   155    1
    21   134   133    1
    22   192   191    1
    23   167   168    1
    24   176   177    1
    25   176   179    1
    26   169   170    2
    27   169   168    1
    28   188   191    1
    29   188   189    1
    30   155   157    1
    31   155   156    1
    32   177   178    2
    33   191   193    1
    34   168   171    1
    35   133   132    1
    36   133   136    1
    37   179   180    1
    38   202   200   ar
    39   202   203   ar
    40   171   172    1
    41   189   190    2
    42   136   137    1
    43   200   199   ar
    44   205   203   ar
    45   205   207   ar
    46   203   201   ar
    47   180   181   ar
    48   180   182   ar
    49   172   173    1
    50   172   174    1
    51   181   183   ar
    52   194   195    1
    53   137   138   ar
    54   137   139   ar
    55    69    68    1
    56   199   201   ar
    57   199   198    1
    58   138   140   ar
    59   207   206   ar
    60   182   184   ar
    61   201   204   ar
    62    68    67    1
    63   195   198    1
    64   195   196    1
    65   183   185   ar
    66   139   142   ar
    67   139   141   ar
    68   206   204   ar
    69   140   141   ar
    70   142   144   ar
    71   184   185   ar
    72   185   186    1
    73   196   197    2
    74    67    66    1
    75   141   143   ar
    76    66    65    1
    77   144   145   ar
    78    40    41    1
    79   126   127    1
    80   126   123    1
    81   143   145   ar
    82    41    44    1
    83    41    42    1
    84   127   128   ar
    85   127   129   ar
    86   128   130   ar
    87   208   209    1
    88     8     7    1
    89    60    58   ar
    90    47    49   ar
    91    47    45   ar
    92   122   123    1
    93   129   131   ar
    94    65    62    1
    95   130   131   ar
    96    44    45    1
    97   125   124    2
    98   123   124    1
    99    49    50   ar
   100    45    46   ar
   101    62    61    1
   102    62    63    1
   103    42    43    2
   104    81    78    1
   105   116   118   ar
   106   116   115   ar
   107   219   218    1
   108   118   120   ar
   109    52    53    1
   110    58    59   ar
   111    58    57    1
   112   216   218   ar
   113   216   214   ar
   114    97    96    1
   115   218   217   ar
   116   209   210    1
   117   209   212    1
   118   114   115    1
   119   114   111    1
   120   108   107    1
   121    91    90   ar
   122    91    89   ar
   123   115   117   ar
   124   214   213   ar
   125   217   215   ar
   126   120   121    1
   127   120   119   ar
   128     7     6    1
   129   213   215   ar
   130   213   212    1
   131   210   211    2
   132    90    88   ar
   133   117   119   ar
   134    98    96    1
   135     5     6    1
   136     5     2    1
   137    57    56    1
   138    50    51    1
   139    50    48   ar
   140    53    56    1
   141    53    54    1
   142    64    63    2
   143    89    87   ar
   144    63    70   am
   145    46    48   ar
   146   112   111    1
   147   112   113    2
   148    96    93    1
   149    78    79    1
   150    78    77    1
   151   111   110    1
   152   107   109    1
   153   107   106    2
   154     1     2    1
   155     4     3    2
   156    18    16   ar
   157    18    19   ar
   158    80    79    2
   159    79    82   am
   160    88    87   ar
   161     2     3    1
   162    54    55    2
   163    20    19    1
   164    87    86    1
   165    82    83    1
   166    16    14   ar
   167   105   106    1
   168   105   104    1
   169    70    71    1
   170    93    92    1
   171    93    94    1
   172    19    17   ar
   173    83    86    1
   174    83    84    1
   175   104   103    1
   176    95    94    2
   177    14    13    1
   178    14    15   ar
   179    71    72    1
   180    71    74    1
   181    17    15   ar
   182    31    30   ar
   183    31    29   ar
   184    13    10    1
   185    30    28   ar
   186    84    85    2
   187    72    73    2
   188     9    10    1
   189    74    75    1
   190    74    76    1
   191   103   100    1
   192    29    27   ar
   193    39    38    1
   194    10    11    1
   195    28    26   ar
   196    12    11    2
   197   100   101    1
   198   100    99    1
   199   101   102    2
   200    27    26   ar
   201    26    25    1
   202    36    37    1
   203    36    33    1
   204    37    38    1
   205    25    22    1
   206    32    33    1
   207    33    34    1
   208    35    34    2
   209    21    22    1
   210    22    23    1
   211    24    23    2
