@<TRIPOS>MOLECULE
tmp/3fqxA00.pdb
 177 169 0 0 0
SMALL
GASTEIGER

@<TRIPOS>ATOM
      1  N         -3.7170  -15.6260  -45.0930 N.3    66  LYS66      -0.1245
      2  CA        -2.2720  -15.6190  -45.2780 C.3    66  LYS66       0.1561
      3  C         -1.5000  -15.8470  -43.9810 C.2    66  LYS66       0.2260
      4  O         -0.5220  -16.5990  -43.9530 O.2    66  LYS66      -0.2867
      5  CB        -1.8220  -14.3250  -45.9550 C.3    66  LYS66       0.0271
      6  CG        -2.2380  -14.2590  -47.4160 C.3    66  LYS66       0.0035
      7  CD        -1.9190  -12.9110  -48.0490 C.3    66  LYS66       0.0206
      8  CE        -2.6060  -12.7980  -49.4140 C.3    66  LYS66       0.1093
      9  NZ        -2.3230  -11.5350  -50.1490 N.3    66  LYS66      -0.1314
     10  N         -1.7440  -19.3800  -42.8260 N.3    69  ALA69      -0.1231
     11  CA        -0.8710  -20.1700  -43.6890 C.3    69  ALA69       0.1694
     12  C          0.5990  -20.0390  -43.2670 C.2    69  ALA69       0.2592
     13  O          1.3270  -21.0340  -43.2650 O.2    69  ALA69      -0.2718
     14  CB        -1.0640  -19.7760  -45.1540 C.3    69  ALA69       0.0304
     15  N          1.0240  -18.8210  -42.9100 N.am   70  HIS70      -0.1976
     16  CA         2.3610  -18.5940  -42.3490 C.3    70  HIS70       0.1656
     17  C          2.5810  -19.4730  -41.1270 C.2    70  HIS70       0.2291
     18  O          3.6460  -20.0560  -40.9480 O.2    70  HIS70      -0.2864
     19  CB         2.5460  -17.1430  -41.8930 C.3    70  HIS70       0.0771
     20  CG         3.0170  -16.2070  -42.9610 C.ar   70  HIS70       0.0820
     21  ND1        4.3380  -15.8330  -43.0930 N.ar   70  HIS70      -0.2267
     22  CD2        2.3370  -15.5280  -43.9160 C.ar   70  HIS70       0.1154
     23  CE1        4.4540  -14.9820  -44.0990 C.ar   70  HIS70       0.1986
     24  NE2        3.2540  -14.7780  -44.6140 N.ar   70  HIS70      -0.2212
     25  N          3.2480  -23.0050  -42.1990 N.3    73  THR73      -0.1218
     26  CA         4.5760  -23.1100  -42.7890 C.3    73  THR73       0.1862
     27  C          5.6470  -23.1670  -41.6890 C.2    73  THR73       0.2287
     28  O          6.5480  -23.9950  -41.7320 O.2    73  THR73      -0.2866
     29  CB         4.8340  -21.9630  -43.7810 C.3    73  THR73       0.1770
     30  OG1        3.9430  -22.1080  -44.9020 O.3    73  THR73      -0.2211
     31  CG2        6.2770  -22.0000  -44.2740 C.3    73  THR73       0.0375
     32  N          5.6880  -26.6090  -39.9050 N.3    76  VAL76      -0.1231
     33  CA         6.4300  -27.5970  -40.6790 C.3    76  VAL76       0.1692
     34  C          7.9340  -27.3100  -40.5780 C.2    76  VAL76       0.2592
     35  O          8.7320  -28.2270  -40.3740 O.2    76  VAL76      -0.2718
     36  CB         5.9780  -27.6200  -42.1470 C.3    76  VAL76       0.0266
     37  CG1        6.8710  -28.5540  -42.9780 C.3    76  VAL76       0.0020
     38  CG2        4.5080  -28.0310  -42.2420 C.3    76  VAL76       0.0020
     39  N          8.3050  -26.0340  -40.6850 N.am   77  ASP77      -0.1974
     40  CA         9.7050  -25.6290  -40.6250 C.3    77  ASP77       0.1709
     41  C         10.3490  -26.0860  -39.3160 C.2    77  ASP77       0.2293
     42  O         11.5030  -26.5120  -39.2960 O.2    77  ASP77      -0.2864
     43  CB         9.8430  -24.1050  -40.7280 C.3    77  ASP77       0.1436
     44  CG         9.6390  -23.5750  -42.1320 C.2    77  ASP77       0.3671
     45  OD1        9.5700  -24.3740  -43.0920 O.co2  77  ASP77      -0.2456
     46  OD2        9.5630  -22.3370  -42.2730 O.co2  77  ASP77      -0.2456
     47  N         11.2570  -29.5950  -39.8220 N.3    80  THR80      -0.1203
     48  CA        12.3760  -29.7040  -40.7550 C.3    80  THR80       0.1994
     49  C         13.6980  -29.3400  -40.0940 C.2    80  THR80       0.2617
     50  O         14.7120  -30.0470  -40.2620 O.2    80  THR80      -0.2717
     51  CB        12.1450  -28.8200  -41.9870 C.3    80  THR80       0.1784
     52  OG1       10.8900  -29.1780  -42.5770 O.3    80  THR80      -0.2211
     53  CG2       13.2730  -29.0220  -43.0170 C.3    80  THR80       0.0376
     54  N         13.6830  -28.2570  -39.3230 N.am   81  LEU81      -0.1979
     55  CA        14.8970  -27.7620  -38.6820 C.3    81  LEU81       0.1596
     56  C         15.3730  -28.7170  -37.5970 C.2    81  LEU81       0.2287
     57  O         16.5750  -28.9180  -37.4220 O.2    81  LEU81      -0.2864
     58  CB        14.6840  -26.3470  -38.1260 C.3    81  LEU81       0.0297
     59  CG        14.4930  -25.2800  -39.2140 C.3    81  LEU81       0.0022
     60  CD1       13.7200  -24.0730  -38.6870 C.3    81  LEU81       0.0001
     61  CD2       15.8310  -24.8450  -39.8170 C.3    81  LEU81       0.0001
     62  N         17.2510  -31.2140  -39.5910 N.3    84  TYR84      -0.1241
     63  CA        18.5100  -30.6730  -40.0990 C.3    84  TYR84       0.1605
     64  C         19.5970  -30.6770  -39.0270 C.2    84  TYR84       0.2264
     65  O         20.7590  -30.9710  -39.3130 O.2    84  TYR84      -0.2867
     66  CB        18.3440  -29.2340  -40.5930 C.3    84  TYR84       0.0534
     67  CG        17.6370  -29.0370  -41.9220 C.ar   84  TYR84      -0.0201
     68  CD1       17.3970  -30.0960  -42.7910 C.ar   84  TYR84      -0.0009
     69  CD2       17.2440  -27.7640  -42.3190 C.ar   84  TYR84      -0.0009
     70  CE1       16.7540  -29.8860  -44.0140 C.ar   84  TYR84       0.0417
     71  CE2       16.6110  -27.5430  -43.5290 C.ar   84  TYR84       0.0417
     72  CZ        16.3740  -28.6040  -44.3770 C.ar   84  TYR84       0.1957
     73  OH        15.7370  -28.3650  -45.5760 O.3    84  TYR84      -0.2866
     74  N         10.7140  -14.7620  -38.1990 N.3    97  ARG97      -0.1245
     75  CA        10.8370  -14.2330  -39.5450 C.3    97  ARG97       0.1563
     76  C         10.4340  -12.7710  -39.4990 C.2    97  ARG97       0.2260
     77  O          9.4630  -12.4170  -38.8310 O.2    97  ARG97      -0.2867
     78  CB         9.9070  -14.9880  -40.4960 C.3    97  ARG97       0.0307
     79  CG        10.1040  -14.6080  -41.9580 C.3    97  ARG97       0.0489
     80  CD         8.9430  -15.0490  -42.8410 C.3    97  ARG97       0.2205
     81  NE         8.6450  -16.4780  -42.7580 N.pl3  97  ARG97      -0.0865
     82  CZ         9.0140  -17.3830  -43.6630 C.cat  97  ARG97       0.5346
     83  NH1        9.7240  -17.0270  -44.7270 N.pl3  97  ARG97       0.1354
     84  NH2        8.6730  -18.6580  -43.4990 N.pl3  97  ARG97       0.1354
     85  N         14.1130   -9.4590  -45.8230 N.3   114  HIS114     -0.1241
     86  CA        13.3880  -10.6640  -45.4420 C.3   114  HIS114      0.1621
     87  C         14.3960  -11.5970  -44.8140 C.2   114  HIS114      0.2264
     88  O         15.2820  -12.1280  -45.4920 O.2   114  HIS114     -0.2867
     89  CB        12.7320  -11.3490  -46.6460 C.3   114  HIS114      0.0745
     90  CG        11.9750  -12.5900  -46.2850 C.ar  114  HIS114      0.0817
     91  ND1       10.5980  -12.6620  -46.3360 N.ar  114  HIS114     -0.2268
     92  CD2       12.3980  -13.7970  -45.8420 C.ar  114  HIS114      0.1154
     93  CE1       10.2060  -13.8600  -45.9430 C.ar  114  HIS114      0.1986
     94  NE2       11.2760  -14.5670  -45.6340 N.ar  114  HIS114     -0.2212
     95  N         15.2940  -14.6700  -41.6170 N.3   116  TYR116     -0.1241
     96  CA        14.7470  -15.8170  -40.9300 C.3   116  TYR116      0.1605
     97  C         15.7760  -16.3040  -39.9240 C.2   116  TYR116      0.2264
     98  O         16.9730  -16.3430  -40.2180 O.2   116  TYR116     -0.2867
     99  CB        14.4620  -16.9020  -41.9820 C.3   116  TYR116      0.0534
    100  CG        13.6500  -18.1040  -41.5460 C.ar  116  TYR116     -0.0201
    101  CD1       12.3590  -18.3060  -42.0310 C.ar  116  TYR116     -0.0009
    102  CD2       14.1880  -19.0590  -40.6920 C.ar  116  TYR116     -0.0009
    103  CE1       11.6130  -19.4220  -41.6560 C.ar  116  TYR116      0.0417
    104  CE2       13.4590  -20.1830  -40.3170 C.ar  116  TYR116      0.0417
    105  CZ        12.1750  -20.3580  -40.8020 C.ar  116  TYR116      0.1957
    106  OH        11.4580  -21.4720  -40.4200 O.3   116  TYR116     -0.2866
    107  N         19.6460  -17.4940  -39.7270 N.3   123  TYR123     -0.1241
    108  CA        19.5740  -18.7420  -40.4810 C.3   123  TYR123      0.1605
    109  C         19.7580  -18.4200  -41.9630 C.2   123  TYR123      0.2264
    110  O         20.7980  -18.7260  -42.5500 O.2   123  TYR123     -0.2867
    111  CB        18.2470  -19.4700  -40.2190 C.3   123  TYR123      0.0534
    112  CG        18.1400  -20.8230  -40.8940 C.ar  123  TYR123     -0.0201
    113  CD1       18.8420  -21.9240  -40.4080 C.ar  123  TYR123     -0.0009
    114  CD2       17.3290  -21.0030  -42.0070 C.ar  123  TYR123     -0.0009
    115  CE1       18.7500  -23.1670  -41.0260 C.ar  123  TYR123      0.0417
    116  CE2       17.2320  -22.2450  -42.6400 C.ar  123  TYR123      0.0417
    117  CZ        17.9380  -23.3200  -42.1450 C.ar  123  TYR123      0.1957
    118  OH        17.8400  -24.5640  -42.7580 O.3   123  TYR123     -0.2866
    119  N         18.6120  -25.0960  -47.3310 N.3   143  THR143     -0.1218
    120  CA        17.4330  -24.2770  -47.5470 C.3   143  THR143      0.1862
    121  C         17.6350  -23.3260  -48.7310 C.2   143  THR143      0.2287
    122  O         16.7300  -23.1330  -49.5380 O.2   143  THR143     -0.2866
    123  CB        17.0960  -23.4660  -46.2830 C.3   143  THR143      0.1770
    124  OG1       16.7170  -24.3650  -45.2320 O.3   143  THR143     -0.2211
    125  CG2       15.9480  -22.4870  -46.5670 C.3   143  THR143      0.0375
    126  N         17.0710  -25.0370  -51.9660 N.3   146  LYS146     -0.1231
    127  CA        15.6380  -25.2800  -52.0720 C.3   146  LYS146      0.1693
    128  C         14.9210  -23.9960  -52.5120 C.2   146  LYS146      0.2592
    129  O         14.0780  -24.0110  -53.4060 O.2   146  LYS146     -0.2718
    130  CB        15.1110  -25.7490  -50.7180 C.3   146  LYS146      0.0285
    131  CG        13.6710  -26.2180  -50.6790 C.3   146  LYS146      0.0035
    132  CD        13.3860  -26.8680  -49.3170 C.3   146  LYS146      0.0206
    133  CE        12.0140  -27.5270  -49.2570 C.3   146  LYS146      0.1093
    134  NZ        10.9130  -26.5310  -49.3220 N.3   146  LYS146     -0.1314
    135  N         15.2660  -22.8830  -51.8790 N.am  147  TRP147     -0.1976
    136  CA        14.6140  -21.6120  -52.1770 C.3   147  TRP147      0.1640
    137  C         14.9530  -21.0690  -53.5660 C.2   147  TRP147      0.2290
    138  O         14.1370  -20.3990  -54.2050 O.2   147  TRP147     -0.2864
    139  CB        14.9190  -20.6030  -51.0710 C.3   147  TRP147      0.0576
    140  CG        14.0910  -20.8940  -49.8460 C.ar  147  TRP147      0.0006
    141  CD1       13.3780  -22.0290  -49.6010 C.ar  147  TRP147      0.0946
    142  CD2       13.9080  -20.0490  -48.7030 C.ar  147  TRP147      0.0152
    143  NE1       12.7430  -21.9380  -48.3830 N.ar  147  TRP147     -0.2442
    144  CE2       13.0470  -20.7330  -47.8120 C.ar  147  TRP147      0.0810
    145  CE3       14.3720  -18.7780  -48.3530 C.ar  147  TRP147      0.0012
    146  CZ2       12.6550  -20.1930  -46.5870 C.ar  147  TRP147      0.0191
    147  CZ3       13.9760  -18.2370  -47.1350 C.ar  147  TRP147      0.0001
    148  CH2       13.1250  -18.9440  -46.2680 C.ar  147  TRP147      0.0015
    149  N         12.7690  -22.9870  -55.9500 N.3   150  ALA150     -0.1245
    150  CA        11.3630  -22.6020  -55.8130 C.3   150  ALA150      0.1562
    151  C         11.0830  -21.1240  -56.1280 C.2   150  ALA150      0.2260
    152  O          9.9760  -20.6330  -55.8920 O.2   150  ALA150     -0.2867
    153  CB        10.8500  -22.9550  -54.4100 C.3   150  ALA150      0.0290
    154  N         11.8860  -18.3920  -54.7390 N.3   152  VAL152     -0.1245
    155  CA        11.4530  -17.6190  -53.5750 C.3   152  VAL152      0.1561
    156  C         11.8610  -16.1450  -53.6430 C.2   152  VAL152      0.2260
    157  O         11.0350  -15.2570  -53.4100 O.2   152  VAL152     -0.2867
    158  CB        11.9710  -18.2490  -52.2700 C.3   152  VAL152      0.0252
    159  CG1       11.6500  -17.3480  -51.0620 C.3   152  VAL152      0.0019
    160  CG2       11.3870  -19.6410  -52.0970 C.3   152  VAL152      0.0019
    161  N          9.7140  -13.9530  -55.9010 N.3   155  GLN155     -0.1231
    162  CA         8.4230  -13.6150  -55.3130 C.3   155  GLN155      0.1698
    163  C          8.5710  -12.5580  -54.2250 C.2   155  GLN155      0.2592
    164  O          7.7640  -11.6230  -54.1300 O.2   155  GLN155     -0.2718
    165  CB         7.7520  -14.8710  -54.7460 C.3   155  GLN155      0.0381
    166  CG         7.4280  -15.9080  -55.8110 C.3   155  GLN155      0.0905
    167  CD         6.6850  -17.1040  -55.2670 C.2   155  GLN155      0.2608
    168  OE1        5.7690  -16.9660  -54.4560 O.2   155  GLN155     -0.2717
    169  NE2        7.0650  -18.2920  -55.7250 N.am  155  GLN155     -0.0878
    170  N          9.5920  -12.7070  -53.3910 N.am  156  LEU156     -0.1980
    171  CA         9.8190  -11.7320  -52.3230 C.3   156  LEU156      0.1596
    172  C         10.1430  -10.3510  -52.8910 C.2   156  LEU156      0.2287
    173  O          9.6170   -9.3390  -52.4260 O.2   156  LEU156     -0.2864
    174  CB        10.9270  -12.2010  -51.3760 C.3   156  LEU156      0.0297
    175  CG        10.5630  -13.3870  -50.4870 C.3   156  LEU156      0.0022
    176  CD1       11.7810  -13.7710  -49.6570 C.3   156  LEU156      0.0001
    177  CD2        9.3810  -13.0450  -49.5920 C.3   156  LEU156      0.0001
@<TRIPOS>BOND
     1   151   152    2
     2   151   150    1
     3   149   150    1
     4   161   162    1
     5   150   153    1
     6   166   167    1
     7   166   165    1
     8   169   167   am
     9   162   165    1
    10   162   163    1
    11   167   168    2
    12   154   155    1
    13   163   164    2
    14   163   170   am
    15   138   137    2
    16   156   155    1
    17   156   157    2
    18   155   158    1
    19   137   136    1
    20   129   128    2
    21   170   171    1
    22   172   173    2
    23   172   171    1
    24   128   127    1
    25   128   135   am
    26   171   174    1
    27   158   160    1
    28   158   159    1
    29   136   135    1
    30   136   139    1
    31   127   126    1
    32   127   130    1
    33   174   175    1
    34   139   140    1
    35   130   131    1
    36   131   132    1
    37   175   176    1
    38   175   177    1
    39     9     8    1
    40   140   141   ar
    41   140   142   ar
    42   141   143   ar
    43   122   121    2
    44     8     7    1
    45   134   133    1
    46   132   133    1
    47   121   120    1
    48   142   145   ar
    49   142   144   ar
    50   143   144   ar
    51   145   147   ar
    52     7     6    1
    53   144   146   ar
    54   120   119    1
    55   120   123    1
    56     6     5    1
    57   147   148   ar
    58    89    90    1
    59    89    86    1
    60   146   148   ar
    61   125   123    1
    62    91    90   ar
    63    91    93   ar
    64    90    92   ar
    65   123   124    1
    66     5     2    1
    67    93    94   ar
    68    92    94   ar
    69    85    86    1
    70    73    72    1
    71    88    87    2
    72    86    87    1
    73     2     1    1
    74     2     3    1
    75    14    11    1
    76    30    29    1
    77    83    82    1
    78    24    23   ar
    79    24    22   ar
    80    72    70   ar
    81    72    71   ar
    82    31    29    1
    83    23    21   ar
    84    70    68   ar
    85     3     4    2
    86    22    20   ar
    87    29    26    1
    88    11    12    1
    89    11    10    1
    90    82    84    1
    91    82    81    2
    92    71    69   ar
    93    12    13    2
    94    12    15   am
    95    21    20   ar
    96    45    44   ar
    97    53    51    1
    98    37    36    1
    99    20    19    1
   100    15    16    1
   101    80    81    1
   102    80    79    1
   103    68    67   ar
   104    26    25    1
   105    26    27    1
   106   118   117    1
   107   116   117   ar
   108   116   114   ar
   109    52    51    1
   110   110   109    2
   111    16    19    1
   112    16    17    1
   113    69    67   ar
   114    46    44   ar
   115    38    36    1
   116    36    33    1
   117   117   115   ar
   118    44    43    1
   119   101   103   ar
   120   101   100   ar
   121   114   112   ar
   122    51    48    1
   123    99   100    1
   124    99    96    1
   125   109   108    1
   126    79    78    1
   127    67    66    1
   128    28    27    2
   129   103   105   ar
   130    95    96    1
   131   100   102   ar
   132    17    18    2
   133   115   113   ar
   134    96    97    1
   135   112   113   ar
   136   112   111    1
   137   105   106    1
   138   105   104   ar
   139    48    49    1
   140    48    47    1
   141    43    40    1
   142   102   104   ar
   143    39    40    1
   144    39    34   am
   145    33    34    1
   146    33    32    1
   147    40    41    1
   148    66    63    1
   149    34    35    2
   150    78    75    1
   151   108   111    1
   152   108   107    1
   153    50    49    2
   154    98    97    2
   155    63    62    1
   156    63    64    1
   157    49    54   am
   158    61    59    1
   159    75    76    1
   160    75    74    1
   161    76    77    2
   162    54    55    1
   163    41    42    2
   164    65    64    2
   165    59    60    1
   166    59    58    1
   167    55    58    1
   168    55    56    1
   169    56    57    2
