@<TRIPOS>MOLECULE
tmp/3fqzA00.pdb
 184 178 0 0 0
SMALL
GASTEIGER

@<TRIPOS>ATOM
      1  N        -22.9810  -10.3340   35.6110 N.3     5  LEU5       -0.1231
      2  CA       -23.9350   -9.4460   36.2600 C.3     5  LEU5        0.1693
      3  C        -23.9640   -9.7970   37.7410 C.2     5  LEU5        0.2592
      4  O        -24.3610  -10.8960   38.1080 O.2     5  LEU5       -0.2718
      5  CB       -25.3190   -9.6210   35.6290 C.3     5  LEU5        0.0284
      6  CG       -26.5110   -8.8310   36.1750 C.3     5  LEU5        0.0019
      7  CD1      -26.2210   -7.3270   36.2190 C.3     5  LEU5        0.0001
      8  CD2      -27.7750   -9.1210   35.3480 C.3     5  LEU5        0.0001
      9  N        -23.5310   -8.8650   38.5910 N.am    6  VAL6       -0.1966
     10  CA       -23.3420   -9.1740   40.0130 C.3     6  VAL6        0.1727
     11  C        -23.5010   -7.9350   40.9000 C.2     6  VAL6        0.2616
     12  O        -23.2300   -6.8180   40.4620 O.2     6  VAL6       -0.2715
     13  CB       -21.9620   -9.8410   40.2730 C.3     6  VAL6        0.0290
     14  CG1      -20.8100   -8.8630   40.0060 C.3     6  VAL6        0.0023
     15  CG2      -21.8760  -10.3850   41.7120 C.3     6  VAL6        0.0023
     16  N        -23.9520   -8.1520   42.1360 N.am    7  ALA7       -0.1977
     17  CA       -23.9180   -7.1340   43.1760 C.3     7  ALA7        0.1597
     18  C        -23.0050   -7.6710   44.2760 C.2     7  ALA7        0.2287
     19  O        -23.1980   -8.7940   44.7530 O.2     7  ALA7       -0.2864
     20  CB       -25.3160   -6.8820   43.7200 C.3     7  ALA7        0.0319
     21  N        -21.3440  -11.6310   48.2390 N.3    14  ILE14      -0.1245
     22  CA       -22.5290  -11.6620   47.3690 C.3    14  ILE14       0.1561
     23  C        -23.7220  -12.3960   48.0080 C.2    14  ILE14       0.2260
     24  O        -24.8640  -12.2620   47.5620 O.2    14  ILE14      -0.2867
     25  CB       -22.2140  -12.2340   45.9430 C.3    14  ILE14       0.0252
     26  CG1      -21.8440  -13.7250   45.9940 C.3    14  ILE14       0.0019
     27  CG2      -21.1010  -11.4380   45.2750 C.3    14  ILE14       0.0019
     28  CD1      -21.7830  -14.4010   44.6070 C.3    14  ILE14       0.0001
     29  N        -27.9710  -18.5230   51.7230 N.3    18  ASN18      -0.1225
     30  CA       -28.8920  -18.6770   50.5900 C.3    18  ASN18       0.1785
     31  C        -29.6640  -17.4310   50.2140 C.2    18  ASN18       0.2597
     32  O        -30.6430  -17.5090   49.4670 O.2    18  ASN18      -0.2718
     33  CB       -29.8970  -19.8060   50.8510 C.3    18  ASN18       0.1169
     34  CG       -29.3460  -21.1630   50.5270 C.2    18  ASN18       0.2627
     35  OD1      -28.2060  -21.3030   50.0720 O.2    18  ASN18      -0.2716
     36  ND2      -30.1600  -22.1890   50.7620 N.am   18  ASN18      -0.0877
     37  N        -29.2430  -16.2840   50.7320 N.am   19  GLN19      -0.1965
     38  CA       -29.9640  -15.0420   50.4930 C.3    19  GLN19       0.1733
     39  C        -29.0040  -13.9290   50.1300 C.2    19  GLN19       0.2616
     40  O        -27.8160  -14.0020   50.4360 O.2    19  GLN19      -0.2715
     41  CB       -30.7630  -14.6390   51.7300 C.3    19  GLN19       0.0408
     42  CG       -31.8810  -15.6110   52.0800 C.3    19  GLN19       0.0908
     43  CD       -32.7410  -15.1380   53.2320 C.2    19  GLN19       0.2608
     44  OE1      -32.4470  -14.1290   53.8780 O.2    19  GLN19      -0.2717
     45  NE2      -33.8160  -15.8750   53.5030 N.am   19  GLN19      -0.0878
     46  N        -29.5260  -12.9130   49.4520 N.am   20  LEU20      -0.1977
     47  CA       -28.8160  -11.6500   49.3320 C.3    20  LEU20       0.1596
     48  C        -28.7810  -11.0400   50.7110 C.2    20  LEU20       0.2287
     49  O        -29.8030  -11.0110   51.3990 O.2    20  LEU20      -0.2864
     50  CB       -29.5640  -10.6950   48.4080 C.3    20  LEU20       0.0297
     51  CG       -29.6630  -11.0570   46.9460 C.3    20  LEU20       0.0022
     52  CD1      -30.6180  -10.0670   46.2990 C.3    20  LEU20       0.0001
     53  CD2      -28.2960  -10.9410   46.3310 C.3    20  LEU20       0.0001
     54  N        -28.5140   -7.9800   51.5960 N.3    22  TRP22      -0.1227
     55  CA       -29.1010   -6.6350   51.6240 C.3    22  TRP22       0.1737
     56  C        -30.4340   -6.5860   50.8760 C.2    22  TRP22       0.2595
     57  O        -30.7680   -7.5040   50.1190 O.2    22  TRP22      -0.2718
     58  CB       -28.1380   -5.6250   50.9950 C.3    22  TRP22       0.0564
     59  CG       -27.6080   -6.1200   49.6890 C.ar   22  TRP22       0.0003
     60  CD1      -28.2410   -6.0880   48.4690 C.ar   22  TRP22       0.0946
     61  CD2      -26.3510   -6.7580   49.4760 C.ar   22  TRP22       0.0152
     62  NE1      -27.4420   -6.6700   47.5110 N.ar   22  TRP22      -0.2442
     63  CE2      -26.2740   -7.0840   48.1010 C.ar   22  TRP22       0.0810
     64  CE3      -25.2650   -7.0660   50.3090 C.ar   22  TRP22       0.0012
     65  CZ2      -25.1590   -7.7150   47.5430 C.ar   22  TRP22       0.0191
     66  CZ3      -24.1600   -7.6960   49.7550 C.ar   22  TRP22       0.0001
     67  CH2      -24.1140   -8.0110   48.3840 C.ar   22  TRP22       0.0015
     68  N        -31.1810   -5.5020   51.0910 N.am   23  HIS23      -0.1975
     69  CA       -32.4060   -5.2300   50.3400 C.3    23  HIS23       0.1656
     70  C        -32.2570   -3.9370   49.5480 C.2    23  HIS23       0.2291
     71  O        -32.1490   -2.8490   50.1280 O.2    23  HIS23      -0.2864
     72  CB       -33.6270   -5.1310   51.2620 C.3    23  HIS23       0.0771
     73  CG       -34.9310   -5.2580   50.5340 C.ar   23  HIS23       0.0820
     74  ND1      -35.6140   -4.1710   50.0280 N.ar   23  HIS23      -0.2267
     75  CD2      -35.6640   -6.3480   50.2010 C.ar   23  HIS23       0.1154
     76  CE1      -36.7140   -4.5850   49.4250 C.ar   23  HIS23       0.1986
     77  NE2      -36.7680   -5.9020   49.5150 N.ar   23  HIS23      -0.2212
     78  N        -31.4310   -2.0680   42.6530 N.3    27  ASP27      -0.1225
     79  CA       -30.5530   -3.0170   41.9900 C.3    27  ASP27       0.1805
     80  C        -31.3610   -4.0990   41.2630 C.2    27  ASP27       0.2597
     81  O        -30.9830   -4.5220   40.1740 O.2    27  ASP27      -0.2718
     82  CB       -29.5490   -3.6160   42.9740 C.3    27  ASP27       0.1424
     83  CG       -28.6680   -4.6560   42.3360 C.2    27  ASP27       0.3668
     84  OD1      -28.7570   -5.8140   42.7730 O.co2  27  ASP27      -0.2456
     85  OD2      -27.9130   -4.3310   41.3940 O.co2  27  ASP27      -0.2456
     86  N        -32.4810   -4.5210   41.8480 N.am   28  LEU28      -0.1979
     87  CA       -33.3670   -5.4610   41.1660 C.3    28  LEU28       0.1596
     88  C        -33.9050   -4.8530   39.8680 C.2    28  LEU28       0.2287
     89  O        -34.0320   -5.5510   38.8610 O.2    28  LEU28      -0.2864
     90  CB       -34.5170   -5.8980   42.0730 C.3    28  LEU28       0.0297
     91  CG       -34.1780   -6.5940   43.3930 C.3    28  LEU28       0.0022
     92  CD1      -35.4680   -7.0610   44.0860 C.3    28  LEU28       0.0001
     93  CD2      -33.1890   -7.7480   43.2090 C.3    28  LEU28       0.0001
     94  N        -32.3020   -2.6010   38.0790 N.3    30  HIS30      -0.1226
     95  CA       -31.1000   -2.6250   37.2490 C.3    30  HIS30       0.1752
     96  C        -30.9520   -3.9800   36.5430 C.2    30  HIS30       0.2595
     97  O        -30.7390   -4.0310   35.3310 O.2    30  HIS30      -0.2718
     98  CB       -29.8980   -2.3240   38.1560 C.3    30  HIS30       0.0759
     99  CG       -28.5650   -2.3790   37.4770 C.ar   30  HIS30       0.0818
    100  ND1      -28.1710   -1.4600   36.5290 N.ar   30  HIS30      -0.2268
    101  CD2      -27.5100   -3.2090   37.6580 C.ar   30  HIS30       0.1154
    102  CE1      -26.9400   -1.7360   36.1360 C.ar   30  HIS30       0.1986
    103  NE2      -26.5160   -2.7950   36.8050 N.ar   30  HIS30      -0.2212
    104  N        -31.0970   -5.0660   37.3000 N.am   31  VAL31      -0.1980
    105  CA       -31.0720   -6.4240   36.7460 C.3    31  VAL31       0.1595
    106  C        -32.1540   -6.6280   35.6840 C.2    31  VAL31       0.2287
    107  O        -31.8710   -7.1490   34.6030 O.2    31  VAL31      -0.2864
    108  CB       -31.2300   -7.4910   37.8520 C.3    31  VAL31       0.0276
    109  CG1      -31.4350   -8.8760   37.2420 C.3    31  VAL31       0.0022
    110  CG2      -30.0060   -7.4960   38.7310 C.3    31  VAL31       0.0022
    111  N        -27.5910  -21.0510   43.0700 N.3    46  THR46      -0.1218
    112  CA       -28.1540  -19.7240   42.8290 C.3    46  THR46       0.1862
    113  C        -29.6160  -19.8280   42.4070 C.2    46  THR46       0.2287
    114  O        -30.4780  -19.1150   42.9340 O.2    46  THR46      -0.2866
    115  CB       -27.3460  -18.9460   41.7750 C.3    46  THR46       0.1770
    116  OG1      -26.0410  -18.6770   42.2960 O.3    46  THR46      -0.2211
    117  CG2      -28.0180  -17.6310   41.4400 C.3    46  THR46       0.0375
    118  N        -31.8490  -20.7530   45.3170 N.3    49  SER49      -0.1202
    119  CA       -31.9870  -19.6800   46.2880 C.3    49  SER49       0.2020
    120  C        -33.1300  -18.7590   45.8740 C.2    49  SER49       0.2618
    121  O        -33.8210  -18.1990   46.7330 O.2    49  SER49      -0.2717
    122  CB       -30.6850  -18.8950   46.4340 C.3    49  SER49       0.2103
    123  OG       -30.4970  -18.0610   45.3140 O.3    49  SER49      -0.2182
    124  N        -33.3300  -18.6090   44.5600 N.am   50  ILE50      -0.1979
    125  CA       -34.4440  -17.7930   44.0530 C.3    50  ILE50       0.1595
    126  C        -35.7340  -18.6070   43.9040 C.2    50  ILE50       0.2287
    127  O        -36.8200  -18.0940   44.1760 O.2    50  ILE50      -0.2864
    128  CB       -34.0870  -16.9800   42.7620 C.3    50  ILE50       0.0276
    129  CG1      -33.9590  -17.8680   41.5240 C.3    50  ILE50       0.0022
    130  CG2      -32.8060  -16.2100   42.9690 C.3    50  ILE50       0.0022
    131  CD1      -33.7060  -17.1050   40.2270 C.3    50  ILE50       0.0001
    132  N        -36.7030  -16.0540   36.4080 N.3    54  LEU54      -0.1245
    133  CA       -37.0750  -14.6570   36.2810 C.3    54  LEU54       0.1561
    134  C        -37.8100  -14.4680   34.9540 C.2    54  LEU54       0.2260
    135  O        -37.3550  -14.9580   33.9220 O.2    54  LEU54      -0.2867
    136  CB       -35.8400  -13.7590   36.3870 C.3    54  LEU54       0.0270
    137  CG       -35.2910  -13.6250   37.8170 C.3    54  LEU54       0.0019
    138  CD1      -34.0640  -12.7310   37.8540 C.3    54  LEU54       0.0001
    139  CD2      -36.3670  -13.0730   38.7480 C.3    54  LEU54       0.0001
    140  N        -24.8060  -15.0000   36.0700 N.3    92  PHE92      -0.1227
    141  CA       -25.6780  -14.3860   37.0900 C.3    92  PHE92       0.1736
    142  C        -25.3160  -14.7860   38.5290 C.2    92  PHE92       0.2596
    143  O        -25.7180  -14.1190   39.4900 O.2    92  PHE92      -0.2718
    144  CB       -27.1350  -14.7740   36.7850 C.3    92  PHE92       0.0547
    145  CG       -28.1800  -13.9020   37.4400 C.ar   92  PHE92      -0.0202
    146  CD1      -29.2140  -14.4800   38.1730 C.ar   92  PHE92      -0.0042
    147  CD2      -28.1830  -12.5140   37.2690 C.ar   92  PHE92      -0.0042
    148  CE1      -30.2130  -13.6890   38.7600 C.ar   92  PHE92      -0.0003
    149  CE2      -29.1730  -11.7200   37.8570 C.ar   92  PHE92      -0.0003
    150  CZ       -30.1820  -12.3020   38.6050 C.ar   92  PHE92      -0.0000
    151  N        -24.5650  -15.8740   38.6680 N.am   93  GLY93      -0.1957
    152  CA       -24.1460  -16.3740   39.9880 C.3    93  GLY93       0.1869
    153  C        -23.9790  -17.8800   39.9690 C.2    93  GLY93       0.2309
    154  O        -24.3760  -18.5250   38.9900 O.2    93  GLY93      -0.2863
    155  N        -18.9840  -17.7060   38.9880 N.3    98  PHE98      -0.1241
    156  CA       -18.1400  -16.5190   38.8050 C.3    98  PHE98       0.1605
    157  C        -16.6500  -16.8850   38.7510 C.2    98  PHE98       0.2264
    158  O        -15.9210  -16.3760   37.8960 O.2    98  PHE98      -0.2867
    159  CB       -18.4070  -15.4490   39.8820 C.3    98  PHE98       0.0534
    160  CG       -19.7470  -14.7530   39.7570 C.ar   98  PHE98      -0.0203
    161  CD1      -20.2470  -14.3600   38.5100 C.ar   98  PHE98      -0.0042
    162  CD2      -20.4850  -14.4400   40.8950 C.ar   98  PHE98      -0.0042
    163  CE1      -21.4780  -13.7050   38.4050 C.ar   98  PHE98      -0.0003
    164  CE2      -21.7170  -13.7990   40.8010 C.ar   98  PHE98      -0.0003
    165  CZ       -22.2110  -13.4150   39.5460 C.ar   98  PHE98      -0.0000
    166  N        -21.0240   -6.1320   34.6550 N.3   109  TYR109     -0.1241
    167  CA       -21.9220   -5.1420   35.2240 C.3   109  TYR109      0.1605
    168  C        -21.9850   -5.4030   36.7130 C.2   109  TYR109      0.2264
    169  O        -22.6240   -6.3600   37.1640 O.2   109  TYR109     -0.2867
    170  CB       -23.3140   -5.2710   34.6260 C.3   109  TYR109      0.0534
    171  CG       -23.3670   -4.8950   33.1700 C.ar  109  TYR109     -0.0201
    172  CD1      -23.1560   -5.8530   32.1790 C.ar  109  TYR109     -0.0009
    173  CD2      -23.6230   -3.5830   32.7880 C.ar  109  TYR109     -0.0009
    174  CE1      -23.1900   -5.5050   30.8310 C.ar  109  TYR109      0.0417
    175  CE2      -23.6690   -3.2240   31.4520 C.ar  109  TYR109      0.0417
    176  CZ       -23.4580   -4.1890   30.4810 C.ar  109  TYR109      0.1957
    177  OH       -23.5050   -3.8330   29.1500 O.3   109  TYR109     -0.2866
    178  N        -22.7160   -4.0390   40.6180 N.3   111  THR111     -0.1218
    179  CA       -23.2650   -3.0890   41.5760 C.3   111  THR111      0.1862
    180  C        -22.4190   -3.2050   42.8400 C.2   111  THR111      0.2287
    181  O        -22.4400   -4.2350   43.5150 O.2   111  THR111     -0.2866
    182  CB       -24.7520   -3.3700   41.8820 C.3   111  THR111      0.1770
    183  OG1      -25.5040   -3.3610   40.6590 O.3   111  THR111     -0.2211
    184  CG2      -25.3230   -2.3070   42.8450 C.3   111  THR111      0.0375
@<TRIPOS>BOND
     1   177   176    1
     2   176   174   ar
     3   176   175   ar
     4   174   172   ar
     5   175   173   ar
     6   172   171   ar
     7   173   171   ar
     8   171   170    1
     9   135   134    2
    10   107   106    2
    11   170   167    1
    12   166   167    1
    13   134   133    1
    14   167   168    1
    15    97    96    2
    16     8     6    1
    17     1     2    1
    18     5     6    1
    19     5     2    1
    20   106   105    1
    21   140   141    1
    22   102   100   ar
    23   102   103   ar
    24     6     7    1
    25     2     3    1
    26   133   136    1
    27   133   132    1
    28   136   137    1
    29   100    99   ar
    30    96    95    1
    31    96   104   am
    32   168   169    2
    33   105   104    1
    34   105   108    1
    35   144   141    1
    36   144   145    1
    37   103   101   ar
    38   141   142    1
    39   109   108    1
    40    95    94    1
    41    95    98    1
    42   147   145   ar
    43   147   149   ar
    44   145   146   ar
    45    99   101   ar
    46    99    98    1
    47     3     4    2
    48     3     9   am
    49   137   138    1
    50   137   139    1
    51   108   110    1
    52   149   150   ar
    53   158   157    2
    54   146   148   ar
    55   163   161   ar
    56   163   165   ar
    57   161   160   ar
    58   142   151   am
    59   142   143    2
    60     9    10    1
    61   150   148   ar
    62   151   152    1
    63   157   156    1
    64   156   155    1
    65   156   159    1
    66    89    88    2
    67   154   153    2
    68   165   164   ar
    69   160   159    1
    70   160   162   ar
    71    88    87    1
    72   153   152    1
    73    14    13    1
    74    10    13    1
    75    10    11    1
    76    81    80    2
    77   131   129    1
    78    13    15    1
    79    12    11    2
    80   178   179    1
    81   183   182    1
    82   164   162   ar
    83    11    16   am
    84    87    86    1
    85    87    90    1
    86    80    86   am
    87    80    79    1
    88    85    83   ar
    89   117   115    1
    90   129   128    1
    91   179   182    1
    92   179   180    1
    93   115   116    1
    94   115   112    1
    95   182   184    1
    96    79    78    1
    97    79    82    1
    98    90    91    1
    99    16    17    1
   100    83    84   ar
   101    83    82    1
   102   113   112    1
   103   113   114    2
   104   128   130    1
   105   128   125    1
   106   112   111    1
   107   180   181    2
   108    17    20    1
   109    17    18    1
   110    93    91    1
   111    91    92    1
   112   126   125    1
   113   126   127    2
   114   125   124    1
   115    18    19    2
   116   124   120   am
   117    28    26    1
   118    27    25    1
   119   123   122    1
   120   118   119    1
   121   120   119    1
   122   120   121    2
   123    25    26    1
   124    25    22    1
   125   119   122    1
   126    52    51    1
   127    53    51    1
   128    51    50    1
   129    22    23    1
   130    22    21    1
   131    62    63   ar
   132    62    60   ar
   133    65    63   ar
   134    65    67   ar
   135    24    23    2
   136    63    61   ar
   137    67    66   ar
   138    50    47    1
   139    60    59   ar
   140    47    46    1
   141    47    48    1
   142    76    77   ar
   143    76    74   ar
   144    46    39   am
   145    32    31    2
   146    61    59   ar
   147    61    64   ar
   148    77    75   ar
   149    70    71    2
   150    70    69    1
   151    59    58    1
   152    66    64   ar
   153    74    73   ar
   154    35    34    2
   155    57    56    2
   156    39    40    2
   157    39    38    1
   158    75    73   ar
   159    31    30    1
   160    31    37   am
   161    69    68    1
   162    69    72    1
   163    38    37    1
   164    38    41    1
   165    34    36   am
   166    34    33    1
   167    73    72    1
   168    30    33    1
   169    30    29    1
   170    48    49    2
   171    56    68   am
   172    56    55    1
   173    58    55    1
   174    54    55    1
   175    41    42    1
   176    42    43    1
   177    43    45   am
   178    43    44    2
