@<TRIPOS>MOLECULE
tmp/3fr0A01.pdb
 169 164 0 0 0
SMALL
GASTEIGER

@<TRIPOS>ATOM
      1  N         32.4200   14.1990   56.3440 N.3    48  TYR48      -0.1227
      2  CA        32.9870   15.4980   56.0160 C.3    48  TYR48       0.1736
      3  C         33.9640   15.9990   57.0740 C.2    48  TYR48       0.2595
      4  O         34.4590   17.1220   56.9950 O.2    48  TYR48      -0.2718
      5  CB        31.8590   16.5150   55.7740 C.3    48  TYR48       0.0548
      6  CG        31.1820   16.2860   54.4500 C.ar   48  TYR48      -0.0200
      7  CD1       31.6550   16.8920   53.2970 C.ar   48  TYR48      -0.0009
      8  CD2       30.1340   15.3860   54.3340 C.ar   48  TYR48      -0.0009
      9  CE1       31.1140   16.6030   52.0650 C.ar   48  TYR48       0.0417
     10  CE2       29.5850   15.0910   53.1050 C.ar   48  TYR48       0.0417
     11  CZ        30.0830   15.7000   51.9710 C.ar   48  TYR48       0.1957
     12  OH        29.5550   15.3890   50.7330 O.3    48  TYR48      -0.2866
     13  N         34.2550   15.1560   58.0560 N.am   49  VAL49      -0.1966
     14  CA        35.3380   15.4390   58.9930 C.3    49  VAL49       0.1727
     15  C         36.6780   15.0080   58.3840 C.2    49  VAL49       0.2616
     16  O         36.8860   13.8270   58.1140 O.2    49  VAL49      -0.2715
     17  CB        35.1060   14.7000   60.3160 C.3    49  VAL49       0.0290
     18  CG1       36.2320   14.9690   61.2660 C.3    49  VAL49       0.0023
     19  CG2       33.7930   15.1390   60.9230 C.3    49  VAL49       0.0023
     20  N         37.5760   15.9700   58.1530 N.am   50  ARG50      -0.1963
     21  CA        38.7800   15.7290   57.3400 C.3    50  ARG50       0.1729
     22  C         40.0800   15.8580   58.1180 C.2    50  ARG50       0.2617
     23  O         40.1170   16.4590   59.1810 O.2    50  ARG50      -0.2715
     24  CB        38.8380   16.6910   56.1530 C.3    50  ARG50       0.0348
     25  CG        37.6970   16.5780   55.1610 C.3    50  ARG50       0.0492
     26  CD        37.5500   17.8930   54.4050 C.3    50  ARG50       0.2205
     27  NE        36.4430   17.9100   53.4550 N.pl3  50  ARG50      -0.0865
     28  CZ        36.5700   17.6110   52.1650 C.cat  50  ARG50       0.5346
     29  NH1       37.7580   17.2670   51.6770 N.pl3  50  ARG50       0.1354
     30  NH2       35.5120   17.6710   51.3620 N.pl3  50  ARG50       0.1354
     31  N         41.1510   15.3080   57.5580 N.am   51  SER51      -0.1936
     32  CA        42.4550   15.3100   58.2110 C.3    51  SER51       0.2055
     33  C         43.2110   16.6360   58.0840 C.2    51  SER51       0.2644
     34  O         42.7500   17.5680   57.4210 O.2    51  SER51      -0.2714
     35  CB        43.3150   14.1740   57.6560 C.3    51  SER51       0.2130
     36  OG        43.4680   14.2850   56.2510 O.3    51  SER51      -0.2179
     37  N         44.3820   16.6960   58.7200 N.am   52  THR52      -0.1937
     38  CA        45.1320   17.9420   58.9060 C.3    52  THR52       0.2013
     39  C         44.2030   19.1020   59.2390 C.2    52  THR52       0.2484
     40  O         44.0280   20.0420   58.4580 O.2    52  THR52      -0.2729
     41  CB        45.9880   18.3040   57.6550 C.3    52  THR52       0.1807
     42  OG1       45.1700   18.2730   56.4760 O.3    52  THR52      -0.2208
     43  CG2       47.1510   17.3290   57.5040 C.3    52  THR52       0.0379
     44  N         43.5960   19.0430   60.4280 N.am   53  PRO53      -0.2726
     45  CA        42.5780   20.0090   60.8430 C.3    53  PRO53       0.1402
     46  C         43.0920   21.4440   60.8710 C.2    53  PRO53       0.2269
     47  O         42.6080   22.2970   60.1230 O.2    53  PRO53      -0.2865
     48  CB        42.1630   19.5200   62.2310 C.3    53  PRO53       0.0296
     49  CG        43.3280   18.7020   62.7120 C.3    53  PRO53       0.0237
     50  CD        43.9200   18.0770   61.4930 C.3    53  PRO53       0.0939
     51  N         29.2620   19.1230   56.9070 N.3   146  ILE146     -0.1245
     52  CA        29.5180   18.8600   58.3180 C.3   146  ILE146      0.1561
     53  C         28.3730   19.3870   59.1720 C.2   146  ILE146      0.2260
     54  O         28.1720   18.9470   60.3040 O.2   146  ILE146     -0.2867
     55  CB        30.8140   19.5420   58.7810 C.3   146  ILE146      0.0252
     56  CG1       31.0440   19.2710   60.2660 C.3   146  ILE146      0.0019
     57  CG2       30.7260   21.0360   58.5490 C.3   146  ILE146      0.0019
     58  CD1       31.5200   17.8640   60.5640 C.3   146  ILE146      0.0001
     59  N         36.3540    8.9610   68.3570 N.3   197  MET197     -0.1230
     60  CA        37.6300    8.9380   67.6570 C.3   197  MET197      0.1702
     61  C         38.3640   10.2670   67.8500 C.2   197  MET197      0.2592
     62  O         39.5590   10.2810   68.1570 O.2   197  MET197     -0.2718
     63  CB        37.4230    8.6660   66.1650 C.3   197  MET197      0.0401
     64  CG        38.7230    8.4510   65.3990 C.3   197  MET197      0.0596
     65  SD        38.4800    8.4570   63.6100 S.3   197  MET197     -0.1393
     66  CE        38.2240   10.2140   63.3060 C.3   197  MET197      0.0692
     67  N         37.6430   11.3770   67.6940 N.am  198  ILE198     -0.1980
     68  CA        38.2520   12.7120   67.7710 C.3   198  ILE198      0.1595
     69  C         38.8180   12.9940   69.1670 C.2   198  ILE198      0.2287
     70  O         39.9480   13.4620   69.2990 O.2   198  ILE198     -0.2864
     71  CB        37.2280   13.8380   67.3910 C.3   198  ILE198      0.0276
     72  CG1       36.6760   13.6080   65.9780 C.3   198  ILE198      0.0022
     73  CG2       37.9060   15.1990   67.4110 C.3   198  ILE198      0.0022
     74  CD1       37.6930   13.7920   64.8860 C.3   198  ILE198      0.0001
     75  N         41.9510   11.1910   69.5300 N.3   201  TYR201     -0.1227
     76  CA        42.9900   11.6060   68.5940 C.3   201  TYR201      0.1736
     77  C         43.9730   12.5810   69.2280 C.2   201  TYR201      0.2595
     78  O         45.1560   12.5940   68.8970 O.2   201  TYR201     -0.2718
     79  CB        42.3900   12.2690   67.3560 C.3   201  TYR201      0.0548
     80  CG        43.4300   13.0390   66.5790 C.ar  201  TYR201     -0.0200
     81  CD1       44.3060   12.3860   65.7310 C.ar  201  TYR201     -0.0009
     82  CD2       43.5650   14.4160   66.7270 C.ar  201  TYR201     -0.0009
     83  CE1       45.2860   13.0750   65.0560 C.ar  201  TYR201      0.0417
     84  CE2       44.5450   15.1160   66.0470 C.ar  201  TYR201      0.0417
     85  CZ        45.4020   14.4370   65.2110 C.ar  201  TYR201      0.1957
     86  OH        46.3730   15.1080   64.5060 O.3   201  TYR201     -0.2866
     87  N         43.4850   13.4140   70.1300 N.am  202  TYR202     -0.1976
     88  CA        44.3560   14.4050   70.7220 C.3   202  TYR202      0.1639
     89  C         45.1760   13.7810   71.8330 C.2   202  TYR202      0.2290
     90  O         46.2000   14.3200   72.2480 O.2   202  TYR202     -0.2864
     91  CB        43.5270   15.5900   71.2110 C.3   202  TYR202      0.0560
     92  CG        43.1000   16.4850   70.0570 C.ar  202  TYR202     -0.0198
     93  CD1       44.0350   17.2770   69.3880 C.ar  202  TYR202     -0.0009
     94  CD2       41.7810   16.5070   69.6070 C.ar  202  TYR202     -0.0009
     95  CE1       43.6740   18.0600   68.3040 C.ar  202  TYR202      0.0417
     96  CE2       41.4100   17.2930   68.5180 C.ar  202  TYR202      0.0417
     97  CZ        42.3650   18.0660   67.8740 C.ar  202  TYR202      0.1957
     98  OH        42.0150   18.8500   66.8010 O.3   202  TYR202     -0.2866
     99  N         47.6640   10.4430   68.3290 N.3   205  HIS205     -0.1241
    100  CA        47.4680   10.8060   66.9280 C.3   205  HIS205      0.1621
    101  C         47.3460    9.6050   65.9880 C.2   205  HIS205      0.2264
    102  O         46.9140    9.7510   64.8440 O.2   205  HIS205     -0.2867
    103  CB        48.6060   11.7060   66.4610 C.3   205  HIS205      0.0745
    104  CG        48.5140   13.1080   66.9760 C.ar  205  HIS205      0.0817
    105  ND1       47.6160   13.4870   67.9510 N.ar  205  HIS205     -0.2268
    106  CD2       49.1980   14.2290   66.6380 C.ar  205  HIS205      0.1154
    107  CE1       47.7500   14.7790   68.1910 C.ar  205  HIS205      0.1986
    108  NE2       48.7020   15.2530   67.4070 N.ar  205  HIS205     -0.2212
    109  N         45.3050    7.2020   66.6060 N.3   207  CYS207     -0.1221
    110  CA        43.9060    6.8070   66.6520 C.3   207  CYS207      0.1808
    111  C         43.1740    7.3010   65.4230 C.2   207  CYS207      0.2601
    112  O         42.9850    8.4970   65.2530 O.2   207  CYS207     -0.2717
    113  CB        43.2240    7.3680   67.8940 C.3   207  CYS207      0.0970
    114  SG        41.4670    7.0280   67.9240 S.3   207  CYS207     -0.0800
    115  N         42.7540    6.3670   64.5790 N.am  208  GLU208     -0.1979
    116  CA        42.0800    6.6910   63.3360 C.3   208  GLU208      0.1602
    117  C         40.8310    5.8410   63.1920 C.2   208  GLU208      0.2287
    118  O         40.2880    5.6990   62.0950 O.2   208  GLU208     -0.2864
    119  CB        43.0020    6.4280   62.1510 C.3   208  GLU208      0.0415
    120  CG        44.2320    7.3110   62.1030 C.3   208  GLU208      0.1163
    121  CD        44.9120    7.2690   60.7440 C.2   208  GLU208      0.3649
    122  OE1       45.7300    8.1670   60.4580 O.co2 208  GLU208     -0.2457
    123  OE2       44.6280    6.3390   59.9580 O.co2 208  GLU208     -0.2457
    124  N         39.3040    6.6320   59.3400 N.3   222  MET222     -0.1245
    125  CA        39.8210    7.5650   58.3530 C.3   222  MET222      0.1570
    126  C         40.0630    6.8430   57.0330 C.2   222  MET222      0.2261
    127  O         40.8490    5.9000   56.9600 O.2   222  MET222     -0.2867
    128  CB        41.1230    8.1890   58.8630 C.3   222  MET222      0.0387
    129  CG        40.9640    9.0060   60.1450 C.3   222  MET222      0.0595
    130  SD        39.5920   10.2080   60.0690 S.3   222  MET222     -0.1393
    131  CE        40.1660   11.2710   58.7050 C.3   222  MET222      0.0692
    132  N         42.1480   13.0240   53.4460 N.3   237  ARG237     -0.1245
    133  CA        41.5320   11.9220   54.1680 C.3   237  ARG237      0.1563
    134  C         40.2600   12.3790   54.8630 C.2   237  ARG237      0.2260
    135  O         40.1610   13.5160   55.3220 O.2   237  ARG237     -0.2867
    136  CB        42.5090   11.3500   55.1930 C.3   237  ARG237      0.0307
    137  CG        43.7160   10.6900   54.5620 C.3   237  ARG237      0.0489
    138  CD        44.7410   10.2760   55.5980 C.3   237  ARG237      0.2205
    139  NE        44.7360    8.8360   55.8180 N.pl3 237  ARG237     -0.0865
    140  CZ        44.7450    8.2700   57.0170 C.cat 237  ARG237      0.5346
    141  NH1       44.7610    9.0310   58.1060 N.pl3 237  ARG237      0.1354
    142  NH2       44.7300    6.9470   57.1270 N.pl3 237  ARG237      0.1354
    143  N         35.5120   19.5290   69.8720 N.3   438  LEU438     -0.1231
    144  CA        36.8030   19.6210   69.2080 C.3   438  LEU438      0.1693
    145  C         36.5920   19.8270   67.7170 C.2   438  LEU438      0.2591
    146  O         37.3370   20.5650   67.0700 O.2   438  LEU438     -0.2718
    147  CB        37.6140   18.3470   69.4530 C.3   438  LEU438      0.0284
    148  CG        38.2100   18.1900   70.8540 C.3   438  LEU438      0.0019
    149  CD1       38.6780   16.7620   71.0480 C.3   438  LEU438      0.0001
    150  CD2       39.3690   19.1660   71.0390 C.3   438  LEU438      0.0001
    151  N         35.5660   19.1750   67.1820 N.am  439  VAL439     -0.1980
    152  CA        35.3000   19.2210   65.7530 C.3   439  VAL439      0.1595
    153  C         34.6960   20.5750   65.4040 C.2   439  VAL439      0.2287
    154  O         35.0290   21.1740   64.3790 O.2   439  VAL439     -0.2864
    155  CB        34.3320   18.0770   65.3220 C.3   439  VAL439      0.0276
    156  CG1       33.9610   18.2240   63.8590 C.3   439  VAL439      0.0022
    157  CG2       34.9940   16.7240   65.5400 C.3   439  VAL439      0.0022
    158  N         37.2810   23.3430   65.1860 N.3   442  VAL442     -0.1231
    159  CA        37.9780   23.3750   63.9140 C.3   442  VAL442      0.1692
    160  C         37.0630   23.8750   62.8100 C.2   442  VAL442      0.2591
    161  O         37.4910   24.6150   61.9290 O.2   442  VAL442     -0.2718
    162  CB        38.5290   21.9850   63.5470 C.3   442  VAL442      0.0266
    163  CG1       38.9030   21.9340   62.0750 C.3   442  VAL442      0.0020
    164  CG2       39.7510   21.6920   64.3930 C.3   442  VAL442      0.0020
    165  N         35.7970   23.4860   62.8660 N.am  443  ALA443     -0.1980
    166  CA        34.8390   23.9190   61.8610 C.3   443  ALA443      0.1597
    167  C         34.5670   25.4130   62.0020 C.2   443  ALA443      0.2287
    168  O         34.1680   26.0740   61.0410 O.2   443  ALA443     -0.2864
    169  CB        33.5500   23.1340   62.0010 C.3   443  ALA443      0.0319
@<TRIPOS>BOND
     1    12    11    1
     2    30    28    1
     3    29    28    1
     4    11     9   ar
     5    11    10   ar
     6     9     7   ar
     7    28    27    2
     8    10     8   ar
     9     7     6   ar
    10   132   133    1
    11    27    26    1
    12   133   134    1
    13   133   136    1
    14     8     6   ar
    15    26    25    1
    16     6     5    1
    17   137   136    1
    18   137   138    1
    19   134   135    2
    20    25    24    1
    21   138   139    1
    22     5     2    1
    23   139   140    2
    24     2     1    1
    25     2     3    1
    26    24    21    1
    27    36    35    1
    28    42    41    1
    29    51    52    1
    30   127   126    2
    31     4     3    2
    32   140   142    1
    33   140   141    1
    34   126   125    1
    35     3    13   am
    36    21    22    1
    37    21    20    1
    38    34    33    2
    39    43    41    1
    40    31    22   am
    41    31    32    1
    42    41    38    1
    43    35    32    1
    44    13    14    1
    45    33    32    1
    46    33    37   am
    47    16    15    2
    48    22    23    2
    49    20    15   am
    50    52    55    1
    51    52    53    1
    52   125   128    1
    53   125   124    1
    54    15    14    1
    55    40    39    2
    56    57    55    1
    57   131   130    1
    58    37    38    1
    59    55    56    1
    60   128   129    1
    61    38    39    1
    62    14    17    1
    63    53    54    2
    64    39    44   am
    65   123   121   ar
    66   130   129    1
    67    47    46    2
    68    56    58    1
    69    17    19    1
    70    17    18    1
    71    44    45    1
    72    44    50    1
    73   122   121   ar
    74   121   120    1
    75    45    46    1
    76    45    48    1
    77   168   167    2
    78    50    49    1
    79   166   169    1
    80   166   167    1
    81   166   165    1
    82   161   160    2
    83   163   162    1
    84   118   117    2
    85   120   119    1
    86   119   116    1
    87    48    49    1
    88   160   165   am
    89   160   159    1
    90   117   116    1
    91    66    65    1
    92   116   115    1
    93   162   159    1
    94   162   164    1
    95    65    64    1
    96   156   155    1
    97   159   158    1
    98   154   153    2
    99    86    85    1
   100   115   111   am
   101   102   101    2
   102    74    72    1
   103    83    85   ar
   104    83    81   ar
   105    85    84   ar
   106   112   111    2
   107   155   157    1
   108   155   152    1
   109    64    63    1
   110   153   152    1
   111   111   110    1
   112    81    80   ar
   113   152   151    1
   114    72    71    1
   115   101   100    1
   116    84    82   ar
   117    63    60    1
   118   103   100    1
   119   103   104    1
   120    80    82   ar
   121    80    79    1
   122   109   110    1
   123   106   104   ar
   124   106   108   ar
   125   110   113    1
   126    98    97    1
   127   100    99    1
   128   104   105   ar
   129   146   145    2
   130   151   145   am
   131    79    76    1
   132    71    73    1
   133    71    68    1
   134   108   107   ar
   135    60    61    1
   136    60    59    1
   137    67    68    1
   138    67    61   am
   139   145   144    1
   140    68    69    1
   141    61    62    2
   142    97    95   ar
   143    97    96   ar
   144   113   114    1
   145   105   107   ar
   146    95    93   ar
   147    96    94   ar
   148    76    77    1
   149    76    75    1
   150    78    77    2
   151    69    70    2
   152   144   147    1
   153   144   143    1
   154    77    87   am
   155    93    92   ar
   156   147   148    1
   157    94    92   ar
   158    92    91    1
   159    87    88    1
   160    88    91    1
   161    88    89    1
   162   148   150    1
   163   148   149    1
   164    89    90    2
