@<TRIPOS>MOLECULE
tmp/3fr2A00.pdb
 211 194 0 0 0
SMALL
GASTEIGER

@<TRIPOS>ATOM
      1  N         23.5820   14.4070    2.6820 N.3    16  PHE16      -0.1241
      2  CA        23.7560   12.9690    2.5320 C.3    16  PHE16       0.1605
      3  C         25.1880   12.6110    2.1950 C.2    16  PHE16       0.2264
      4  O         25.7810   11.6820    2.7900 O.2    16  PHE16      -0.2867
      5  CB        22.7940   12.3910    1.4900 C.3    16  PHE16       0.0534
      6  CG        22.6650   10.9000    1.5620 C.ar   16  PHE16      -0.0203
      7  CD1       22.3560   10.2920    2.7660 C.ar   16  PHE16      -0.0042
      8  CD2       22.9580   10.1020    0.4670 C.ar   16  PHE16      -0.0042
      9  CE1       22.2260    8.9470    2.8740 C.ar   16  PHE16      -0.0003
     10  CE2       22.8210    8.7280    0.5650 C.ar   16  PHE16      -0.0003
     11  CZ        22.4650    8.1500    1.7750 C.ar   16  PHE16      -0.0000
     12  N         27.0820   12.7210    5.1590 N.3    19  TYR19      -0.1227
     13  CA        26.7040   11.5480    5.9650 C.3    19  TYR19       0.1736
     14  C         27.5010   10.3450    5.4890 C.2    19  TYR19       0.2598
     15  O         28.1600    9.7050    6.2660 O.2    19  TYR19      -0.2717
     16  CB        25.1980   11.2620    5.9630 C.3    19  TYR19       0.0548
     17  CG        24.8170    9.9220    6.5780 C.ar   19  TYR19      -0.0200
     18  CD1       24.8290    9.7210    7.9510 C.ar   19  TYR19      -0.0009
     19  CD2       24.4900    8.8400    5.7790 C.ar   19  TYR19      -0.0009
     20  CE1       24.5070    8.4910    8.4810 C.ar   19  TYR19       0.0417
     21  CE2       24.1680    7.6380    6.2910 C.ar   19  TYR19       0.0417
     22  CZ        24.1710    7.4440    7.6140 C.ar   19  TYR19       0.1957
     23  OH        23.8400    6.1880    8.0870 O.3    19  TYR19      -0.2866
     24  N         27.4260   10.0300    4.2090 N.am   20  MET20      -0.1934
     25  CA        28.1450    8.8720    3.6650 C.3    20  MET20       0.1821
     26  C         29.6360    8.9930    3.9850 C.2    20  MET20       0.2332
     27  O         30.2810    8.0220    4.4050 O.2    20  MET20      -0.2860
     28  CB        27.9310    8.7340    2.1460 C.2    20  MET20       0.0096
     29  CG        26.5580    8.1430    1.6780 C.2    20  MET20       0.0285
     30  SD        26.3300    7.8700   -0.0740 S.3    20  MET20      -0.1125
     31  CE        26.0880    9.4930   -0.6990 C.3    20  MET20       0.0742
     32  N         30.3600    8.0810    7.4870 N.3    23  VAL23      -0.1245
     33  CA        30.1700    6.6550    7.7550 C.3    23  VAL23       0.1561
     34  C         31.3630    5.8790    7.2360 C.2    23  VAL23       0.2260
     35  O         31.7580    4.8410    7.7820 O.2    23  VAL23      -0.2867
     36  CB        28.8800    6.1090    7.1120 C.3    23  VAL23       0.0252
     37  CG1       28.9180    4.5800    7.0170 C.3    23  VAL23       0.0019
     38  CG2       27.6230    6.6390    7.8610 C.3    23  VAL23       0.0019
     39  N         31.9510    5.6910    3.5900 N.3    25  VAL25      -0.1245
     40  CA        31.7750    5.3040    2.2000 C.3    25  VAL25       0.1561
     41  C         32.7860    5.9740    1.2600 C.2    25  VAL25       0.2260
     42  O         32.9520    7.1930    1.2930 O.2    25  VAL25      -0.2867
     43  CB        30.3800    5.6690    1.7350 C.3    25  VAL25       0.0252
     44  CG1       30.1750    5.1640    0.3250 C.3    25  VAL25       0.0019
     45  CG2       29.3730    5.1070    2.7140 C.3    25  VAL25       0.0019
     46  N         31.4890    5.0770   -4.4110 N.3    29  THR29      -0.1218
     47  CA        30.1480    4.7290   -4.0310 C.3    29  THR29       0.1862
     48  C         29.3760    6.0100   -3.6940 C.2    29  THR29       0.2287
     49  O         28.2060    6.1170   -3.9930 O.2    29  THR29      -0.2866
     50  CB        30.1750    3.7260   -2.9340 C.3    29  THR29       0.1770
     51  OG1       30.7660    2.5350   -3.4660 O.3    29  THR29      -0.2211
     52  CG2       28.7760    3.2990   -2.5410 C.3    29  THR29       0.0375
     53  N         25.7410    6.8280   -5.2990 N.3    33  ALA33      -0.1245
     54  CA        24.6360    6.7840   -4.3010 C.3    33  ALA33       0.1562
     55  C         23.9980    8.1470   -4.0240 C.2    33  ALA33       0.2260
     56  O         22.7620    8.2470   -3.8290 O.2    33  ALA33      -0.2867
     57  CB        25.0680    6.1410   -2.9970 C.3    33  ALA33       0.0290
     58  N         21.5250    8.8930   -6.8000 N.3    36  ALA36      -0.1245
     59  CA        20.3550    8.0250   -6.7800 C.3    36  ALA36       0.1562
     60  C         19.0810    8.6180   -6.1880 C.2    36  ALA36       0.2260
     61  O         19.0850    9.2580   -5.1220 O.2    36  ALA36      -0.2867
     62  CB        20.6790    6.7090   -6.0960 C.3    36  ALA36       0.0290
     63  N         16.0680    6.8140   -5.1350 N.3    38  PRO38      -0.2116
     64  CA        15.4530    5.5040   -4.9050 C.3    38  PRO38       0.1372
     65  C         14.0050    5.5110   -4.4690 C.2    38  PRO38       0.2244
     66  O         13.4850    6.4670   -3.9010 O.2    38  PRO38      -0.2868
     67  CB        16.3090    4.9140   -3.7800 C.3    38  PRO38       0.0268
     68  CG        16.8350    6.0870   -3.0500 C.3    38  PRO38       0.0207
     69  CD        16.9490    7.2240   -4.0240 C.3    38  PRO38       0.0892
     70  N         11.4120    3.7070   -1.9590 N.3    40  MET40      -0.1245
     71  CA        11.4460    2.8970   -0.7500 C.3    40  MET40       0.1570
     72  C         10.0860    2.2320   -0.7180 C.2    40  MET40       0.2261
     73  O          9.0740    2.9260   -0.7550 O.2    40  MET40      -0.2867
     74  CB        11.6480    3.7330    0.5160 C.3    40  MET40       0.0387
     75  CG        12.1850    2.9080    1.7060 C.3    40  MET40       0.0595
     76  SD        12.4810    3.8150    3.2560 S.3    40  MET40      -0.1393
     77  CE        14.1740    4.4500    2.8910 C.3    40  MET40       0.0692
     78  N         14.7210   -0.8260   -1.0990 N.3    53  SER53      -0.1217
     79  CA        15.0560    0.4350   -1.7420 C.3    53  SER53       0.1889
     80  C         15.5600    0.0020   -3.0760 C.2    53  SER53       0.2288
     81  O         16.4960   -0.7930   -3.1780 O.2    53  SER53      -0.2866
     82  CB        16.1200    1.2420   -0.9910 C.3    53  SER53       0.2089
     83  OG        15.7330    1.5080    0.3430 O.3    53  SER53      -0.2183
     84  N         16.8840    1.2930   -6.9320 N.3    55  SER55      -0.1217
     85  CA        17.4740    2.3860   -7.6900 C.3    55  SER55       0.1889
     86  C         18.3900    1.7770   -8.7370 C.2    55  SER55       0.2288
     87  O         18.7450    0.6190   -8.6040 O.2    55  SER55      -0.2866
     88  CB        18.2670    3.3530   -6.7620 C.3    55  SER55       0.2089
     89  OG        19.5040    2.8060   -6.2810 O.3    55  SER55      -0.2183
     90  N         21.3730    2.5900   -9.0870 N.3    57  PHE57      -0.1227
     91  CA        22.5970    2.4540   -8.2780 C.3    57  PHE57       0.1736
     92  C         22.7500    1.0500   -7.6400 C.2    57  PHE57       0.2595
     93  O         23.8050    0.4270   -7.7110 O.2    57  PHE57      -0.2718
     94  CB        22.5650    3.4720   -7.1450 C.3    57  PHE57       0.0547
     95  CG        23.4780    3.1250   -6.0210 C.ar   57  PHE57      -0.0202
     96  CD1       24.7940    2.8860   -6.2680 C.ar   57  PHE57      -0.0042
     97  CD2       22.9970    3.0310   -4.7210 C.ar   57  PHE57      -0.0042
     98  CE1       25.6470    2.5220   -5.2300 C.ar   57  PHE57      -0.0003
     99  CE2       23.8110    2.7210   -3.7000 C.ar   57  PHE57      -0.0003
    100  CZ        25.1590    2.4670   -3.9460 C.ar   57  PHE57      -0.0000
    101  N         21.6970    0.6000   -6.9600 N.am   58  LYS58      -0.1980
    102  CA        21.6740   -0.7040   -6.2950 C.3    58  LYS58       0.1596
    103  C         20.2470   -0.9460   -5.8080 C.2    58  LYS58       0.2287
    104  O         19.5250   -0.0060   -5.4870 O.2    58  LYS58      -0.2864
    105  CB        22.6130   -0.7350   -5.0350 C.3    58  LYS58       0.0298
    106  CG        23.4660   -2.0430   -4.8890 C.3    58  LYS58       0.0038
    107  CD        24.3740   -2.0570   -3.6170 C.3    58  LYS58       0.0206
    108  CE        24.7580   -3.4640   -3.0940 C.3    58  LYS58       0.1093
    109  NZ        25.1030   -3.6120   -1.5250 N.3    58  LYS58      -0.1314
    110  N         18.2990   -2.8020   -2.6220 N.3    60  THR60      -0.1218
    111  CA        18.5750   -3.4970   -1.3480 C.3    60  THR60       0.1862
    112  C         17.3100   -3.8740   -0.6630 C.2    60  THR60       0.2287
    113  O         16.2670   -3.2670   -0.8880 O.2    60  THR60      -0.2866
    114  CB        19.3270   -2.6630   -0.2970 C.3    60  THR60       0.1770
    115  OG1       18.5210   -1.5460    0.1150 O.3    60  THR60      -0.2211
    116  CG2       20.6660   -2.0770   -0.8200 C.3    60  THR60       0.0375
    117  N         24.9600   -3.5960    3.7000 N.3    74  THR74      -0.1203
    118  CA        24.4360   -2.3100    3.2110 C.3    74  THR74       0.1994
    119  C         24.7570   -2.0960    1.7490 C.2    74  THR74       0.2618
    120  O         25.6050   -2.7990    1.1790 O.2    74  THR74      -0.2717
    121  CB        25.0220   -1.1130    4.0170 C.3    74  THR74       0.1784
    122  OG1       26.4530   -1.1250    3.9410 O.3    74  THR74      -0.2211
    123  CG2       24.7400   -1.2190    5.5110 C.3    74  THR74       0.0376
    124  N         24.1250   -1.0840    1.1620 N.am   75  ALA75      -0.1965
    125  CA        24.3600   -0.7290   -0.2280 C.3    75  ALA75       0.1728
    126  C         25.8580   -0.4470   -0.4030 C.2    75  ALA75       0.2616
    127  O         26.4430   -0.7020   -1.4150 O.2    75  ALA75      -0.2715
    128  CB        23.4880    0.5100   -0.6340 C.3    75  ALA75       0.0334
    129  N         26.4850    0.0040    0.6860 N.am   76  ASP76      -0.1971
    130  CA        27.9230    0.2990    0.6830 C.3    76  ASP76       0.1709
    131  C         28.7670   -0.8400    1.2910 C.2    76  ASP76       0.2293
    132  O         29.9320   -0.6620    1.7180 O.2    76  ASP76      -0.2864
    133  CB        28.2310    1.6950    1.2570 C.3    76  ASP76       0.1436
    134  CG        28.0420    1.7590    2.7460 C.2    76  ASP76       0.3671
    135  OD1       26.8920    1.5710    3.1930 O.co2  76  ASP76      -0.2456
    136  OD2       28.9770    1.9900    3.5510 O.co2  76  ASP76      -0.2456
    137  N         28.7870   -2.6140    3.9120 N.3    78  ARG78      -0.1245
    138  CA        29.2110   -2.8090    5.2820 C.3    78  ARG78       0.1563
    139  C         28.4150   -3.9980    5.8660 C.2    78  ARG78       0.2260
    140  O         27.2130   -4.1870    5.5560 O.2    78  ARG78      -0.2867
    141  CB        28.9520   -1.5840    6.1390 C.3    78  ARG78       0.0307
    142  CG        29.9370   -0.4620    6.0400 C.3    78  ARG78       0.0489
    143  CD        29.3720    0.8280    6.6690 C.3    78  ARG78       0.2205
    144  NE        28.2070    1.3150    5.9220 N.pl3  78  ARG78      -0.0865
    145  CZ        27.0650    1.7430    6.4590 C.cat  78  ARG78       0.5346
    146  NH1       26.8980    1.7380    7.7770 N.pl3  78  ARG78       0.1354
    147  NH2       26.0780    2.1470    5.6610 N.pl3  78  ARG78       0.1354
    148  N         22.4660    0.5510   13.2500 N.3    95  GLN95      -0.1245
    149  CA        23.4850   -0.2830   12.6640 C.3    95  GLN95       0.1566
    150  C         24.7530   -0.1670   13.5060 C.2    95  GLN95       0.2260
    151  O         25.1930    0.9340   13.8360 O.2    95  GLN95      -0.2867
    152  CB        23.7440    0.1350   11.2060 C.3    95  GLN95       0.0367
    153  CG        22.5670   -0.1330   10.2280 C.3    95  GLN95       0.0905
    154  CD        22.7760    0.4420    8.8520 C.2    95  GLN95       0.2608
    155  OE1       23.4650    1.4610    8.6750 O.2    95  GLN95      -0.2717
    156  NE2       22.1760   -0.2090    7.8690 N.am   95  GLN95      -0.0878
    157  N         19.3710    5.5340   11.8980 N.3   104  ILE104     -0.1245
    158  CA        18.4030    5.9330   10.8920 C.3   104  ILE104      0.1561
    159  C         16.9540    5.9250   11.4240 C.2   104  ILE104      0.2260
    160  O         16.4000    4.8720   11.7550 O.2   104  ILE104     -0.2867
    161  CB        18.5640    5.0420    9.6440 C.3   104  ILE104      0.0252
    162  CG1       20.0570    4.9480    9.2640 C.3   104  ILE104      0.0019
    163  CG2       17.7230    5.5530    8.4320 C.3   104  ILE104      0.0019
    164  CD1       20.4200    3.6440    8.5440 C.3   104  ILE104      0.0001
    165  N         12.9660    6.6790   10.6760 N.3   106  ARG106     -0.1245
    166  CA        11.9930    6.9390    9.6200 C.3   106  ARG106      0.1563
    167  C         10.7310    7.4240   10.3220 C.2   106  ARG106      0.2260
    168  O         10.2870    6.7730   11.2250 O.2   106  ARG106     -0.2867
    169  CB        11.7260    5.6550    8.7740 C.3   106  ARG106      0.0307
    170  CG        13.0210    5.0060    8.1170 C.3   106  ARG106      0.0489
    171  CD        12.7460    3.6870    7.3260 C.3   106  ARG106      0.2205
    172  NE        13.8350    3.2740    6.4510 N.pl3 106  ARG106     -0.0865
    173  CZ        14.9440    2.7710    6.9300 C.cat 106  ARG106      0.5346
    174  NH1       15.0640    2.6170    8.2480 N.pl3 106  ARG106      0.1354
    175  NH2       15.9190    2.4180    6.1220 N.pl3 106  ARG106      0.1354
    176  N         13.2930   10.8520    6.6330 N.3   115  VAL115     -0.1245
    177  CA        14.4110   10.0370    7.0380 C.3   115  VAL115      0.1561
    178  C         15.5920   10.8460    7.5860 C.2   115  VAL115      0.2260
    179  O         16.1800   11.6960    6.8990 O.2   115  VAL115     -0.2867
    180  CB        14.8620    9.1910    5.8520 C.3   115  VAL115      0.0252
    181  CG1       15.8780    8.1530    6.3080 C.3   115  VAL115      0.0019
    182  CG2       13.6490    8.4830    5.2260 C.3   115  VAL115      0.0019
    183  N         19.2920   10.6020    9.0160 N.3   117  CYS117     -0.1235
    184  CA        20.4760    9.7620    9.1690 C.3   117  CYS117      0.1677
    185  C         21.5350   10.4440   10.0410 C.2   117  CYS117      0.2270
    186  O         21.9610   11.5460    9.7740 O.2   117  CYS117     -0.2867
    187  CB        21.0260    9.3980    7.8050 C.3   117  CYS117      0.0956
    188  SG        19.7000    9.0180    6.6360 S.3   117  CYS117     -0.0801
    189  N         16.3290   13.1570    4.7210 N.3   126  ARG126     -0.1245
    190  CA        15.7930   12.7950    3.4020 C.3   126  ARG126      0.1563
    191  C         14.2650   12.6720    3.3860 C.2   126  ARG126      0.2260
    192  O         13.6720   12.0510    4.2740 O.2   126  ARG126     -0.2867
    193  CB        16.4520   11.5120    2.9020 C.3   126  ARG126      0.0307
    194  CG        17.9590   11.6710    2.5700 C.3   126  ARG126      0.0489
    195  CD        18.8260   10.4030    2.6930 C.3   126  ARG126      0.2205
    196  NE        18.5660    9.4720    1.5820 N.pl3 126  ARG126     -0.0865
    197  CZ        18.9840    9.6030    0.3090 C.cat 126  ARG126      0.5346
    198  NH1       19.7150   10.6450   -0.1010 N.pl3 126  ARG126      0.1354
    199  NH2       18.6440    8.6700   -0.5790 N.pl3 126  ARG126      0.1354
    200  N         10.6360   11.5720    1.3740 N.3   128  TYR128     -0.1241
    201  CA        10.1300   10.6550    0.4000 C.3   128  TYR128      0.1605
    202  C          8.5820   10.9120    0.3550 C.2   128  TYR128      0.2264
    203  O          7.9170   11.0140    1.4000 O.2   128  TYR128     -0.2867
    204  CB        10.3670    9.1940    0.8480 C.3   128  TYR128      0.0534
    205  CG        11.7410    8.6090    0.6070 C.ar  128  TYR128     -0.0201
    206  CD1       12.7620    8.8230    1.5040 C.ar  128  TYR128     -0.0009
    207  CD2       12.0060    7.8020   -0.5000 C.ar  128  TYR128     -0.0009
    208  CE1       14.0020    8.2830    1.2970 C.ar  128  TYR128      0.0417
    209  CE2       13.2690    7.2550   -0.7210 C.ar  128  TYR128      0.0417
    210  CZ        14.2690    7.4970    0.1760 C.ar  128  TYR128      0.1957
    211  OH        15.5510    6.9650   -0.0440 O.3   128  TYR128     -0.2866
@<TRIPOS>BOND
     1    90    91    1
     2    86    87    2
     3    86    85    1
     4    91    92    1
     5    91    94    1
     6    93    92    2
     7    85    84    1
     8    85    88    1
     9    92   101   am
    10    94    95    1
    11   101   102    1
    12    58    59    1
    13    59    60    1
    14    59    62    1
    15    88    89    1
    16   102   103    1
    17   102   105    1
    18    96    95   ar
    19    96    98   ar
    20    60    61    2
    21    95    97   ar
    22   103   104    2
    23    53    54    1
    24    98   100   ar
    25    63    64    1
    26    63    69    1
    27   105   106    1
    28    64    65    1
    29    64    67    1
    30   106   107    1
    31    97    99   ar
    32    65    66    2
    33    46    47    1
    34    54    55    1
    35    54    57    1
    36    47    48    1
    37    47    50    1
    38    55    56    2
    39    69    68    1
    40    49    48    2
    41   100    99   ar
    42    67    68    1
    43   107   108    1
    44    51    50    1
    45    81    80    2
    46   108   109    1
    47    80    79    1
    48    50    52    1
    49   110   111    1
    50    70    71    1
    51    79    78    1
    52    79    82    1
    53   127   126    2
    54   111   112    1
    55   111   114    1
    56    82    83    1
    57   113   112    2
    58   116   114    1
    59    73    72    2
    60    71    72    1
    61    71    74    1
    62   209   207   ar
    63   209   210   ar
    64    31    30    1
    65   128   125    1
    66   199   197    1
    67   207   205   ar
    68   126   125    1
    69   126   129   am
    70   114   115    1
    71   125   124    1
    72   198   197    1
    73    30    29    1
    74   211   210    1
    75   210   208   ar
    76   197   196    2
    77    44    43    1
    78   202   201    1
    79   202   203    2
    80   201   204    1
    81   201   200    1
    82     8    10   ar
    83     8     6   ar
    84    74    75    1
    85    10    11   ar
    86   205   204    1
    87   205   206   ar
    88   130   129    1
    89   130   133    1
    90   130   131    1
    91   124   119   am
    92   120   119    2
    93   133   134    1
    94    41    42    2
    95    41    40    1
    96   131   132    2
    97   208   206   ar
    98     5     6    1
    99     5     2    1
   100     6     7   ar
   101   196   195    1
   102    29    28    2
   103    75    76    1
   104    43    40    1
   105    43    45    1
   106   119   118    1
   107    11     9   ar
   108    28    25    1
   109     3     2    1
   110     3     4    2
   111    40    39    1
   112     2     1    1
   113   194   195    1
   114   194   193    1
   115   134   135   ar
   116   134   136   ar
   117     7     9   ar
   118    77    76    1
   119   193   190    1
   120   118   117    1
   121   118   121    1
   122   191   190    1
   123   191   192    2
   124   190   189    1
   125    25    26    1
   126    25    24    1
   127   137   138    1
   128   122   121    1
   129    26    27    2
   130   121   123    1
   131    24    14   am
   132    12    13    1
   133   182   180    1
   134   138   139    1
   135   138   141    1
   136    14    13    1
   137    14    15    2
   138   140   139    2
   139   147   145    1
   140    19    21   ar
   141    19    17   ar
   142   180   181    1
   143   180   177    1
   144   144   145    2
   145   144   143    1
   146    16    13    1
   147    16    17    1
   148   142   141    1
   149   142   143    1
   150   175   173    1
   151    21    22   ar
   152   172   173    2
   153   172   171    1
   154   145   146    1
   155    17    18   ar
   156   176   177    1
   157   188   187    1
   158   179   178    2
   159   173   174    1
   160    37    36    1
   161   177   178    1
   162    36    33    1
   163    36    38    1
   164    34    33    1
   165    34    35    2
   166   171   170    1
   167    32    33    1
   168    22    23    1
   169    22    20   ar
   170   187   184    1
   171   156   154   am
   172    18    20   ar
   173   170   169    1
   174   163   161    1
   175   164   162    1
   176   155   154    2
   177   169   166    1
   178   154   153    1
   179   183   184    1
   180   184   185    1
   181   162   161    1
   182   166   167    1
   183   166   165    1
   184   161   158    1
   185   186   185    2
   186   153   152    1
   187   167   168    2
   188   158   159    1
   189   158   157    1
   190   152   149    1
   191   159   160    2
   192   149   148    1
   193   149   150    1
   194   150   151    2
