@<TRIPOS>MOLECULE
tmp/3fr4A00.pdb
 211 194 0 0 0
SMALL
GASTEIGER

@<TRIPOS>ATOM
      1  N         23.6320   14.4160    2.5600 N.3    16  PHE16      -0.1241
      2  CA        23.8120   12.9660    2.3540 C.3    16  PHE16       0.1605
      3  C         25.2390   12.5460    2.0650 C.2    16  PHE16       0.2264
      4  O         25.7110   11.4990    2.5940 O.2    16  PHE16      -0.2867
      5  CB        22.8160   12.3490    1.3710 C.3    16  PHE16       0.0534
      6  CG        22.7380   10.8520    1.4740 C.ar   16  PHE16      -0.0203
      7  CD1       22.6280   10.2290    2.7090 C.ar   16  PHE16      -0.0042
      8  CD2       22.8420   10.0610    0.3510 C.ar   16  PHE16      -0.0042
      9  CE1       22.5560    8.8700    2.7910 C.ar   16  PHE16      -0.0003
     10  CE2       22.6810    8.6910    0.4430 C.ar   16  PHE16      -0.0003
     11  CZ        22.6360    8.0960    1.6650 C.ar   16  PHE16      -0.0000
     12  N         27.0740   12.7260    5.2540 N.3    19  TYR19      -0.1227
     13  CA        26.7460   11.5620    6.0870 C.3    19  TYR19       0.1736
     14  C         27.5410   10.3280    5.6480 C.2    19  TYR19       0.2598
     15  O         28.1310    9.6230    6.4660 O.2    19  TYR19      -0.2717
     16  CB        25.2410   11.2710    6.0620 C.3    19  TYR19       0.0548
     17  CG        24.8600    9.9060    6.6120 C.ar   19  TYR19      -0.0200
     18  CD1       24.8370    9.6690    7.9660 C.ar   19  TYR19      -0.0009
     19  CD2       24.5290    8.8450    5.7570 C.ar   19  TYR19      -0.0009
     20  CE1       24.5020    8.4390    8.4780 C.ar   19  TYR19       0.0417
     21  CE2       24.1800    7.6340    6.2480 C.ar   19  TYR19       0.0417
     22  CZ        24.1730    7.4090    7.6050 C.ar   19  TYR19       0.1957
     23  OH        23.8530    6.1340    8.0980 O.3    19  TYR19      -0.2866
     24  N         27.5570   10.0910    4.3430 N.am   20  MET20      -0.1934
     25  CA        28.2390    8.9390    3.7710 C.3    20  MET20       0.1821
     26  C         29.7410    9.0430    4.0260 C.2    20  MET20       0.2332
     27  O         30.4180    8.0550    4.3100 O.2    20  MET20      -0.2860
     28  CB        27.9700    8.8060    2.2570 C.2    20  MET20       0.0096
     29  CG        26.5250    8.4470    1.8570 C.2    20  MET20       0.0285
     30  SD        26.2870    7.9590    0.0910 S.3    20  MET20      -0.1125
     31  CE        26.2160    9.4590   -0.7570 C.3    20  MET20       0.0742
     32  N         30.3950    7.9510    7.4560 N.3    23  VAL23      -0.1245
     33  CA        30.2430    6.5350    7.6980 C.3    23  VAL23       0.1561
     34  C         31.4330    5.7790    7.1680 C.2    23  VAL23       0.2260
     35  O         31.8040    4.7090    7.6720 O.2    23  VAL23      -0.2867
     36  CB        28.9750    5.9950    7.0470 C.3    23  VAL23       0.0252
     37  CG1       29.0320    4.5020    6.9000 C.3    23  VAL23       0.0019
     38  CG2       27.7810    6.4410    7.8320 C.3    23  VAL23       0.0019
     39  N         32.0100    5.7360    3.5450 N.3    25  VAL25      -0.1245
     40  CA        31.7840    5.3220    2.1650 C.3    25  VAL25       0.1561
     41  C         32.8780    5.9190    1.2490 C.2    25  VAL25       0.2260
     42  O         33.2010    7.1030    1.3520 O.2    25  VAL25      -0.2867
     43  CB        30.3480    5.7210    1.7060 C.3    25  VAL25       0.0252
     44  CG1       30.0850    5.2700    0.2720 C.3    25  VAL25       0.0019
     45  CG2       29.3070    5.1510    2.6790 C.3    25  VAL25       0.0019
     46  N         31.4600    5.1840   -4.4900 N.3    29  THR29      -0.1218
     47  CA        30.1120    4.8420   -4.1310 C.3    29  THR29       0.1862
     48  C         29.3330    6.1140   -3.7540 C.2    29  THR29       0.2287
     49  O         28.1640    6.2150   -4.0500 O.2    29  THR29      -0.2866
     50  CB        30.1260    3.8360   -3.0260 C.3    29  THR29       0.1770
     51  OG1       30.7740    2.6610   -3.4930 O.3    29  THR29      -0.2211
     52  CG2       28.7170    3.3580   -2.7110 C.3    29  THR29       0.0375
     53  N         25.6390    6.8200   -5.3140 N.3    33  ALA33      -0.1245
     54  CA        24.5610    6.8220   -4.3280 C.3    33  ALA33       0.1562
     55  C         23.9620    8.2370   -4.1300 C.2    33  ALA33       0.2260
     56  O         22.7520    8.4010   -3.9410 O.2    33  ALA33      -0.2867
     57  CB        25.0630    6.2920   -3.0170 C.3    33  ALA33       0.0290
     58  N         21.6220    9.1550   -6.8140 N.3    36  ALA36      -0.1245
     59  CA        20.5100    8.2280   -6.9520 C.3    36  ALA36       0.1562
     60  C         19.2100    8.7880   -6.4710 C.2    36  ALA36       0.2260
     61  O         19.1610    9.5590   -5.5380 O.2    36  ALA36      -0.2867
     62  CB        20.7950    6.8880   -6.2640 C.3    36  ALA36       0.0290
     63  N         16.1730    6.8190   -5.3130 N.3    38  PRO38      -0.2116
     64  CA        15.5520    5.5210   -5.0540 C.3    38  PRO38       0.1372
     65  C         14.1010    5.5190   -4.6580 C.2    38  PRO38       0.2244
     66  O         13.5200    6.4790   -4.1600 O.2    38  PRO38      -0.2868
     67  CB        16.3760    4.9720   -3.8780 C.3    38  PRO38       0.0268
     68  CG        16.8720    6.1950   -3.1590 C.3    38  PRO38       0.0207
     69  CD        16.9840    7.2900   -4.1730 C.3    38  PRO38       0.0892
     70  N         11.6510    3.6870   -2.0940 N.3    40  MET40      -0.1245
     71  CA        11.7150    2.8710   -0.8850 C.3    40  MET40       0.1570
     72  C         10.3540    2.2280   -0.7610 C.2    40  MET40       0.2261
     73  O          9.3500    2.9260   -0.6600 O.2    40  MET40      -0.2867
     74  CB        12.0940    3.6730    0.3640 C.3    40  MET40       0.0387
     75  CG        12.0750    2.8530    1.6700 C.3    40  MET40       0.0595
     76  SD        12.5100    3.8030    3.1620 S.3    40  MET40      -0.1393
     77  CE        12.1620    5.3620    2.5880 C.3    40  MET40       0.0692
     78  N         14.6720   -0.8770   -1.1730 N.3    53  SER53      -0.1217
     79  CA        15.0860    0.3790   -1.8000 C.3    53  SER53       0.1889
     80  C         15.6170    0.0190   -3.1850 C.2    53  SER53       0.2288
     81  O         16.5370   -0.7940   -3.3100 O.2    53  SER53      -0.2866
     82  CB        16.1700    1.0540   -0.9670 C.3    53  SER53       0.2089
     83  OG        15.7550    1.2470    0.3670 O.3    53  SER53      -0.2183
     84  N         17.0400    1.3010   -7.0920 N.3    55  SER55      -0.1217
     85  CA        17.6500    2.3840   -7.8640 C.3    55  SER55       0.1889
     86  C         18.5380    1.7580   -8.9260 C.2    55  SER55       0.2288
     87  O         18.9240    0.6020   -8.7600 O.2    55  SER55      -0.2866
     88  CB        18.5310    3.2480   -6.9470 C.3    55  SER55       0.2089
     89  OG        19.7540    2.5730   -6.6220 O.3    55  SER55      -0.2183
     90  N         21.5010    2.4800   -9.3800 N.3    57  PHE57      -0.1227
     91  CA        22.7380    2.3140   -8.6230 C.3    57  PHE57       0.1736
     92  C         22.7660    0.9100   -7.9660 C.2    57  PHE57       0.2595
     93  O         23.7330    0.1470   -8.1070 O.2    57  PHE57      -0.2718
     94  CB        22.8430    3.3980   -7.5210 C.3    57  PHE57       0.0547
     95  CG        23.6910    2.9890   -6.3150 C.ar   57  PHE57      -0.0202
     96  CD1       24.9620    2.5310   -6.4810 C.ar   57  PHE57      -0.0042
     97  CD2       23.1890    3.0910   -5.0210 C.ar   57  PHE57      -0.0042
     98  CE1       25.7290    2.1360   -5.3820 C.ar   57  PHE57      -0.0003
     99  CE2       23.9430    2.7270   -3.9280 C.ar   57  PHE57      -0.0003
    100  CZ        25.2230    2.2490   -4.1160 C.ar   57  PHE57      -0.0000
    101  N         21.7220    0.5910   -7.2210 N.am   58  LYS58      -0.1980
    102  CA        21.6910   -0.6710   -6.4660 C.3    58  LYS58       0.1596
    103  C         20.3340   -0.8760   -5.8440 C.2    58  LYS58       0.2287
    104  O         19.7000    0.0990   -5.4630 O.2    58  LYS58      -0.2864
    105  CB        22.7320   -0.6750   -5.3320 C.3    58  LYS58       0.0298
    106  CG        23.4730   -1.9950   -5.2040 C.3    58  LYS58       0.0038
    107  CD        24.2230   -2.0050   -3.8920 C.3    58  LYS58       0.0206
    108  CE        24.8800   -3.3320   -3.5680 C.3    58  LYS58       0.1093
    109  NZ        25.1890   -3.3200   -2.0920 N.3    58  LYS58      -0.1314
    110  N         18.4400   -2.8270   -2.5360 N.3    60  THR60      -0.1218
    111  CA        18.6760   -3.6360   -1.3590 C.3    60  THR60       0.1862
    112  C         17.3450   -3.9690   -0.7510 C.2    60  THR60       0.2287
    113  O         16.3440   -3.3770   -1.0980 O.2    60  THR60      -0.2866
    114  CB        19.3980   -2.8970   -0.2970 C.3    60  THR60       0.1770
    115  OG1       18.6480   -1.7320   -0.0230 O.3    60  THR60      -0.2211
    116  CG2       20.7840   -2.4000   -0.7710 C.3    60  THR60       0.0375
    117  N         24.9620   -3.7370    3.7630 N.3    74  THR74      -0.1203
    118  CA        24.3680   -2.4680    3.2920 C.3    74  THR74       0.1994
    119  C         24.6830   -2.2180    1.8310 C.2    74  THR74       0.2618
    120  O         25.5620   -2.8880    1.2540 O.2    74  THR74      -0.2717
    121  CB        24.8890   -1.2320    4.1170 C.3    74  THR74       0.1784
    122  OG1       26.3210   -1.0990    3.9660 O.3    74  THR74      -0.2211
    123  CG2       24.6960   -1.4230    5.6080 C.3    74  THR74       0.0376
    124  N         24.0570   -1.1940    1.2600 N.am   75  ALA75      -0.1965
    125  CA        24.3720   -0.7790   -0.0980 C.3    75  ALA75       0.1728
    126  C         25.8820   -0.5160   -0.2250 C.2    75  ALA75       0.2616
    127  O         26.4590   -0.6920   -1.2770 O.2    75  ALA75      -0.2715
    128  CB        23.5790    0.4670   -0.4690 C.3    75  ALA75       0.0334
    129  N         26.5300   -0.1330    0.8710 N.am   76  ASP76      -0.1971
    130  CA        27.9730    0.1510    0.8420 C.3    76  ASP76       0.1709
    131  C         28.8320   -0.9670    1.4380 C.2    76  ASP76       0.2293
    132  O         30.0050   -0.7820    1.8160 O.2    76  ASP76      -0.2864
    133  CB        28.3040    1.5450    1.3990 C.3    76  ASP76       0.1436
    134  CG        28.1380    1.6370    2.8920 C.2    76  ASP76       0.3671
    135  OD1       26.9920    1.5020    3.3570 O.co2  76  ASP76      -0.2456
    136  OD2       29.1120    1.8620    3.6210 O.co2  76  ASP76      -0.2456
    137  N         28.9170   -2.6660    4.0160 N.3    78  ARG78      -0.1245
    138  CA        29.3790   -2.8820    5.3930 C.3    78  ARG78       0.1563
    139  C         28.6110   -4.0860    5.9620 C.2    78  ARG78       0.2260
    140  O         27.4620   -4.3160    5.5950 O.2    78  ARG78      -0.2867
    141  CB        29.0650   -1.6840    6.2580 C.3    78  ARG78       0.0307
    142  CG        29.8940   -0.4870    5.9780 C.3    78  ARG78       0.0489
    143  CD        29.3750    0.7220    6.7360 C.3    78  ARG78       0.2205
    144  NE        28.2250    1.2790    6.0270 N.pl3  78  ARG78      -0.0865
    145  CZ        27.1000    1.6280    6.6250 C.cat  78  ARG78       0.5346
    146  NH1       26.9740    1.4960    7.9720 N.pl3  78  ARG78       0.1354
    147  NH2       26.1100    2.1390    5.9380 N.pl3  78  ARG78       0.1354
    148  N         22.5710    0.3600   13.3780 N.3    95  GLN95      -0.1245
    149  CA        23.5390   -0.4990   12.7170 C.3    95  GLN95       0.1566
    150  C         24.8330   -0.3710   13.4780 C.2    95  GLN95       0.2260
    151  O         25.3310    0.7370   13.6910 O.2    95  GLN95      -0.2867
    152  CB        23.7630   -0.0790   11.2290 C.3    95  GLN95       0.0367
    153  CG        22.5210   -0.1080   10.2930 C.3    95  GLN95       0.0905
    154  CD        22.7890    0.4560    8.8240 C.2    95  GLN95       0.2608
    155  OE1       23.5590    1.3980    8.6550 O.2    95  GLN95      -0.2717
    156  NE2       22.1170   -0.0960    7.8440 N.am   95  GLN95      -0.0878
    157  N         19.2750    5.5160   11.8100 N.3   104  ILE104     -0.1245
    158  CA        18.4190    5.9810   10.7510 C.3   104  ILE104      0.1561
    159  C         16.9830    5.9440   11.2090 C.2   104  ILE104      0.2260
    160  O         16.4350    4.8700   11.4050 O.2   104  ILE104     -0.2867
    161  CB        18.5880    5.0650    9.5000 C.3   104  ILE104      0.0252
    162  CG1       20.0390    5.1120    9.0250 C.3   104  ILE104      0.0019
    163  CG2       17.5460    5.4560    8.3800 C.3   104  ILE104      0.0019
    164  CD1       20.4730    3.8780    8.1900 C.3   104  ILE104      0.0001
    165  N         12.9710    6.6640   10.5680 N.3   106  ARG106     -0.1245
    166  CA        11.9610    6.9510    9.5530 C.3   106  ARG106      0.1563
    167  C         10.6720    7.3910   10.2490 C.2   106  ARG106      0.2260
    168  O         10.1810    6.6890   11.1480 O.2   106  ARG106     -0.2867
    169  CB        11.6830    5.7310    8.6600 C.3   106  ARG106      0.0307
    170  CG        12.9460    5.0820    8.0170 C.3   106  ARG106      0.0489
    171  CD        12.6350    3.7320    7.3590 C.3   106  ARG106      0.2205
    172  NE        13.5920    3.3600    6.3420 N.pl3 106  ARG106     -0.0865
    173  CZ        14.7060    2.7410    6.6050 C.cat 106  ARG106      0.5346
    174  NH1       15.0060    2.4380    7.8660 N.pl3 106  ARG106      0.1354
    175  NH2       15.5330    2.4500    5.6140 N.pl3 106  ARG106      0.1354
    176  N         13.3720   10.7890    6.5950 N.3   115  VAL115     -0.1245
    177  CA        14.4390    9.8960    7.0290 C.3   115  VAL115      0.1561
    178  C         15.6210   10.7020    7.5700 C.2   115  VAL115      0.2260
    179  O         16.2180   11.4820    6.8430 O.2   115  VAL115     -0.2867
    180  CB        14.8970    9.0090    5.8650 C.3   115  VAL115      0.0252
    181  CG1       15.9290    7.9910    6.2970 C.3   115  VAL115      0.0019
    182  CG2       13.7130    8.2910    5.2220 C.3   115  VAL115      0.0019
    183  N         19.3910   10.5920    9.0010 N.3   117  CYS117     -0.1235
    184  CA        20.5290    9.7100    9.1590 C.3   117  CYS117      0.1677
    185  C         21.6250   10.3950    9.9660 C.2   117  CYS117      0.2270
    186  O         22.0540   11.4910    9.6650 O.2   117  CYS117     -0.2867
    187  CB        21.0170    9.1750    7.8160 C.3   117  CYS117      0.0956
    188  SG        19.6840    8.8670    6.5850 S.3   117  CYS117     -0.0801
    189  N         16.3400   13.1260    4.6710 N.3   126  ARG126     -0.1245
    190  CA        15.8830   12.7640    3.3390 C.3   126  ARG126      0.1563
    191  C         14.3880   12.6010    3.3710 C.2   126  ARG126      0.2260
    192  O         13.8380   11.9800    4.2880 O.2   126  ARG126     -0.2867
    193  CB        16.5890   11.5040    2.8390 C.3   126  ARG126      0.0307
    194  CG        18.1100   11.6900    2.6530 C.3   126  ARG126      0.0489
    195  CD        18.9760   10.4140    2.7070 C.3   126  ARG126      0.2205
    196  NE        18.6620    9.4350    1.6500 N.pl3 126  ARG126     -0.0865
    197  CZ        19.0030    9.5230    0.3550 C.cat 126  ARG126      0.5346
    198  NH1       19.7260   10.5490   -0.0930 N.pl3 126  ARG126      0.1354
    199  NH2       18.6590    8.5520   -0.5000 N.pl3 126  ARG126      0.1354
    200  N         10.8470   11.5650    1.3520 N.3   128  TYR128     -0.1241
    201  CA        10.3040   10.7250    0.3020 C.3   128  TYR128      0.1605
    202  C          8.7980   10.9980    0.2250 C.2   128  TYR128      0.2264
    203  O          8.1250   11.1860    1.2520 O.2   128  TYR128     -0.2867
    204  CB        10.4740    9.2250    0.6170 C.3   128  TYR128      0.0534
    205  CG        11.8750    8.6530    0.4700 C.ar  128  TYR128     -0.0201
    206  CD1       12.8140    8.8590    1.4500 C.ar  128  TYR128     -0.0009
    207  CD2       12.2230    7.8610   -0.6160 C.ar  128  TYR128     -0.0009
    208  CE1       14.0900    8.3310    1.3390 C.ar  128  TYR128      0.0417
    209  CE2       13.5280    7.3090   -0.7410 C.ar  128  TYR128      0.0417
    210  CZ        14.4490    7.5630    0.2350 C.ar  128  TYR128      0.1957
    211  OH        15.7200    7.0400    0.1250 O.3   128  TYR128     -0.2866
@<TRIPOS>BOND
     1    90    91    1
     2    86    87    2
     3    86    85    1
     4    91    92    1
     5    91    94    1
     6    93    92    2
     7    92   101   am
     8    85    84    1
     9    85    88    1
    10    94    95    1
    11   101   102    1
    12    59    58    1
    13    59    60    1
    14    59    62    1
    15    88    89    1
    16    96    95   ar
    17    96    98   ar
    18    60    61    2
    19   102   103    1
    20   102   105    1
    21    95    97   ar
    22   103   104    2
    23    98   100   ar
    24   105   106    1
    25    53    54    1
    26    63    64    1
    27    63    69    1
    28   106   107    1
    29    64    65    1
    30    64    67    1
    31    97    99   ar
    32    65    66    2
    33    46    47    1
    34    54    55    1
    35    54    57    1
    36    69    68    1
    37    47    48    1
    38    47    50    1
    39    55    56    2
    40   100    99   ar
    41    49    48    2
    42   107   108    1
    43    67    68    1
    44   108   109    1
    45    51    50    1
    46    81    80    2
    47    80    79    1
    48    50    52    1
    49   110   111    1
    50    70    71    1
    51    79    78    1
    52    79    82    1
    53   111   112    1
    54   111   114    1
    55   127   126    2
    56   113   112    2
    57    82    83    1
    58    71    72    1
    59    71    74    1
    60   116   114    1
    61    72    73    2
    62    31    30    1
    63   209   207   ar
    64   209   210   ar
    65   207   205   ar
    66   199   197    1
    67   128   125    1
    68   114   115    1
    69   126   125    1
    70   126   129   am
    71   125   124    1
    72   198   197    1
    73    30    29    1
    74   211   210    1
    75   202   201    1
    76   202   203    2
    77   210   208   ar
    78    44    43    1
    79   201   204    1
    80   201   200    1
    81     8    10   ar
    82     8     6   ar
    83   197   196    2
    84    74    75    1
    85    10    11   ar
    86   205   204    1
    87   205   206   ar
    88   130   129    1
    89   130   133    1
    90   130   131    1
    91    41    42    2
    92    41    40    1
    93   120   119    2
    94   124   119   am
    95   208   206   ar
    96     5     6    1
    97     5     2    1
    98   133   134    1
    99   131   132    2
   100     6     7   ar
   101   196   195    1
   102    11     9   ar
   103    75    76    1
   104    43    40    1
   105    43    45    1
   106   119   118    1
   107    29    28    2
   108     3     2    1
   109     3     4    2
   110    40    39    1
   111    28    25    1
   112     2     1    1
   113    77    76    1
   114   194   195    1
   115   194   193    1
   116     7     9   ar
   117   193   190    1
   118   134   135   ar
   119   134   136   ar
   120   118   117    1
   121   118   121    1
   122   190   191    1
   123   190   189    1
   124   191   192    2
   125    25    26    1
   126    25    24    1
   127   122   121    1
   128   137   138    1
   129    26    27    2
   130   121   123    1
   131    24    14   am
   132   182   180    1
   133    12    13    1
   134   138   139    1
   135   138   141    1
   136   140   139    2
   137   175   173    1
   138    14    13    1
   139    14    15    2
   140    19    21   ar
   141    19    17   ar
   142   180   181    1
   143   180   177    1
   144   147   145    1
   145   142   141    1
   146   142   143    1
   147   144   145    2
   148   144   143    1
   149    16    13    1
   150    16    17    1
   151    21    22   ar
   152   172   173    2
   153   172   171    1
   154   188   187    1
   155   176   177    1
   156   173   174    1
   157    17    18   ar
   158   145   146    1
   159   179   178    2
   160    37    36    1
   161   177   178    1
   162    36    33    1
   163    36    38    1
   164    34    35    2
   165    34    33    1
   166   171   170    1
   167    32    33    1
   168    22    23    1
   169    22    20   ar
   170   187   184    1
   171   156   154   am
   172    18    20   ar
   173   170   169    1
   174   164   162    1
   175   163   161    1
   176   155   154    2
   177   169   166    1
   178   154   153    1
   179   183   184    1
   180   162   161    1
   181   184   185    1
   182   161   158    1
   183   166   167    1
   184   166   165    1
   185   186   185    2
   186   167   168    2
   187   153   152    1
   188   158   159    1
   189   158   157    1
   190   159   160    2
   191   152   149    1
   192   149   148    1
   193   149   150    1
   194   150   151    2
