@<TRIPOS>MOLECULE
tmp/3fr5A00.pdb
 211 194 0 0 0
SMALL
GASTEIGER

@<TRIPOS>ATOM
      1  N         23.4740   14.4780    2.6270 N.3    16  PHE16      -0.1241
      2  CA        23.6410   13.0350    2.5220 C.3    16  PHE16       0.1605
      3  C         25.0520   12.6510    2.1270 C.2    16  PHE16       0.2264
      4  O         25.6080   11.6710    2.6120 O.2    16  PHE16      -0.2867
      5  CB        22.5960   12.3940    1.6000 C.3    16  PHE16       0.0534
      6  CG        22.5290   10.8990    1.7220 C.ar   16  PHE16      -0.0203
      7  CD1       22.3190   10.3040    2.9660 C.ar   16  PHE16      -0.0042
      8  CD2       22.6070   10.0880    0.6010 C.ar   16  PHE16      -0.0042
      9  CE1       22.1770    8.9670    3.0920 C.ar   16  PHE16      -0.0003
     10  CE2       22.4530    8.7200    0.7210 C.ar   16  PHE16      -0.0003
     11  CZ        22.2790    8.1550    1.9720 C.ar   16  PHE16      -0.0000
     12  N         26.8590   12.8780    5.2690 N.3    19  TYR19      -0.1227
     13  CA        26.5470   11.7470    6.1460 C.3    19  TYR19       0.1736
     14  C         27.3080   10.4890    5.6840 C.2    19  TYR19       0.2595
     15  O         27.9260    9.7950    6.4640 O.2    19  TYR19      -0.2718
     16  CB        25.0360   11.4920    6.1900 C.3    19  TYR19       0.0548
     17  CG        24.6860   10.1360    6.7390 C.ar   19  TYR19      -0.0200
     18  CD1       24.6400    9.9080    8.1240 C.ar   19  TYR19      -0.0009
     19  CD2       24.4290    9.0670    5.8890 C.ar   19  TYR19      -0.0009
     20  CE1       24.3060    8.6750    8.6330 C.ar   19  TYR19       0.0417
     21  CE2       24.1220    7.8440    6.3860 C.ar   19  TYR19       0.0417
     22  CZ        24.0470    7.6380    7.7640 C.ar   19  TYR19       0.1957
     23  OH        23.7590    6.3760    8.2720 O.3    19  TYR19      -0.2866
     24  N         27.2470   10.2090    4.3940 N.am   20  MET20      -0.1979
     25  CA        27.9200    9.0420    3.8780 C.3    20  MET20       0.1605
     26  C         29.4180    9.0890    4.1430 C.2    20  MET20       0.2287
     27  O         30.0340    8.0860    4.5750 O.2    20  MET20      -0.2864
     28  CB        27.6760    8.8920    2.3690 C.3    20  MET20       0.0413
     29  CG        26.2740    8.4610    2.0700 C.3    20  MET20       0.0598
     30  SD        25.9380    7.9150    0.3720 S.3    20  MET20      -0.1393
     31  CE        26.0550    9.5070   -0.6150 C.3    20  MET20       0.0692
     32  N         30.1260    8.1610    7.4550 N.3    23  VAL23      -0.1245
     33  CA        29.9350    6.7490    7.7510 C.3    23  VAL23       0.1561
     34  C         31.1430    5.9720    7.3150 C.2    23  VAL23       0.2260
     35  O         31.4530    4.9230    7.8880 O.2    23  VAL23      -0.2867
     36  CB        28.6740    6.1790    7.0360 C.3    23  VAL23       0.0252
     37  CG1       28.7730    4.6890    6.8730 C.3    23  VAL23       0.0019
     38  CG2       27.4200    6.5980    7.8270 C.3    23  VAL23       0.0019
     39  N         31.8260    5.7680    3.6860 N.3    25  VAL25      -0.1245
     40  CA        31.5990    5.3550    2.3080 C.3    25  VAL25       0.1561
     41  C         32.5920    6.0430    1.3450 C.2    25  VAL25       0.2260
     42  O         32.7240    7.2670    1.3560 O.2    25  VAL25      -0.2867
     43  CB        30.1400    5.6670    1.9270 C.3    25  VAL25       0.0252
     44  CG1       29.8200    5.1360    0.5350 C.3    25  VAL25       0.0019
     45  CG2       29.1900    5.1110    3.0270 C.3    25  VAL25       0.0019
     46  N         31.1800    5.0890   -4.5120 N.3    29  THR29      -0.1218
     47  CA        29.8270    4.7530   -4.0640 C.3    29  THR29       0.1862
     48  C         28.9950    6.0010   -3.6710 C.2    29  THR29       0.2287
     49  O         27.7910    6.0830   -3.9270 O.2    29  THR29      -0.2866
     50  CB        29.9150    3.7620   -2.9400 C.3    29  THR29       0.1770
     51  OG1       30.5440    2.5840   -3.4510 O.3    29  THR29      -0.2211
     52  CG2       28.5210    3.3210   -2.5030 C.3    29  THR29       0.0375
     53  N         25.3320    6.6540   -5.1440 N.3    33  ALA33      -0.1245
     54  CA        24.2420    6.6570   -4.1500 C.3    33  ALA33       0.1562
     55  C         23.6620    8.0780   -3.9890 C.2    33  ALA33       0.2260
     56  O         22.4670    8.2480   -3.9420 O.2    33  ALA33      -0.2867
     57  CB        24.7400    6.1760   -2.7970 C.3    33  ALA33       0.0290
     58  N         21.4030    9.0170   -6.8920 N.3    36  ALA36      -0.1245
     59  CA        20.2470    8.1540   -7.0460 C.3    36  ALA36       0.1562
     60  C         18.9900    8.7370   -6.4360 C.2    36  ALA36       0.2260
     61  O         19.0450    9.4850   -5.4730 O.2    36  ALA36      -0.2867
     62  CB        20.5490    6.7730   -6.4360 C.3    36  ALA36       0.0290
     63  N         16.0660    6.7570   -5.1810 N.3    38  PRO38      -0.2116
     64  CA        15.5250    5.4350   -4.8950 C.3    38  PRO38       0.1372
     65  C         14.0630    5.4590   -4.5160 C.2    38  PRO38       0.2244
     66  O         13.5630    6.4240   -3.8890 O.2    38  PRO38      -0.2868
     67  CB        16.3170    4.9820   -3.6580 C.3    38  PRO38       0.0268
     68  CG        16.9100    6.1710   -3.0850 C.3    38  PRO38       0.0207
     69  CD        16.9580    7.2510   -4.1230 C.3    38  PRO38       0.0892
     70  N         11.4170    3.6310   -2.0850 N.3    40  MET40      -0.1245
     71  CA        11.4950    2.8360   -0.8920 C.3    40  MET40       0.1570
     72  C         10.1330    2.2020   -0.8030 C.2    40  MET40       0.2261
     73  O          9.1530    2.9090   -0.7330 O.2    40  MET40      -0.2867
     74  CB        11.7880    3.7240    0.3170 C.3    40  MET40       0.0387
     75  CG        11.5260    3.0290    1.6220 C.3    40  MET40       0.0595
     76  SD        11.8040    3.9090    3.1560 S.3    40  MET40      -0.1393
     77  CE        12.0150    5.5420    2.7100 C.3    40  MET40       0.0692
     78  N         14.6540   -0.8910   -1.2290 N.3    53  SER53      -0.1217
     79  CA        15.0830    0.4150   -1.6770 C.3    53  SER53       0.1889
     80  C         15.5650    0.0640   -3.0440 C.2    53  SER53       0.2288
     81  O         16.4340   -0.7990   -3.1860 O.2    53  SER53      -0.2866
     82  CB        16.2110    0.9320   -0.8150 C.3    53  SER53       0.2089
     83  OG        16.8110    2.0500   -1.4150 O.3    53  SER53      -0.2183
     84  N         16.7340    1.4200   -7.0540 N.3    55  SER55      -0.1217
     85  CA        17.2680    2.4790   -7.9480 C.3    55  SER55       0.1889
     86  C         18.1910    1.8240   -8.9550 C.2    55  SER55       0.2288
     87  O         18.5560    0.6640   -8.7350 O.2    55  SER55      -0.2866
     88  CB        18.1100    3.4990   -7.1810 C.3    55  SER55       0.2089
     89  OG        19.3970    2.9740   -6.8390 O.3    55  SER55      -0.2183
     90  N         21.2090    2.3590   -9.4320 N.3    57  PHE57      -0.1227
     91  CA        22.4830    2.1210   -8.7710 C.3    57  PHE57       0.1736
     92  C         22.4550    0.7420   -8.1180 C.2    57  PHE57       0.2595
     93  O         23.2690   -0.1140   -8.4290 O.2    57  PHE57      -0.2718
     94  CB        22.6930    3.1740   -7.6890 C.3    57  PHE57       0.0547
     95  CG        23.6260    2.7540   -6.6000 C.ar   57  PHE57      -0.0202
     96  CD1       24.8450    2.2430   -6.8870 C.ar   57  PHE57      -0.0042
     97  CD2       23.2580    2.8690   -5.2790 C.ar   57  PHE57      -0.0042
     98  CE1       25.7000    1.8550   -5.8710 C.ar   57  PHE57      -0.0003
     99  CE2       24.1150    2.4810   -4.2730 C.ar   57  PHE57      -0.0003
    100  CZ        25.3140    1.9930   -4.5680 C.ar   57  PHE57      -0.0000
    101  N         21.5120    0.5330   -7.2050 N.am   58  LYS58      -0.1980
    102  CA        21.4270   -0.7370   -6.4680 C.3    58  LYS58       0.1596
    103  C         20.0190   -0.9850   -5.9350 C.2    58  LYS58       0.2287
    104  O         19.2890   -0.0430   -5.6430 O.2    58  LYS58      -0.2864
    105  CB        22.4420   -0.7800   -5.3010 C.3    58  LYS58       0.0298
    106  CG        23.0430   -2.1730   -5.0170 C.3    58  LYS58       0.0038
    107  CD        24.0490   -2.1590   -3.8240 C.3    58  LYS58       0.0206
    108  CE        24.3900   -3.5740   -3.3460 C.3    58  LYS58       0.1093
    109  NZ        25.4290   -3.6470   -2.2070 N.3    58  LYS58      -0.1314
    110  N         18.2190   -2.9510   -2.8010 N.3    60  THR60      -0.1218
    111  CA        18.4650   -3.6600   -1.5600 C.3    60  THR60       0.1862
    112  C         17.1700   -3.9760   -0.8920 C.2    60  THR60       0.2287
    113  O         16.0890   -3.4990   -1.2950 O.2    60  THR60      -0.2866
    114  CB        19.2940   -2.8780   -0.5430 C.3    60  THR60       0.1770
    115  OG1       18.5160   -1.7930    0.0000 O.3    60  THR60      -0.2211
    116  CG2       20.5160   -2.2190   -1.2000 C.3    60  THR60       0.0375
    117  N         24.7480   -3.6470    3.8370 N.3    74  THR74      -0.1203
    118  CA        24.2760   -2.3690    3.2720 C.3    74  THR74       0.1994
    119  C         24.6810   -2.1800    1.7950 C.2    74  THR74       0.2618
    120  O         25.4440   -2.9730    1.2500 O.2    74  THR74      -0.2717
    121  CB        24.7300   -1.1610    4.1280 C.3    74  THR74       0.1784
    122  OG1       26.1360   -0.9960    3.9980 O.3    74  THR74      -0.2211
    123  CG2       24.5610   -1.4130    5.6180 C.3    74  THR74       0.0376
    124  N         24.1280   -1.1480    1.1480 N.am   75  ALA75      -0.1965
    125  CA        24.4120   -0.8770   -0.2670 C.3    75  ALA75       0.1728
    126  C         25.8760   -0.4740   -0.4330 C.2    75  ALA75       0.2616
    127  O         26.4490   -0.6100   -1.5240 O.2    75  ALA75      -0.2715
    128  CB        23.4830    0.1970   -0.8170 C.3    75  ALA75       0.0334
    129  N         26.4660    0.0050    0.6700 N.am   76  ASP76      -0.1971
    130  CA        27.8790    0.3840    0.7280 C.3    76  ASP76       0.1709
    131  C         28.6720   -0.7140    1.4420 C.2    76  ASP76       0.2293
    132  O         29.7450   -0.5110    2.0660 O.2    76  ASP76      -0.2864
    133  CB        28.0620    1.7680    1.3430 C.3    76  ASP76       0.1436
    134  CG        27.8510    1.7740    2.8200 C.2    76  ASP76       0.3671
    135  OD1       26.7030    1.5920    3.2800 O.co2  76  ASP76      -0.2456
    136  OD2       28.8030    1.9570    3.5820 O.co2  76  ASP76      -0.2456
    137  N         28.6690   -2.4870    3.9760 N.3    78  ARG78      -0.1245
    138  CA        29.0580   -2.6780    5.3780 C.3    78  ARG78       0.1563
    139  C         28.3330   -3.9100    5.8780 C.2    78  ARG78       0.2260
    140  O         27.2620   -4.2380    5.3930 O.2    78  ARG78      -0.2867
    141  CB        28.6870   -1.4730    6.2470 C.3    78  ARG78       0.0307
    142  CG        29.6300   -0.3080    6.0860 C.3    78  ARG78       0.0489
    143  CD        29.1250    0.9480    6.7910 C.3    78  ARG78       0.2205
    144  NE        27.9230    1.4170    6.1290 N.pl3  78  ARG78      -0.0865
    145  CZ        26.7700    1.7580    6.6680 C.cat  78  ARG78       0.5346
    146  NH1       26.5920    1.7290    7.9810 N.pl3  78  ARG78       0.1354
    147  NH2       25.7850    2.1400    5.8490 N.pl3  78  ARG78       0.1354
    148  N         22.3640    0.6010   13.3670 N.3    95  GLN95      -0.1245
    149  CA        23.4360   -0.1930   12.7870 C.3    95  GLN95       0.1566
    150  C         24.7310   -0.0480   13.6420 C.2    95  GLN95       0.2260
    151  O         25.2040    1.0680   13.8890 O.2    95  GLN95      -0.2867
    152  CB        23.6630    0.2850   11.3640 C.3    95  GLN95       0.0367
    153  CG        22.4170    0.0780   10.4140 C.3    95  GLN95       0.0905
    154  CD        22.6500    0.4710    8.9300 C.2    95  GLN95       0.2608
    155  OE1       23.3500    1.4380    8.6560 O.2    95  GLN95      -0.2717
    156  NE2       22.0470   -0.2760    7.9920 N.am   95  GLN95      -0.0878
    157  N         19.1540    5.6120   11.9680 N.3   104  ILE104     -0.1245
    158  CA        18.2430    6.0990   10.9290 C.3   104  ILE104      0.1561
    159  C         16.7700    6.0650   11.3500 C.2   104  ILE104      0.2260
    160  O         16.2100    5.0170   11.5820 O.2   104  ILE104     -0.2867
    161  CB        18.4220    5.2540    9.6670 C.3   104  ILE104      0.0252
    162  CG1       19.8960    5.1420    9.3440 C.3   104  ILE104      0.0019
    163  CG2       17.6390    5.8390    8.4890 C.3   104  ILE104      0.0019
    164  CD1       20.2720    3.7590    8.9230 C.3   104  ILE104      0.0001
    165  N         12.6930    6.9070   10.5900 N.3   106  ARG106     -0.1245
    166  CA        11.7360    7.1890    9.5310 C.3   106  ARG106      0.1563
    167  C         10.4760    7.6040   10.2490 C.2   106  ARG106      0.2260
    168  O         10.0570    6.9190   11.1550 O.2   106  ARG106     -0.2867
    169  CB        11.4420    5.9400    8.6750 C.3   106  ARG106      0.0307
    170  CG        12.6500    5.2650    7.9690 C.3   106  ARG106      0.0489
    171  CD        12.2570    3.9350    7.2050 C.3   106  ARG106      0.2205
    172  NE        13.2300    3.5620    6.1980 N.pl3 106  ARG106     -0.0865
    173  CZ        14.4080    3.0540    6.4770 C.cat 106  ARG106      0.5346
    174  NH1       14.7300    2.8370    7.7310 N.pl3 106  ARG106      0.1354
    175  NH2       15.2450    2.7400    5.4940 N.pl3 106  ARG106      0.1354
    176  N         13.1150   10.8080    6.7410 N.3   115  VAL115     -0.1245
    177  CA        14.1930    9.9430    7.1610 C.3   115  VAL115      0.1561
    178  C         15.3010   10.8280    7.6430 C.2   115  VAL115      0.2260
    179  O         15.7850   11.6920    6.9160 O.2   115  VAL115     -0.2867
    180  CB        14.7080    9.1200    5.9350 C.3   115  VAL115      0.0252
    181  CG1       15.8680    8.1850    6.2870 C.3   115  VAL115      0.0019
    182  CG2       13.5620    8.3670    5.3140 C.3   115  VAL115      0.0019
    183  N         19.1020   10.8140    9.2790 N.3   117  CYS117     -0.1235
    184  CA        20.3130    9.9580    9.4040 C.3   117  CYS117      0.1677
    185  C         21.3450   10.6260   10.2720 C.2   117  CYS117      0.2270
    186  O         21.6460   11.7870   10.0890 O.2   117  CYS117     -0.2867
    187  CB        20.9590    9.7360    8.0160 C.3   117  CYS117      0.0956
    188  SG        19.7450    9.5700    6.7220 S.3   117  CYS117     -0.0801
    189  N         16.3520   13.1870    4.5930 N.3   126  ARG126     -0.1245
    190  CA        15.7820   12.9090    3.2900 C.3   126  ARG126      0.1563
    191  C         14.2920   12.7470    3.4230 C.2   126  ARG126      0.2260
    192  O         13.8210   12.1860    4.4090 O.2   126  ARG126     -0.2867
    193  CB        16.3990   11.6760    2.6390 C.3   126  ARG126      0.0307
    194  CG        17.8700   11.8130    2.2910 C.3   126  ARG126      0.0489
    195  CD        18.6700   10.5420    2.5730 C.3   126  ARG126      0.2205
    196  NE        18.5190    9.5070    1.5440 N.pl3 126  ARG126     -0.0865
    197  CZ        18.9510    9.6260    0.2880 C.cat 126  ARG126      0.5346
    198  NH1       19.5340   10.7450   -0.1030 N.pl3 126  ARG126      0.1354
    199  NH2       18.7780    8.6410   -0.5920 N.pl3 126  ARG126      0.1354
    200  N         10.6050   11.5130    1.3760 N.3   128  TYR128     -0.1241
    201  CA        10.0360   10.6700    0.3320 C.3   128  TYR128      0.1605
    202  C          8.5280   10.9350    0.2930 C.2   128  TYR128      0.2264
    203  O          7.8880   11.1300    1.3320 O.2   128  TYR128     -0.2867
    204  CB        10.2160    9.1820    0.6450 C.3   128  TYR128      0.0534
    205  CG        11.5970    8.6040    0.4260 C.ar  128  TYR128     -0.0201
    206  CD1       12.6210    8.8490    1.3190 C.ar  128  TYR128     -0.0009
    207  CD2       11.8580    7.7640   -0.6390 C.ar  128  TYR128     -0.0009
    208  CE1       13.8890    8.2950    1.1270 C.ar  128  TYR128      0.0417
    209  CE2       13.1160    7.2140   -0.8360 C.ar  128  TYR128      0.0417
    210  CZ        14.1300    7.4780    0.0320 C.ar  128  TYR128      0.1957
    211  OH        15.3350    6.8860   -0.2220 O.3   128  TYR128     -0.2866
@<TRIPOS>BOND
     1    90    91    1
     2    86    87    2
     3    86    85    1
     4    91    92    1
     5    91    94    1
     6    93    92    2
     7    92   101   am
     8    85    88    1
     9    85    84    1
    10    94    95    1
    11   101   102    1
    12    88    89    1
    13    59    58    1
    14    59    62    1
    15    59    60    1
    16    96    95   ar
    17    96    98   ar
    18    95    97   ar
    19   102   103    1
    20   102   105    1
    21    60    61    2
    22   103   104    2
    23    98   100   ar
    24   105   106    1
    25    97    99   ar
    26    63    64    1
    27    63    69    1
    28    53    54    1
    29   106   107    1
    30    64    65    1
    31    64    67    1
    32   100    99   ar
    33    65    66    2
    34    46    47    1
    35    54    55    1
    36    54    57    1
    37    69    68    1
    38    47    48    1
    39    47    50    1
    40    55    56    2
    41    49    48    2
    42   107   108    1
    43    67    68    1
    44    51    50    1
    45   108   109    1
    46    81    80    2
    47    80    79    1
    48    50    52    1
    49   110   111    1
    50    70    71    1
    51    79    78    1
    52    79    82    1
    53   111   112    1
    54   111   114    1
    55   127   126    2
    56    83    82    1
    57   113   112    2
    58   116   114    1
    59    71    72    1
    60    71    74    1
    61   209   207   ar
    62   209   210   ar
    63   128   125    1
    64    72    73    2
    65   207   205   ar
    66    31    30    1
    67   199   197    1
    68   114   115    1
    69   126   125    1
    70   126   129   am
    71   125   124    1
    72   211   210    1
    73   198   197    1
    74   210   208   ar
    75   197   196    2
    76   202   201    1
    77   202   203    2
    78    74    75    1
    79   201   204    1
    80   201   200    1
    81    30    29    1
    82   205   204    1
    83   205   206   ar
    84    44    43    1
    85     8    10   ar
    86     8     6   ar
    87   129   130    1
    88    10    11   ar
    89   130   133    1
    90   130   131    1
    91   208   206   ar
    92   124   119   am
    93   120   119    2
    94   133   134    1
    95    41    42    2
    96    41    40    1
    97   131   132    2
    98   196   195    1
    99     5     6    1
   100     5     2    1
   101    75    76    1
   102     6     7   ar
   103   119   118    1
   104    43    40    1
   105    43    45    1
   106    11     9   ar
   107    29    28    1
   108     3     2    1
   109     3     4    2
   110   194   195    1
   111   194   193    1
   112    40    39    1
   113    28    25    1
   114     2     1    1
   115   193   190    1
   116    77    76    1
   117   134   135   ar
   118   134   136   ar
   119     7     9   ar
   120   118   117    1
   121   118   121    1
   122   190   191    1
   123   190   189    1
   124   191   192    2
   125    25    26    1
   126    25    24    1
   127   137   138    1
   128   122   121    1
   129   121   123    1
   130    26    27    2
   131    24    14   am
   132    12    13    1
   133   182   180    1
   134   138   139    1
   135   138   141    1
   136   140   139    2
   137   175   173    1
   138    14    13    1
   139    14    15    2
   140   147   145    1
   141    19    21   ar
   142    19    17   ar
   143   180   181    1
   144   180   177    1
   145   142   141    1
   146   142   143    1
   147   144   145    2
   148   144   143    1
   149    13    16    1
   150    16    17    1
   151   172   173    2
   152   172   171    1
   153    21    22   ar
   154   173   174    1
   155   145   146    1
   156   188   187    1
   157    17    18   ar
   158   176   177    1
   159    37    36    1
   160   179   178    2
   161    36    33    1
   162    36    38    1
   163   177   178    1
   164   171   170    1
   165    34    33    1
   166    34    35    2
   167    32    33    1
   168    22    23    1
   169    22    20   ar
   170   170   169    1
   171   156   154   am
   172   187   184    1
   173    18    20   ar
   174   163   161    1
   175   155   154    2
   176   169   166    1
   177   164   162    1
   178   154   153    1
   179   183   184    1
   180   162   161    1
   181   184   185    1
   182   166   167    1
   183   166   165    1
   184   161   158    1
   185   186   185    2
   186   167   168    2
   187   153   152    1
   188   158   159    1
   189   158   157    1
   190   159   160    2
   191   152   149    1
   192   149   148    1
   193   149   150    1
   194   150   151    2
