@<TRIPOS>MOLECULE
tmp/3fr9A00.pdb
 128 125 0 0 0
SMALL
GASTEIGER

@<TRIPOS>ATOM
      1  N         -6.2740    2.4530   15.2980 N.3     9  TYR9       -0.1227
      2  CA        -6.5770    3.3930   16.3690 C.3     9  TYR9        0.1736
      3  C         -7.8390    2.9320   17.0850 C.2     9  TYR9        0.2595
      4  O         -8.4810    1.9690   16.6660 O.2     9  TYR9       -0.2718
      5  CB        -6.7540    4.8180   15.8180 C.3     9  TYR9        0.0548
      6  CG        -6.7030    5.9050   16.8750 C.ar    9  TYR9       -0.0200
      7  CD1       -7.8340    6.6610   17.1830 C.ar    9  TYR9       -0.0009
      8  CD2       -5.5250    6.1740   17.5680 C.ar    9  TYR9       -0.0009
      9  CE1       -7.7900    7.6550   18.1540 C.ar    9  TYR9        0.0417
     10  CE2       -5.4720    7.1620   18.5400 C.ar    9  TYR9        0.0417
     11  CZ        -6.6050    7.8980   18.8270 C.ar    9  TYR9        0.1957
     12  OH        -6.5510    8.8770   19.7870 O.3     9  TYR9       -0.2866
     13  N         -8.1770    3.6150   18.1740 N.am   10  PHE10      -0.1976
     14  CA        -9.4290    3.3920   18.8780 C.3    10  PHE10       0.1639
     15  C        -10.5950    3.9710   18.0810 C.2    10  PHE10       0.2290
     16  O        -10.3880    4.6900   17.0970 O.2    10  PHE10      -0.2864
     17  CB        -9.3600    4.0100   20.2760 C.3    10  PHE10       0.0560
     18  CG        -8.3550    3.3490   21.1740 C.ar   10  PHE10      -0.0200
     19  CD1       -7.0790    3.8790   21.3210 C.ar   10  PHE10      -0.0042
     20  CD2       -8.6810    2.1840   21.8630 C.ar   10  PHE10      -0.0042
     21  CE1       -6.1450    3.2630   22.1460 C.ar   10  PHE10      -0.0003
     22  CE2       -7.7530    1.5620   22.6880 C.ar   10  PHE10      -0.0003
     23  CZ        -6.4820    2.1030   22.8300 C.ar   10  PHE10      -0.0000
     24  N         -6.0920   11.2320   18.1430 N.3    15  LYS15      -0.1245
     25  CA        -4.7550   11.3090   17.5530 C.3    15  LYS15       0.1561
     26  C         -4.6770   10.8030   16.1090 C.2    15  LYS15       0.2260
     27  O         -3.6480   10.9680   15.4490 O.2    15  LYS15      -0.2867
     28  CB        -3.7400   10.5730   18.4370 C.3    15  LYS15       0.0271
     29  CG        -3.5120   11.2010   19.8160 C.3    15  LYS15       0.0035
     30  CD        -2.5730   12.4000   19.7580 C.3    15  LYS15       0.0206
     31  CE        -2.2390   12.8990   21.1560 C.3    15  LYS15       0.1093
     32  NZ        -1.3090   14.0630   21.1370 N.3    15  LYS15      -0.1314
     33  N         -6.9060   -3.9150   21.8270 N.3    45  PHE45      -0.1241
     34  CA        -5.6640   -3.1440   21.8300 C.3    45  PHE45       0.1605
     35  C         -4.5180   -3.9560   22.4290 C.2    45  PHE45       0.2264
     36  O         -3.3880   -3.9060   21.9350 O.2    45  PHE45      -0.2867
     37  CB        -5.8580   -1.8340   22.6020 C.3    45  PHE45       0.0534
     38  CG        -4.6410   -0.9460   22.6330 C.ar   45  PHE45      -0.0203
     39  CD1       -4.0800   -0.5630   23.8460 C.ar   45  PHE45      -0.0042
     40  CD2       -4.0630   -0.4830   21.4530 C.ar   45  PHE45      -0.0042
     41  CE1       -2.9620    0.2660   23.8840 C.ar   45  PHE45      -0.0003
     42  CE2       -2.9430    0.3410   21.4830 C.ar   45  PHE45      -0.0003
     43  CZ        -2.3920    0.7160   22.7000 C.ar   45  PHE45      -0.0000
     44  N         -1.1370   -5.1300   20.2570 N.3    49  LYS49      -0.1245
     45  CA         0.2510   -4.9070   20.6800 C.3    49  LYS49       0.1561
     46  C          1.1250   -6.1590   20.5860 C.2    49  LYS49       0.2260
     47  O          2.3070   -6.0640   20.2510 O.2    49  LYS49      -0.2867
     48  CB         0.3060   -4.3290   22.0990 C.3    49  LYS49       0.0271
     49  CG        -0.1280   -2.8700   22.1970 C.3    49  LYS49       0.0035
     50  CD         0.0940   -2.3030   23.5940 C.3    49  LYS49       0.0206
     51  CE        -1.0360   -2.6690   24.5440 C.3    49  LYS49       0.1093
     52  NZ        -0.8410   -2.0760   25.8970 N.3    49  LYS49      -0.1314
     53  N          4.2370    1.2380   21.8280 N.3    57  GLU57      -0.1231
     54  CA         2.9820    0.6460   22.3230 C.3    57  GLU57       0.1699
     55  C          1.8200    1.6420   22.3480 C.2    57  GLU57       0.2592
     56  O          0.9670    1.6030   23.2380 O.2    57  GLU57      -0.2718
     57  CB         3.1780   -0.0200   23.6930 C.3    57  GLU57       0.0402
     58  CG         4.1630   -1.1850   23.6800 C.3    57  GLU57       0.1161
     59  CD         4.2380   -1.9150   25.0100 C.2    57  GLU57       0.3649
     60  OE1        4.3170   -1.2500   26.0680 O.co2  57  GLU57      -0.2457
     61  OE2        4.2230   -3.1620   24.9940 O.co2  57  GLU57      -0.2457
     62  N          1.8000    2.5240   21.3520 N.am   58  GLN58      -0.1966
     63  CA         0.7550    3.5300   21.2060 C.3    58  GLN58       0.1733
     64  C          0.1080    3.4420   19.8330 C.2    58  GLN58       0.2616
     65  O          0.6630    2.8550   18.9030 O.2    58  GLN58      -0.2715
     66  CB         1.3310    4.9360   21.3660 C.3    58  GLN58       0.0408
     67  CG         1.8890    5.2730   22.7320 C.3    58  GLN58       0.0908
     68  CD         2.6740    6.5700   22.7230 C.2    58  GLN58       0.2608
     69  OE1        2.6570    7.3220   23.6960 O.2    58  GLN58      -0.2717
     70  NE2        3.3590    6.8440   21.6200 N.am   58  GLN58      -0.0878
     71  N         -1.0740    4.0350   19.7270 N.am   59  VAL59      -0.1964
     72  CA        -1.7160    4.2910   18.4420 C.3    59  VAL59       0.1712
     73  C         -1.9100    5.8150   18.2930 C.2    59  VAL59       0.2458
     74  O         -1.8910    6.5340   19.2930 O.2    59  VAL59      -0.2730
     75  CB        -3.0470    3.4930   18.2710 C.3    59  VAL59       0.0289
     76  CG1       -2.7590    2.0320   17.9520 C.3    59  VAL59       0.0023
     77  CG2       -3.9280    3.6120   19.5010 C.3    59  VAL59       0.0023
     78  N         -2.0950    6.3160   17.0550 N.am   60  PRO60      -0.2727
     79  CA        -2.2800    5.6010   15.7920 C.3    60  PRO60       0.1402
     80  C         -1.0570    4.8280   15.3190 C.2    60  PRO60       0.2269
     81  O          0.0840    5.2030   15.6100 O.2    60  PRO60      -0.2865
     82  CB        -2.6060    6.7190   14.7980 C.3    60  PRO60       0.0296
     83  CG        -1.9690    7.9120   15.3640 C.3    60  PRO60       0.0237
     84  CD        -2.1120    7.7740   16.8490 C.3    60  PRO60       0.0939
     85  N          3.4890    7.3530   15.7470 N.3    71  GLN71      -0.1231
     86  CA         3.5090    8.7860   16.0770 C.3    71  GLN71       0.1698
     87  C          2.7220    9.6340   15.0780 C.2    71  GLN71       0.2593
     88  O          3.1290    9.7910   13.9240 O.2    71  GLN71      -0.2718
     89  CB         4.9440    9.3090   16.2550 C.3    71  GLN71       0.0381
     90  CG         5.7050    8.6850   17.4310 C.3    71  GLN71       0.0905
     91  CD         5.2560    9.2070   18.7890 C.2    71  GLN71       0.2608
     92  OE1        5.5910    8.6350   19.8250 O.2    71  GLN71      -0.2717
     93  NE2        4.5010   10.2990   18.7890 N.am   71  GLN71      -0.0878
     94  N          1.5930   10.1680   15.5480 N.am   72  SER72      -0.1938
     95  CA         0.6840   10.9970   14.7480 C.3    72  SER72       0.2055
     96  C          1.3980   12.0380   13.9050 C.2    72  SER72       0.2642
     97  O          1.2440   12.0670   12.6860 O.2    72  SER72      -0.2714
     98  CB        -0.3070   11.7280   15.6540 C.3    72  SER72       0.2130
     99  OG        -1.2030   10.8320   16.2620 O.3    72  SER72      -0.2179
    100  N          2.1670   12.8920   14.5760 N.am   73  GLN73      -0.1976
    101  CA         2.8350   14.0270   13.9490 C.3    73  GLN73       0.1601
    102  C          3.8000   13.5690   12.8660 C.2    73  GLN73       0.2287
    103  O          3.8230   14.1310   11.7710 O.2    73  GLN73      -0.2864
    104  CB         3.5960   14.8400   14.9950 C.3    73  GLN73       0.0394
    105  CG         2.7790   15.3210   16.1780 C.3    73  GLN73       0.0908
    106  CD         3.6420   16.0360   17.1980 C.2    73  GLN73       0.2608
    107  OE1        4.2560   17.0640   16.8990 O.2    73  GLN73      -0.2717
    108  NE2        3.7050   15.4880   18.4090 N.am   73  GLN73      -0.0878
    109  N         -0.6950   21.6390   18.2190 N.3   104  GLN104     -0.1245
    110  CA        -0.4760   20.5850   19.2160 C.3   104  GLN104      0.1566
    111  C         -0.4970   21.0940   20.6560 C.2   104  GLN104      0.2260
    112  O         -0.9620   20.3940   21.5530 O.2   104  GLN104     -0.2867
    113  CB         0.8290   19.8240   18.9400 C.3   104  GLN104      0.0367
    114  CG         0.8800   19.1100   17.5830 C.3   104  GLN104      0.0905
    115  CD        -0.3410   18.2350   17.3150 C.2   104  GLN104      0.2608
    116  OE1       -1.0830   18.4640   16.3580 O.2   104  GLN104     -0.2717
    117  NE2       -0.5560   17.2330   18.1630 N.am  104  GLN104     -0.0878
    118  N         -9.8910   14.2310   29.5980 N.3   116  PHE116     -0.1241
    119  CA        -9.4100   14.0090   30.9590 C.3   116  PHE116      0.1605
    120  C         -9.7150   15.1940   31.8650 C.2   116  PHE116      0.2264
    121  O        -10.2850   15.0320   32.9440 O.2   116  PHE116     -0.2867
    122  CB        -7.9040   13.7140   30.9480 C.3   116  PHE116      0.0534
    123  CG        -7.4770   12.7830   29.8430 C.ar  116  PHE116     -0.0203
    124  CD1       -6.8070   13.2730   28.7250 C.ar  116  PHE116     -0.0042
    125  CD2       -7.7590   11.4180   29.9120 C.ar  116  PHE116     -0.0042
    126  CE1       -6.4160   12.4220   27.6930 C.ar  116  PHE116     -0.0003
    127  CE2       -7.3730   10.5570   28.8880 C.ar  116  PHE116     -0.0003
    128  CZ        -6.6990   11.0610   27.7740 C.ar  116  PHE116     -0.0000
@<TRIPOS>BOND
     1   103   102    2
     2    97    96    2
     3   102   101    1
     4    96   100   am
     5    96    95    1
     6    88    87    2
     7   101   100    1
     8   101   104    1
     9    95    94    1
    10    95    98    1
    11    82    83    1
    12    82    79    1
    13   104   105    1
    14    87    94   am
    15    87    86    1
    16     1     2    1
    17    80    81    2
    18    80    79    1
    19    83    84    1
    20    27    26    2
    21    98    99    1
    22    85    86    1
    23    79    78    1
    24     5     2    1
    25     5     6    1
    26    86    89    1
    27    26    25    1
    28   105   106    1
    29    89    90    1
    30   116   115    2
    31     2     3    1
    32     4     3    2
    33    84    78    1
    34     6     7   ar
    35     6     8   ar
    36   107   106    2
    37    78    73   am
    38     3    13   am
    39    16    15    2
    40     7     9   ar
    41   106   108   am
    42   115   114    1
    43   115   117   am
    44    90    91    1
    45    25    24    1
    46    25    28    1
    47     8    10   ar
    48   114   113    1
    49    76    75    1
    50    15    14    1
    51     9    11   ar
    52    13    14    1
    53   109   110    1
    54    75    72    1
    55    75    77    1
    56    73    72    1
    57    73    74    2
    58    28    29    1
    59    72    71    1
    60    10    11   ar
    61    91    93   am
    62    91    92    2
    63    11    12    1
    64    14    17    1
    65    65    64    2
    66   113   110    1
    67   110   111    1
    68    71    64   am
    69    30    29    1
    70    30    31    1
    71    64    63    1
    72    47    46    2
    73    44    45    1
    74    17    18    1
    75    46    45    1
    76   111   112    2
    77    45    48    1
    78    32    31    1
    79    18    19   ar
    80    18    20   ar
    81    63    62    1
    82    63    66    1
    83    19    21   ar
    84    62    55   am
    85    66    67    1
    86    40    42   ar
    87    40    38   ar
    88    42    43   ar
    89    70    68   am
    90    33    34    1
    91    53    54    1
    92    34    35    1
    93    34    37    1
    94    20    22   ar
    95    36    35    2
    96    48    49    1
    97    21    23   ar
    98    49    50    1
    99    54    55    1
   100    54    57    1
   101    55    56    2
   102    37    38    1
   103    38    39   ar
   104    22    23   ar
   105    43    41   ar
   106    68    67    1
   107    68    69    2
   108    50    51    1
   109    58    57    1
   110    58    59    1
   111    39    41   ar
   112    51    52    1
   113    61    59   ar
   114    59    60   ar
   115   126   128   ar
   116   126   124   ar
   117   128   127   ar
   118   124   123   ar
   119   127   125   ar
   120   118   119    1
   121   123   125   ar
   122   123   122    1
   123   122   119    1
   124   119   120    1
   125   120   121    2
