@<TRIPOS>MOLECULE
tmp/3frbA01.pdb
 137 130 0 0 0
SMALL
GASTEIGER

@<TRIPOS>ATOM
      1  N         22.9570   10.3690   35.6260 N.3     5  LEU5       -0.1231
      2  CA        23.8950    9.5180   36.3310 C.3     5  LEU5        0.1693
      3  C         23.8910    9.8870   37.8120 C.2     5  LEU5        0.2592
      4  O         24.3190   10.9790   38.1880 O.2     5  LEU5       -0.2718
      5  CB        25.2990    9.7010   35.7520 C.3     5  LEU5        0.0284
      6  CG        26.4450    8.8240   36.2570 C.3     5  LEU5        0.0019
      7  CD1       26.1630    7.3380   36.0940 C.3     5  LEU5        0.0001
      8  CD2       27.7440    9.1950   35.5200 C.3     5  LEU5        0.0001
      9  N         23.4080    8.9750   38.6500 N.am    6  VAL6       -0.1966
     10  CA        23.1550    9.2860   40.0590 C.3     6  VAL6        0.1727
     11  C         23.3270    8.0340   40.9420 C.2     6  VAL6        0.2616
     12  O         23.0410    6.8990   40.5210 O.2     6  VAL6       -0.2715
     13  CB        21.7270    9.9190   40.2570 C.3     6  VAL6        0.0290
     14  CG1       20.6130    8.9150   39.9300 C.3     6  VAL6        0.0023
     15  CG2       21.5370   10.4380   41.6730 C.3     6  VAL6        0.0023
     16  N         23.8170    8.2480   42.1630 N.am    7  ALA7       -0.1977
     17  CA        23.7170    7.2640   43.2280 C.3     7  ALA7        0.1597
     18  C         22.8130    7.7940   44.3320 C.2     7  ALA7        0.2287
     19  O         22.8970    8.9570   44.7410 O.2     7  ALA7       -0.2864
     20  CB        25.1040    6.9280   43.7780 C.3     7  ALA7        0.0319
     21  N         27.6100   18.6440   51.2460 N.3    18  ASN18      -0.1225
     22  CA        28.3540   18.8150   50.0030 C.3    18  ASN18       0.1785
     23  C         29.3090   17.6720   49.6990 C.2    18  ASN18       0.2597
     24  O         30.2500   17.8360   48.9350 O.2    18  ASN18      -0.2718
     25  CB        29.0820   20.1680   49.9680 C.3    18  ASN18       0.1169
     26  CG        28.1430   21.3210   49.6880 C.2    18  ASN18       0.2627
     27  OD1       27.0620   21.1380   49.1280 O.2    18  ASN18      -0.2716
     28  ND2       28.5430   22.5160   50.0800 N.am   18  ASN18      -0.0877
     29  N         29.0350   16.5070   50.2660 N.am   19  GLN19      -0.1965
     30  CA        29.7820   15.3020   49.9350 C.3    19  GLN19       0.1733
     31  C         28.8470   14.1150   49.7570 C.2    19  GLN19       0.2616
     32  O         27.6650   14.2010   50.0790 O.2    19  GLN19      -0.2715
     33  CB        30.8230   15.0020   51.0170 C.3    19  GLN19       0.0408
     34  CG        31.7830   16.1610   51.2670 C.3    19  GLN19       0.0908
     35  CD        32.7430   16.3980   50.1130 C.2    19  GLN19       0.2608
     36  OE1       32.9580   17.5430   49.6820 O.2    19  GLN19      -0.2717
     37  NE2       33.3350   15.3200   49.6120 N.am   19  GLN19      -0.0878
     38  N         29.3770   13.0110   49.2330 N.am   20  LEU20      -0.1977
     39  CA        28.6450   11.7440   49.2190 C.3    20  LEU20       0.1596
     40  C         28.5930   11.1950   50.6330 C.2    20  LEU20       0.2287
     41  O         29.6010   11.2180   51.3230 O.2    20  LEU20      -0.2864
     42  CB        29.3490   10.7410   48.2910 C.3    20  LEU20       0.0297
     43  CG        29.4200   11.1180   46.8120 C.3    20  LEU20       0.0022
     44  CD1       30.3610   10.1850   46.0230 C.3    20  LEU20       0.0001
     45  CD2       28.0140   11.0640   46.2410 C.3    20  LEU20       0.0001
     46  N         31.1940    2.4150   43.0180 N.3    27  ASP27      -0.1225
     47  CA        30.2720    3.2910   42.3170 C.3    27  ASP27       0.1805
     48  C         31.0690    4.3030   41.4990 C.2    27  ASP27       0.2597
     49  O         30.6750    4.6820   40.3950 O.2    27  ASP27      -0.2718
     50  CB        29.3110    4.0000   43.2780 C.3    27  ASP27       0.1424
     51  CG        28.5410    5.1060   42.6040 C.2    27  ASP27       0.3668
     52  OD1       28.7870    6.2810   42.9430 O.co2  27  ASP27      -0.2456
     53  OD2       27.6880    4.9040   41.7100 O.co2  27  ASP27      -0.2456
     54  N         32.2040    4.7340   42.0310 N.am   28  LEU28      -0.1979
     55  CA        32.9880    5.7450   41.3430 C.3    28  LEU28       0.1596
     56  C         33.6960    5.1620   40.1080 C.2    28  LEU28       0.2287
     57  O         33.8140    5.8260   39.0820 O.2    28  LEU28      -0.2864
     58  CB        33.9810    6.3930   42.3050 C.3    28  LEU28       0.0297
     59  CG        33.3450    7.3500   43.3300 C.3    28  LEU28       0.0022
     60  CD1       34.4650    7.9440   44.1910 C.3    28  LEU28       0.0001
     61  CD2       32.4940    8.4440   42.6750 C.3    28  LEU28       0.0001
     62  N         32.2820    2.6730   38.4650 N.3    30  HIS30      -0.1226
     63  CA        31.1000    2.6440   37.6120 C.3    30  HIS30       0.1752
     64  C         30.9480    3.9720   36.8730 C.2    30  HIS30       0.2595
     65  O         30.6760    4.0080   35.6770 O.2    30  HIS30      -0.2718
     66  CB        29.8520    2.3630   38.4520 C.3    30  HIS30       0.0759
     67  CG        28.6020    2.2160   37.6440 C.ar   30  HIS30       0.0818
     68  ND1       27.8270    3.2940   37.2850 N.ar   30  HIS30      -0.2268
     69  CD2       27.9950    1.1240   37.1200 C.ar   30  HIS30       0.1154
     70  CE1       26.7900    2.8760   36.5810 C.ar   30  HIS30       0.1986
     71  NE2       26.8700    1.5640   36.4640 N.ar   30  HIS30      -0.2212
     72  N         31.1380    5.0660   37.5980 N.am   31  VAL31      -0.1980
     73  CA        30.9830    6.3980   37.0270 C.3    31  VAL31       0.1595
     74  C         32.0540    6.6570   35.9760 C.2    31  VAL31       0.2287
     75  O         31.7650    7.1610   34.8910 O.2    31  VAL31      -0.2864
     76  CB        31.0880    7.4640   38.1170 C.3    31  VAL31       0.0276
     77  CG1       31.5750    8.7910   37.5350 C.3    31  VAL31       0.0022
     78  CG2       29.7340    7.6660   38.7860 C.3    31  VAL31       0.0022
     79  N         28.1770   20.8830   43.1530 N.3    46  THR46      -0.1218
     80  CA        28.7030   19.5550   42.8980 C.3    46  THR46       0.1862
     81  C         30.1400   19.6910   42.3930 C.2    46  THR46       0.2287
     82  O         31.0430   18.9970   42.8420 O.2    46  THR46      -0.2866
     83  CB        27.8400   18.7890   41.8740 C.3    46  THR46       0.1770
     84  OG1       26.6200   18.3410   42.4830 O.3    46  THR46      -0.2211
     85  CG2       28.5310   17.5100   41.4670 C.3    46  THR46       0.0375
     86  N         32.4810   20.6060   45.1890 N.3    49  SER49      -0.1202
     87  CA        32.7350   19.4480   46.0180 C.3    49  SER49       0.2020
     88  C         33.8370   18.6140   45.4050 C.2    49  SER49       0.2618
     89  O         34.7220   18.1140   46.1140 O.2    49  SER49      -0.2717
     90  CB        31.4790   18.6020   46.1800 C.3    49  SER49       0.2103
     91  OG        31.8010   17.4190   46.8880 O.3    49  SER49      -0.2182
     92  N         33.7830   18.4490   44.0850 N.am   50  ILE50      -0.1979
     93  CA        34.7340   17.5740   43.4110 C.3    50  ILE50       0.1595
     94  C         36.0540   18.2810   43.1890 C.2    50  ILE50       0.2287
     95  O         37.0700   17.6320   43.0240 O.2    50  ILE50      -0.2864
     96  CB        34.2140   17.0790   42.0530 C.3    50  ILE50       0.0276
     97  CG1       33.1750   15.9770   42.2340 C.3    50  ILE50       0.0022
     98  CG2       35.3510   16.5210   41.2450 C.3    50  ILE50       0.0022
     99  CD1       32.3040   15.7900   41.0240 C.3    50  ILE50       0.0001
    100  N         36.7150   15.9800   36.1050 N.3    54  LEU54      -0.1245
    101  CA        37.1400   14.6140   35.8630 C.3    54  LEU54       0.1561
    102  C         38.0060   14.5770   34.6230 C.2    54  LEU54       0.2260
    103  O         37.5900   15.0700   33.5830 O.2    54  LEU54      -0.2867
    104  CB        35.9280   13.7090   35.6290 C.3    54  LEU54       0.0270
    105  CG        34.7410   13.9000   36.5610 C.3    54  LEU54       0.0019
    106  CD1       33.6970   12.8160   36.3600 C.3    54  LEU54       0.0001
    107  CD2       35.2260   13.9230   37.9800 C.3    54  LEU54       0.0001
    108  N         24.9510   15.0890   36.0090 N.3    92  PHE92      -0.1241
    109  CA        25.8860   14.5590   36.9860 C.3    92  PHE92       0.1605
    110  C         25.4900   14.9360   38.4280 C.2    92  PHE92       0.2264
    111  O         26.1390   14.5150   39.3840 O.2    92  PHE92      -0.2867
    112  CB        27.2910   15.0670   36.6510 C.3    92  PHE92       0.0534
    113  CG        28.3910   14.1930   37.1330 C.ar   92  PHE92      -0.0203
    114  CD1       29.4750   14.7300   37.8070 C.ar   92  PHE92      -0.0042
    115  CD2       28.3550   12.8460   36.8960 C.ar   92  PHE92      -0.0042
    116  CE1       30.5010   13.9180   38.2430 C.ar   92  PHE92      -0.0003
    117  CE2       29.3710   12.0390   37.3260 C.ar   92  PHE92      -0.0003
    118  CZ        30.4460   12.5750   38.0010 C.ar   92  PHE92      -0.0000
    119  N         18.9040   17.4270   38.8900 N.3    98  TYR98      -0.1241
    120  CA        18.0740   16.2490   38.7130 C.3    98  TYR98       0.1605
    121  C         16.6190   16.6830   38.6110 C.2    98  TYR98       0.2264
    122  O         15.8770   16.1810   37.7670 O.2    98  TYR98      -0.2867
    123  CB        18.2970   15.2380   39.8470 C.3    98  TYR98       0.0534
    124  CG        19.6920   14.5980   39.8740 C.ar   98  TYR98      -0.0201
    125  CD1       20.3020   14.1280   38.7110 C.ar   98  TYR98      -0.0009
    126  CD2       20.3810   14.4580   41.0640 C.ar   98  TYR98      -0.0009
    127  CE1       21.5680   13.5390   38.7430 C.ar   98  TYR98       0.0417
    128  CE2       21.6360   13.9000   41.1130 C.ar   98  TYR98       0.0417
    129  CZ        22.2260   13.4220   39.9500 C.ar   98  TYR98       0.1957
    130  OH        23.4650   12.8510   40.0300 O.3    98  TYR98      -0.2866
    131  N         22.7530    4.0710   40.6210 N.3   111  THR111     -0.1218
    132  CA        23.1800    3.1370   41.6500 C.3   111  THR111      0.1862
    133  C         22.2160    3.2300   42.8430 C.2   111  THR111      0.2287
    134  O         22.1520    4.2670   43.5070 O.2   111  THR111     -0.2866
    135  CB        24.6400    3.4530   42.0570 C.3   111  THR111      0.1770
    136  OG1       25.4740    3.5620   40.8880 O.3   111  THR111     -0.2211
    137  CG2       25.2890    2.2990   42.8480 C.3   111  THR111      0.0375
@<TRIPOS>BOND
     1   103   102    2
     2   102   101    1
     3    75    74    2
     4     8     6    1
     5     1     2    1
     6   104   101    1
     7   104   105    1
     8    65    64    2
     9     5     6    1
    10     5     2    1
    11   101   100    1
    12    74    73    1
    13   108   109    1
    14     7     6    1
    15     2     3    1
    16   106   105    1
    17    71    70   ar
    18    71    69   ar
    19   105   107    1
    20    70    68   ar
    21   112   109    1
    22   112   113    1
    23    64    72   am
    24    64    63    1
    25   115   113   ar
    26   115   117   ar
    27   109   110    1
    28    73    72    1
    29    73    76    1
    30    69    67   ar
    31   113   114   ar
    32    68    67   ar
    33   117   118   ar
    34    77    76    1
    35    63    66    1
    36    63    62    1
    37    67    66    1
    38   122   121    2
    39   114   116   ar
    40     3     4    2
    41     3     9   am
    42   118   116   ar
    43    76    78    1
    44   110   111    2
    45   121   120    1
    46     9    10    1
    47   125   127   ar
    48   125   124   ar
    49   120   119    1
    50   120   123    1
    51   127   129   ar
    52    57    56    2
    53   123   124    1
    54   124   126   ar
    55    14    13    1
    56   129   130    1
    57   129   128   ar
    58    10    13    1
    59    10    11    1
    60    56    55    1
    61    13    15    1
    62    49    48    2
    63    12    11    2
    64   131   132    1
    65   136   135    1
    66    11    16   am
    67    99    97    1
    68   126   128   ar
    69    98    96    1
    70    55    54    1
    71    55    58    1
    72    85    83    1
    73    48    54   am
    74    48    47    1
    75   132   135    1
    76   132   133    1
    77    53    51   ar
    78    83    84    1
    79    83    80    1
    80    96    97    1
    81    96    93    1
    82   135   137    1
    83    16    17    1
    84    58    59    1
    85    47    46    1
    86    47    50    1
    87    81    82    2
    88    81    80    1
    89    51    52   ar
    90    51    50    1
    91    61    59    1
    92   133   134    2
    93    80    79    1
    94    95    94    2
    95    94    93    1
    96    17    20    1
    97    17    18    1
    98    59    60    1
    99    93    92    1
   100    92    88   am
   101    18    19    2
   102    86    87    1
   103    88    87    1
   104    88    89    2
   105    87    90    1
   106    44    43    1
   107    90    91    1
   108    45    43    1
   109    43    42    1
   110    42    39    1
   111    24    23    2
   112    27    26    2
   113    39    38    1
   114    39    40    1
   115    38    31   am
   116    37    35   am
   117    36    35    2
   118    26    25    1
   119    26    28   am
   120    23    22    1
   121    23    29   am
   122    31    30    1
   123    31    32    2
   124    30    29    1
   125    30    33    1
   126    25    22    1
   127    22    21    1
   128    35    34    1
   129    40    41    2
   130    33    34    1
