@<TRIPOS>MOLECULE
tmp/3frdA01.pdb
 176 171 0 0 0
SMALL
GASTEIGER

@<TRIPOS>ATOM
      1  N         22.7430   10.2660   35.5570 N.3     5  LEU5       -0.1231
      2  CA        23.6690    9.4090   36.2610 C.3     5  LEU5        0.1693
      3  C         23.6460    9.8020   37.7330 C.2     5  LEU5        0.2592
      4  O         23.9510   10.9510   38.0570 O.2     5  LEU5       -0.2718
      5  CB        25.0680    9.6190   35.6910 C.3     5  LEU5        0.0284
      6  CG        26.1830    8.7050   36.1770 C.3     5  LEU5        0.0019
      7  CD1       25.7340    7.2540   36.1700 C.3     5  LEU5        0.0001
      8  CD2       27.4570    8.9020   35.3200 C.3     5  LEU5        0.0001
      9  N         23.2870    8.8610   38.6140 N.am    6  VAL6       -0.1966
     10  CA        23.1130    9.1430   40.0540 C.3     6  VAL6        0.1727
     11  C         23.2880    7.8600   40.9080 C.2     6  VAL6        0.2616
     12  O         22.9700    6.7460   40.4780 O.2     6  VAL6       -0.2715
     13  CB        21.7280    9.8190   40.3630 C.3     6  VAL6        0.0290
     14  CG1       20.5740    8.8700   40.0790 C.3     6  VAL6        0.0023
     15  CG2       21.6520   10.3280   41.8220 C.3     6  VAL6        0.0023
     16  N         23.8300    8.0380   42.1000 N.am    7  ALA7       -0.1977
     17  CA        23.6970    7.0790   43.1750 C.3     7  ALA7        0.1597
     18  C         22.7720    7.6630   44.2460 C.2     7  ALA7        0.2287
     19  O         22.9580    8.8080   44.6830 O.2     7  ALA7       -0.2864
     20  CB        25.0550    6.7690   43.7660 C.3     7  ALA7        0.0319
     21  N         29.2200   13.0180   49.1610 N.3    20  LEU20      -0.1245
     22  CA        28.5450   11.7220   49.2080 C.3    20  LEU20       0.1561
     23  C         28.6690   11.1400   50.5910 C.2    20  LEU20       0.2260
     24  O         29.7450   11.1570   51.1500 O.2    20  LEU20      -0.2867
     25  CB        29.1900   10.7490   48.2100 C.3    20  LEU20       0.0270
     26  CG        29.1170   11.1730   46.7420 C.3    20  LEU20       0.0019
     27  CD1       30.0710   10.3090   45.8760 C.3    20  LEU20       0.0001
     28  CD2       27.6870   11.0810   46.2440 C.3    20  LEU20       0.0001
     29  N         28.4330    7.9960   51.4610 N.3    22  TRP22      -0.1241
     30  CA        29.0000    6.6500   51.4710 C.3    22  TRP22       0.1605
     31  C         30.3500    6.6800   50.7740 C.2    22  TRP22       0.2264
     32  O         30.6210    7.5750   49.9840 O.2    22  TRP22      -0.2867
     33  CB        28.0770    5.6750   50.7530 C.3    22  TRP22       0.0550
     34  CG        27.5310    6.2400   49.4920 C.ar   22  TRP22       0.0003
     35  CD1       28.1600    6.2950   48.2720 C.ar   22  TRP22       0.0946
     36  CD2       26.2580    6.8620   49.3150 C.ar   22  TRP22       0.0152
     37  NE1       27.3550    6.9200   47.3530 N.ar   22  TRP22      -0.2442
     38  CE2       26.1770    7.2690   47.9650 C.ar   22  TRP22       0.0810
     39  CE3       25.1740    7.1110   50.1610 C.ar   22  TRP22       0.0012
     40  CZ2       25.0530    7.9040   47.4510 C.ar   22  TRP22       0.0191
     41  CZ3       24.0620    7.7240   49.6450 C.ar   22  TRP22       0.0001
     42  CH2       24.0120    8.1320   48.3140 C.ar   22  TRP22       0.0015
     43  N         34.0380    2.6960   46.0980 N.3    25  PRO25      -0.2116
     44  CA        34.9580    2.8610   44.9750 C.3    25  PRO25       0.1372
     45  C         34.3390    2.3380   43.6890 C.2    25  PRO25       0.2244
     46  O         34.3930    3.0020   42.6550 O.2    25  PRO25      -0.2868
     47  CB        36.1580    2.0030   45.3770 C.3    25  PRO25       0.0268
     48  CG        36.1320    2.0070   46.8790 C.3    25  PRO25       0.0207
     49  CD        34.6670    2.0080   47.2380 C.3    25  PRO25       0.0892
     50  N         31.3880    2.2060   42.5420 N.3    27  ASP27      -0.1225
     51  CA        30.3960    3.0340   41.8690 C.3    27  ASP27       0.1805
     52  C         31.0580    4.2210   41.1840 C.2    27  ASP27       0.2598
     53  O         30.5560    4.7360   40.1950 O.2    27  ASP27      -0.2718
     54  CB        29.3210    3.5230   42.8500 C.3    27  ASP27       0.1424
     55  CG        28.2600    4.3900   42.1750 C.2    27  ASP27       0.3668
     56  OD1       27.9340    5.4650   42.7240 O.co2  27  ASP27      -0.2456
     57  OD2       27.7480    4.0020   41.1000 O.co2  27  ASP27      -0.2456
     58  N         32.1870    4.6670   41.7150 N.am   28  LEU28      -0.1966
     59  CA        32.9470    5.7150   41.0470 C.3    28  LEU28       0.1728
     60  C         33.6680    5.1480   39.8140 C.2    28  LEU28       0.2616
     61  O         33.7600    5.7980   38.7740 O.2    28  LEU28      -0.2715
     62  CB        33.9370    6.3480   42.0240 C.3    28  LEU28       0.0311
     63  CG        33.2880    6.9590   43.2760 C.3    28  LEU28       0.0022
     64  CD1       34.2600    6.9510   44.4510 C.3    28  LEU28       0.0001
     65  CD2       32.7750    8.3620   42.9880 C.3    28  LEU28       0.0001
     66  N         34.1570    3.9200   39.9360 N.am   29  LYS29      -0.1963
     67  CA        34.5530    3.1220   38.7730 C.3    29  LYS29       0.1728
     68  C         33.4080    3.0050   37.7690 C.2    29  LYS29       0.2616
     69  O         33.6180    3.0790   36.5620 O.2    29  LYS29      -0.2715
     70  CB        34.9930    1.7340   39.2330 C.3    29  LYS29       0.0311
     71  CG        35.5700    0.8460   38.1470 C.3    29  LYS29       0.0038
     72  CD        36.3570   -0.3130   38.7610 C.3    29  LYS29       0.0206
     73  CE        37.6300   -0.6180   37.9610 C.3    29  LYS29       0.1093
     74  NZ        38.7810   -1.0300   38.8480 N.3    29  LYS29      -0.1314
     75  N         32.1920    2.8310   38.2760 N.am   30  HIS30      -0.1959
     76  CA        31.0110    2.7030   37.4240 C.3    30  HIS30       0.1787
     77  C         30.7800    3.9990   36.6630 C.2    30  HIS30       0.2620
     78  O         30.4930    3.9940   35.4700 O.2    30  HIS30      -0.2715
     79  CB        29.7940    2.3690   38.2850 C.3    30  HIS30       0.0785
     80  CG        28.5260    2.1850   37.5130 C.ar   30  HIS30       0.0821
     81  ND1       27.4640    3.0580   37.6110 N.ar   30  HIS30      -0.2267
     82  CD2       28.1350    1.2110   36.6560 C.ar   30  HIS30       0.1154
     83  CE1       26.4790    2.6390   36.8350 C.ar   30  HIS30       0.1986
     84  NE2       26.8610    1.5210   36.2430 N.ar   30  HIS30      -0.2212
     85  N         30.9030    5.1150   37.3660 N.am   31  VAL31      -0.1963
     86  CA        30.7120    6.4250   36.7590 C.3    31  VAL31       0.1727
     87  C         31.7880    6.6450   35.6960 C.2    31  VAL31       0.2616
     88  O         31.5060    7.1000   34.5950 O.2    31  VAL31      -0.2715
     89  CB        30.8090    7.5430   37.8260 C.3    31  VAL31       0.0290
     90  CG1       30.8510    8.9210   37.1660 C.3    31  VAL31       0.0023
     91  CG2       29.6400    7.4370   38.8380 C.3    31  VAL31       0.0023
     92  N         33.0240    6.3130   36.0540 N.am   32  LYS32      -0.1977
     93  CA        34.1630    6.4220   35.1480 C.3    32  LYS32       0.1596
     94  C         33.8950    5.6720   33.8490 C.2    32  LYS32       0.2287
     95  O         34.0710    6.2140   32.7650 O.2    32  LYS32      -0.2864
     96  CB        35.4100    5.8680   35.8340 C.3    32  LYS32       0.0298
     97  CG        36.7190    6.2150   35.1360 C.3    32  LYS32       0.0038
     98  CD        37.8680    5.4240   35.7230 C.3    32  LYS32       0.0206
     99  CE        39.1930    6.1440   35.5360 C.3    32  LYS32       0.1093
    100  NZ        40.3330    5.1970   35.6960 N.3    32  LYS32      -0.1314
    101  N         27.9750   20.7930   43.0060 N.3    46  THR46      -0.1218
    102  CA        28.5560   19.5060   42.6730 C.3    46  THR46       0.1862
    103  C         29.9860   19.6350   42.1220 C.2    46  THR46       0.2287
    104  O         30.8840   18.9120   42.5450 O.2    46  THR46      -0.2866
    105  CB        27.6820   18.7490   41.6550 C.3    46  THR46       0.1770
    106  OG1       26.4620   18.3440   42.2880 O.3    46  THR46      -0.2211
    107  CG2       28.4220   17.5250   41.1300 C.3    46  THR46       0.0375
    108  N         32.2490   20.4140   44.8310 N.3    49  SER49      -0.1202
    109  CA        32.4380   19.2660   45.6730 C.3    49  SER49       0.2020
    110  C         33.5010   18.3710   45.0650 C.2    49  SER49       0.2618
    111  O         34.3710   17.8660   45.7760 O.2    49  SER49      -0.2717
    112  CB        31.1260   18.5020   45.8240 C.3    49  SER49       0.2103
    113  OG        31.3590   17.2410   46.4240 O.3    49  SER49      -0.2182
    114  N         33.4290   18.1700   43.7500 N.am   50  ILE50      -0.1979
    115  CA        34.4570   17.4060   43.0360 C.3    50  ILE50       0.1595
    116  C         35.7600   18.1860   43.0070 C.2    50  ILE50       0.2287
    117  O         36.8250   17.6340   43.2640 O.2    50  ILE50      -0.2864
    118  CB        34.0590   17.1000   41.5840 C.3    50  ILE50       0.0276
    119  CG1       32.7020   16.4050   41.5290 C.3    50  ILE50       0.0022
    120  CG2       35.0910   16.2100   40.9390 C.3    50  ILE50       0.0022
    121  CD1       32.2590   16.0810   40.1220 C.3    50  ILE50       0.0001
    122  N         36.7500   16.1210   35.8030 N.3    54  LEU54      -0.1231
    123  CA        36.9910   14.6960   35.7910 C.3    54  LEU54       0.1678
    124  C         37.7160   14.3300   34.5030 C.2    54  LEU54       0.2434
    125  O         37.2740   14.6800   33.4040 O.2    54  LEU54      -0.2733
    126  CB        35.6830   13.9130   35.9450 C.3    54  LEU54       0.0284
    127  CG        35.0870   13.9470   37.3620 C.3    54  LEU54       0.0019
    128  CD1       33.8660   13.0440   37.4460 C.3    54  LEU54       0.0001
    129  CD2       36.1270   13.5470   38.4030 C.3    54  LEU54       0.0001
    130  N         38.8590   13.6490   34.6520 N.am   55  PRO55      -0.2729
    131  CA        39.7950   13.3770   33.5720 C.3    55  PRO55       0.1401
    132  C         39.1250   12.6160   32.4480 C.2    55  PRO55       0.2269
    133  O         38.4400   11.6230   32.6950 O.2    55  PRO55      -0.2865
    134  CB        40.8640   12.5110   34.2430 C.3    55  PRO55       0.0296
    135  CG        40.7700   12.8430   35.7030 C.3    55  PRO55       0.0237
    136  CD        39.3180   13.1010   35.9420 C.3    55  PRO55       0.0939
    137  N         37.0030   13.3500   29.8810 N.3    57  ARG57      -0.1245
    138  CA        35.6520   13.5780   29.3770 C.3    57  ARG57       0.1563
    139  C         35.3690   15.0730   29.4360 C.2    57  ARG57       0.2260
    140  O         36.1140   15.8160   30.0810 O.2    57  ARG57      -0.2867
    141  CB        34.6230   12.8010   30.2140 C.3    57  ARG57       0.0307
    142  CG        34.3110   13.4190   31.5760 C.3    57  ARG57       0.0489
    143  CD        34.0520   12.3510   32.6250 C.3    57  ARG57       0.2205
    144  NE        35.2770   11.6760   33.0430 N.pl3  57  ARG57      -0.0865
    145  CZ        35.3500   10.7920   34.0330 C.cat  57  ARG57       0.5346
    146  NH1       34.2690   10.4570   34.7170 N.pl3  57  ARG57       0.1354
    147  NH2       36.5090   10.2400   34.3440 N.pl3  57  ARG57       0.1354
    148  N         24.4430   14.9460   35.9400 N.3    92  PHE92      -0.1241
    149  CA        25.3380   14.3610   36.9120 C.3    92  PHE92       0.1605
    150  C         25.0210   14.8560   38.3330 C.2    92  PHE92       0.2264
    151  O         25.6540   14.4340   39.3110 O.2    92  PHE92      -0.2867
    152  CB        26.7620   14.7340   36.5340 C.3    92  PHE92       0.0534
    153  CG        27.8100   13.9080   37.2020 C.ar   92  PHE92      -0.0203
    154  CD1       28.8840   14.5190   37.8250 C.ar   92  PHE92      -0.0042
    155  CD2       27.7420   12.5230   37.1830 C.ar   92  PHE92      -0.0042
    156  CE1       29.8880   13.7640   38.4250 C.ar   92  PHE92      -0.0003
    157  CE2       28.7270   11.7550   37.7890 C.ar   92  PHE92      -0.0003
    158  CZ        29.8140   12.3800   38.4110 C.ar   92  PHE92      -0.0000
    159  N         18.8000   17.3550   38.8110 N.3    98  PHE98      -0.1241
    160  CA        17.9580   16.1480   38.7510 C.3    98  PHE98       0.1605
    161  C         16.4850   16.5000   38.6890 C.2    98  PHE98       0.2264
    162  O         15.7320   15.9450   37.8740 O.2    98  PHE98      -0.2867
    163  CB        18.2420   15.2210   39.9400 C.3    98  PHE98       0.0534
    164  CG        19.5850   14.5620   39.8760 C.ar   98  PHE98      -0.0203
    165  CD1       20.3280   14.3570   41.0140 C.ar   98  PHE98      -0.0042
    166  CD2       20.1060   14.1500   38.6680 C.ar   98  PHE98      -0.0042
    167  CE1       21.5620   13.7730   40.9510 C.ar   98  PHE98      -0.0003
    168  CE2       21.3350   13.5530   38.6000 C.ar   98  PHE98      -0.0003
    169  CZ        22.0660   13.3610   39.7330 C.ar   98  PHE98      -0.0000
    170  N         22.5530    4.0360   40.6060 N.3   111  THR111     -0.1218
    171  CA        23.0530    3.1000   41.5860 C.3   111  THR111      0.1862
    172  C         22.2110    3.2610   42.8440 C.2   111  THR111      0.2287
    173  O         22.2190    4.3210   43.4750 O.2   111  THR111     -0.2866
    174  CB        24.5330    3.3430   41.9040 C.3   111  THR111      0.1770
    175  OG1       25.2800    3.3810   40.6770 O.3   111  THR111     -0.2211
    176  CG2       25.0700    2.2300   42.7880 C.3   111  THR111      0.0375
@<TRIPOS>BOND
     1   138   139    1
     2   138   137    1
     3   138   141    1
     4   139   140    2
     5   141   142    1
     6   142   143    1
     7   132   133    2
     8   132   131    1
     9   143   144    1
    10    95    94    2
    11   144   145    2
    12   125   124    2
    13   131   134    1
    14   131   130    1
    15    94    93    1
    16   145   147    1
    17   145   146    1
    18   134   135    1
    19   124   130   am
    20   124   123    1
    21    88    87    2
    22   130   136    1
    23    97    98    1
    24    97    96    1
    25    93    96    1
    26    93    92    1
    27     8     6    1
    28    78    77    2
    29    99   100    1
    30    99    98    1
    31     1     2    1
    32     5     6    1
    33     5     2    1
    34    87    92   am
    35    87    86    1
    36   135   136    1
    37   123   122    1
    38   123   126    1
    39   148   149    1
    40   126   127    1
    41     7     6    1
    42    84    82   ar
    43    84    83   ar
    44     2     3    1
    45   152   149    1
    46   152   153    1
    47    69    68    2
    48    82    80   ar
    49    77    85   am
    50    77    76    1
    51    86    85    1
    52    86    89    1
    53    83    81   ar
    54   149   150    1
    55    90    89    1
    56   155   153   ar
    57   155   157   ar
    58   153   154   ar
    59   127   128    1
    60   127   129    1
    61    76    75    1
    62    76    79    1
    63    80    81   ar
    64    80    79    1
    65     3     4    2
    66     3     9   am
    67    68    75   am
    68    68    67    1
    69   157   158   ar
    70   154   156   ar
    71    89    91    1
    72   162   161    2
    73    73    72    1
    74    73    74    1
    75    71    72    1
    76    71    70    1
    77   150   151    2
    78   158   156   ar
    79   168   166   ar
    80   168   169   ar
    81     9    10    1
    82   166   164   ar
    83   161   160    1
    84   160   159    1
    85   160   163    1
    86    67    70    1
    87    67    66    1
    88    61    60    2
    89   169   167   ar
    90    60    66   am
    91    60    59    1
    92   164   163    1
    93   164   165   ar
    94    10    13    1
    95    10    11    1
    96    14    13    1
    97   121   119    1
    98    53    52    2
    99    13    15    1
   100    12    11    2
   101   170   171    1
   102   175   174    1
   103    11    16   am
   104   120   118    1
   105   167   165   ar
   106    59    58    1
   107    59    62    1
   108    57    55   ar
   109   107   105    1
   110    52    58   am
   111    52    51    1
   112   119   118    1
   113   118   115    1
   114   171   174    1
   115   171   172    1
   116   105   106    1
   117   105   102    1
   118    51    50    1
   119    51    54    1
   120   174   176    1
   121    62    63    1
   122    16    17    1
   123   103   104    2
   124   103   102    1
   125    55    56   ar
   126    55    54    1
   127    46    45    2
   128   102   101    1
   129   172   173    2
   130    65    63    1
   131   116   115    1
   132   116   117    2
   133   115   114    1
   134    17    20    1
   135    17    18    1
   136    63    64    1
   137    45    44    1
   138   114   110   am
   139    18    19    2
   140   108   109    1
   141    44    47    1
   142    44    43    1
   143   110   109    1
   144   110   111    2
   145    47    48    1
   146   109   112    1
   147   112   113    1
   148    27    26    1
   149    43    49    1
   150    28    26    1
   151    26    25    1
   152    48    49    1
   153    37    38   ar
   154    37    35   ar
   155    40    38   ar
   156    40    42   ar
   157    38    36   ar
   158    25    22    1
   159    35    34   ar
   160    42    41   ar
   161    21    22    1
   162    22    23    1
   163    36    34   ar
   164    36    39   ar
   165    34    33    1
   166    41    39   ar
   167    32    31    2
   168    23    24    2
   169    33    30    1
   170    31    30    1
   171    29    30    1
