@<TRIPOS>MOLECULE
tmp/3frgA00.pdb
 200 195 0 0 0
SMALL
GASTEIGER

@<TRIPOS>ATOM
      1  N         44.2890   36.2700   62.5380 N.3    81  TYR81      -0.1227
      2  CA        43.9990   37.4060   61.6810 C.3    81  TYR81       0.1736
      3  C         44.7220   37.3550   60.3030 C.2    81  TYR81       0.2595
      4  O         44.0770   37.4940   59.2440 O.2    81  TYR81      -0.2718
      5  CB        44.3310   38.7420   62.4030 C.3    81  TYR81       0.0548
      6  CG        44.0910   39.9900   61.5620 C.ar   81  TYR81      -0.0200
      7  CD1       42.8400   40.6130   61.5690 C.ar   81  TYR81      -0.0009
      8  CD2       45.0960   40.5390   60.7690 C.ar   81  TYR81      -0.0009
      9  CE1       42.6040   41.7560   60.8230 C.ar   81  TYR81       0.0417
     10  CE2       44.8770   41.7030   59.9720 C.ar   81  TYR81       0.0417
     11  CZ        43.5910   42.2980   60.0310 C.ar   81  TYR81       0.1957
     12  OH        43.3740   43.4310   59.2940 O.3    81  TYR81      -0.2866
     13  N         46.0480   37.2260   60.3490 N.am   82  HIS82      -0.1975
     14  CA        46.9020   37.1870   59.1780 C.3    82  HIS82       0.1656
     15  C         46.7730   35.8820   58.3800 C.2    82  HIS82       0.2291
     16  O         47.7470   35.2000   58.1270 O.2    82  HIS82      -0.2864
     17  CB        48.3610   37.5190   59.5010 C.3    82  HIS82       0.0771
     18  CG        48.5270   38.9410   59.9420 C.ar   82  HIS82       0.0820
     19  ND1       48.7540   39.2830   61.2620 N.ar   82  HIS82      -0.2267
     20  CD2       48.4020   40.1030   59.2660 C.ar   82  HIS82       0.1154
     21  CE1       48.8320   40.5980   61.3600 C.ar   82  HIS82       0.1986
     22  NE2       48.5860   41.1190   60.1790 N.ar   82  HIS82      -0.2212
     23  N         42.0710   37.7090   55.4650 N.3    86  HIS86      -0.1241
     24  CA        42.6580   39.0530   55.4490 C.3    86  HIS86       0.1621
     25  C         43.2130   39.4540   54.0980 C.2    86  HIS86       0.2264
     26  O         42.9380   40.5440   53.5920 O.2    86  HIS86      -0.2867
     27  CB        43.7240   39.2020   56.5800 C.3    86  HIS86       0.0745
     28  CG        44.5140   40.4720   56.4690 C.ar   86  HIS86       0.0817
     29  ND1       43.9450   41.7150   56.6640 N.ar   86  HIS86      -0.2268
     30  CD2       45.8170   40.6960   56.1580 C.ar   86  HIS86       0.1154
     31  CE1       44.8660   42.6490   56.4990 C.ar   86  HIS86       0.1986
     32  NE2       46.0260   42.0620   56.2270 N.ar   86  HIS86      -0.2212
     33  N         52.4740   34.3090   56.8610 N.3   126  HIS126     -0.1241
     34  CA        52.6610   35.0520   58.1020 C.3   126  HIS126      0.1621
     35  C         52.5240   34.0580   59.2960 C.2   126  HIS126      0.2264
     36  O         51.5640   33.3180   59.3560 O.2   126  HIS126     -0.2867
     37  CB        51.5670   36.0870   58.1570 C.3   126  HIS126      0.0745
     38  CG        51.8370   37.1890   59.1430 C.ar  126  HIS126      0.0817
     39  ND1       52.0710   36.9560   60.4820 N.ar  126  HIS126     -0.2268
     40  CD2       51.9610   38.5310   58.9530 C.ar  126  HIS126      0.1154
     41  CE1       52.2570   38.1150   61.0950 C.ar  126  HIS126      0.1986
     42  NE2       52.2460   39.0860   60.1840 N.ar  126  HIS126     -0.2212
     43  N         53.9260   48.0060   53.4260 N.3   193  THR193     -0.1218
     44  CA        52.9210   47.5870   54.3920 C.3   193  THR193      0.1862
     45  C         53.5210   47.3370   55.8060 C.2   193  THR193      0.2287
     46  O         52.7940   47.0250   56.7590 O.2   193  THR193     -0.2866
     47  CB        52.1420   46.2990   53.9220 C.3   193  THR193      0.1770
     48  OG1       53.0590   45.2060   53.8110 O.3   193  THR193     -0.2211
     49  CG2       51.5310   46.5280   52.5260 C.3   193  THR193      0.0375
     50  N         54.4940   48.3320   59.2170 N.3   195  MET195     -0.1245
     51  CA        53.9960   49.4650   60.0740 C.3   195  MET195      0.1570
     52  C         55.1510   50.3670   60.5360 C.2   195  MET195      0.2261
     53  O         54.9730   51.5770   60.7180 O.2   195  MET195     -0.2867
     54  CB        53.1920   49.0000   61.2870 C.3   195  MET195      0.0387
     55  CG        51.6770   48.7530   61.0920 C.3   195  MET195      0.0595
     56  SD        50.8080   49.9670   60.0640 S.3   195  MET195     -0.1393
     57  CE        51.1230   51.4250   61.0500 C.3   195  MET195      0.0692
     58  N         48.4040   50.2530   51.3490 N.3   237  HIS237     -0.1241
     59  CA        48.5160   50.5370   52.7860 C.3   237  HIS237      0.1621
     60  C         47.1510   50.8610   53.3990 C.2   237  HIS237      0.2264
     61  O         46.7640   50.2970   54.4400 O.2   237  HIS237     -0.2867
     62  CB        49.5590   51.6440   53.0250 C.3   237  HIS237      0.0745
     63  CG        49.8190   51.9590   54.4640 C.ar  237  HIS237      0.0817
     64  ND1       50.0060   50.9940   55.4310 N.ar  237  HIS237     -0.2268
     65  CD2       49.9060   53.1520   55.1040 C.ar  237  HIS237      0.1154
     66  CE1       50.2140   51.5750   56.6010 C.ar  237  HIS237      0.1986
     67  NE2       50.1460   52.8840   56.4310 N.ar  237  HIS237     -0.2212
     68  N         45.0550   47.7120   53.5100 N.3   240  ASP240     -0.1225
     69  CA        45.5860   46.9010   54.5920 C.3   240  ASP240      0.1805
     70  C         45.0020   47.3870   55.9180 C.2   240  ASP240      0.2597
     71  O         44.6550   46.5960   56.7470 O.2   240  ASP240     -0.2718
     72  CB        47.1290   46.9860   54.6030 C.3   240  ASP240      0.1424
     73  CG        47.8000   45.8790   55.4110 C.2   240  ASP240      0.3668
     74  OD1       47.1460   44.8740   55.7190 O.co2 240  ASP240     -0.2456
     75  OD2       49.0200   45.9880   55.7220 O.co2 240  ASP240     -0.2456
     76  N         44.8670   48.7060   56.0650 N.am  241  LEU241     -0.1979
     77  CA        44.3750   49.3450   57.2770 C.3   241  LEU241      0.1596
     78  C         42.9180   49.8100   57.1220 C.2   241  LEU241      0.2287
     79  O         42.5220   50.8470   57.6550 O.2   241  LEU241     -0.2864
     80  CB        45.2980   50.5370   57.5970 C.3   241  LEU241      0.0297
     81  CG        46.7090   50.1210   57.9820 C.3   241  LEU241      0.0022
     82  CD1       47.4740   51.3650   58.3210 C.3   241  LEU241      0.0001
     83  CD2       46.6540   49.1830   59.1400 C.3   241  LEU241      0.0001
     84  N         39.9680   47.9420   57.9690 N.3   243  ASN243     -0.1226
     85  CA        38.9750   47.2800   58.8360 C.3   243  ASN243      0.1770
     86  C         38.0730   48.2810   59.5740 C.2   243  ASN243      0.2439
     87  O         36.8620   48.0970   59.6300 O.2   243  ASN243     -0.2733
     88  CB        39.5770   46.3560   59.8950 C.3   243  ASN243      0.1168
     89  CG        40.2750   45.0960   59.3180 C.2   243  ASN243      0.2627
     90  OD1       40.9850   44.4430   60.0650 O.2   243  ASN243     -0.2716
     91  ND2       40.0940   44.7760   58.0100 N.am  243  ASN243     -0.0877
     92  N         38.6970   49.3080   60.1860 N.am  244  PRO244     -0.2729
     93  CA        37.8950   50.2530   60.9690 C.3   244  PRO244      0.1401
     94  C         36.9930   51.1490   60.1110 C.2   244  PRO244      0.2269
     95  O         36.1170   51.8310   60.6980 O.2   244  PRO244     -0.2865
     96  CB        38.9470   51.1210   61.6750 C.3   244  PRO244      0.0296
     97  CG        40.1960   50.2810   61.7450 C.3   244  PRO244      0.0237
     98  CD        40.1430   49.4260   60.4680 C.3   244  PRO244      0.0939
     99  N         33.7820   45.2740   61.0490 N.3   251  TYR251     -0.1241
    100  CA        34.9250   45.7060   61.9030 C.3   251  TYR251      0.1605
    101  C         35.0270   44.9270   63.2040 C.2   251  TYR251      0.2264
    102  O         36.1240   44.5410   63.6330 O.2   251  TYR251     -0.2867
    103  CB        34.7510   47.1920   62.1970 C.3   251  TYR251      0.0534
    104  CG        35.8430   47.8520   63.0110 C.ar  251  TYR251     -0.0201
    105  CD1       37.1690   47.4060   62.9720 C.ar  251  TYR251     -0.0009
    106  CD2       35.5500   49.0010   63.7560 C.ar  251  TYR251     -0.0009
    107  CE1       38.1680   48.0410   63.7020 C.ar  251  TYR251      0.0417
    108  CE2       36.5330   49.6300   64.5060 C.ar  251  TYR251      0.0417
    109  CZ        37.8320   49.1500   64.4720 C.ar  251  TYR251      0.1957
    110  OH        38.7990   49.8150   65.2180 O.3   251  TYR251     -0.2866
    111  N         36.6920   41.6180   62.6050 N.3   254  TRP254     -0.1227
    112  CA        38.1380   41.7990   62.4300 C.3   254  TRP254      0.1737
    113  C         38.8200   42.0050   63.8090 C.2   254  TRP254      0.2596
    114  O         39.8430   41.4100   64.1170 O.2   254  TRP254     -0.2718
    115  CB        38.4530   42.9600   61.5110 C.3   254  TRP254      0.0564
    116  CG        38.0100   42.7260   60.0920 C.ar  254  TRP254      0.0003
    117  CD1       37.1520   43.4670   59.3720 C.ar  254  TRP254      0.0946
    118  CD2       38.4900   41.6790   59.2220 C.ar  254  TRP254      0.0152
    119  NE1       37.0010   42.9140   58.0990 N.ar  254  TRP254     -0.2442
    120  CE2       37.8180   41.8220   57.9910 C.ar  254  TRP254      0.0810
    121  CE3       39.3790   40.6180   59.3880 C.ar  254  TRP254      0.0012
    122  CZ2       38.0360   40.9530   56.8960 C.ar  254  TRP254      0.0191
    123  CZ3       39.6020   39.7360   58.2770 C.ar  254  TRP254      0.0001
    124  CH2       38.9080   39.9260   57.0660 C.ar  254  TRP254      0.0015
    125  N         38.2100   42.8300   64.6600 N.am  255  THR255     -0.1953
    126  CA        38.8200   43.0460   65.9860 C.3   255  THR255      0.1897
    127  C         38.9690   41.7780   66.7750 C.2   255  THR255      0.2313
    128  O         40.0380   41.5350   67.3930 O.2   255  THR255     -0.2863
    129  CB        37.9780   44.1200   66.7550 C.3   255  THR255      0.1794
    130  OG1       38.0280   45.2930   65.9680 O.3   255  THR255     -0.2208
    131  CG2       38.6540   44.3890   68.0920 C.3   255  THR255      0.0378
    132  N         42.2080   40.0660   65.3090 N.3   258  ILE258     -0.1231
    133  CA        43.5050   40.6820   65.5900 C.3   258  ILE258      0.1692
    134  C         43.8270   40.5800   67.0840 C.2   258  ILE258      0.2591
    135  O         45.0020   40.3430   67.4680 O.2   258  ILE258     -0.2718
    136  CB        43.6370   42.0760   65.0170 C.3   258  ILE258      0.0266
    137  CG1       45.1050   42.5360   65.0100 C.3   258  ILE258      0.0019
    138  CG2       42.6990   43.0390   65.7260 C.3   258  ILE258      0.0020
    139  CD1       46.1000   41.6290   64.2760 C.3   258  ILE258      0.0001
    140  N         42.7950   40.6790   67.9340 N.am  259  MET259     -0.1979
    141  CA        43.0660   40.5100   69.3790 C.3   259  MET259      0.1605
    142  C         43.4540   39.0920   69.7400 C.2   259  MET259      0.2287
    143  O         44.3320   38.8810   70.5980 O.2   259  MET259     -0.2864
    144  CB        41.8680   41.0150   70.2440 C.3   259  MET259      0.0413
    145  CG        41.5320   42.4440   69.9900 C.3   259  MET259      0.0598
    146  SD        42.7720   43.5080   70.7490 S.3   259  MET259     -0.1393
    147  CE        43.3570   44.4440   69.3930 C.3   259  MET259      0.0692
    148  N         47.0770   38.8950   68.6640 N.3   262  PHE262     -0.1241
    149  CA        47.9690   39.6570   69.5650 C.3   262  PHE262      0.1605
    150  C         48.1240   38.9120   70.8730 C.2   262  PHE262      0.2264
    151  O         49.2500   38.6920   71.3850 O.2   262  PHE262     -0.2867
    152  CB        47.3770   41.0300   69.8680 C.3   262  PHE262      0.0534
    153  CG        47.5760   42.0450   68.7840 C.ar  262  PHE262     -0.0203
    154  CD1       48.3230   41.7620   67.6560 C.ar  262  PHE262     -0.0042
    155  CD2       47.0280   43.3130   68.9110 C.ar  262  PHE262     -0.0042
    156  CE1       48.5250   42.7180   66.6560 C.ar  262  PHE262     -0.0003
    157  CE2       47.1970   44.2850   67.9140 C.ar  262  PHE262     -0.0003
    158  CZ        47.9720   43.9970   66.7900 C.ar  262  PHE262     -0.0000
    159  N         50.4510   45.7980   74.1730 N.3   279  MET279     -0.1245
    160  CA        49.2360   45.5910   73.3590 C.3   279  MET279      0.1570
    161  C         48.9160   44.0970   73.1890 C.2   279  MET279      0.2261
    162  O         47.8260   43.7410   72.7180 O.2   279  MET279     -0.2867
    163  CB        49.3580   46.2100   71.9680 C.3   279  MET279      0.0387
    164  CG        49.4920   47.7360   71.8690 C.3   279  MET279      0.0595
    165  SD        49.8720   48.2080   70.1500 S.3   279  MET279     -0.1393
    166  CE        50.3210   49.9380   70.2650 C.3   279  MET279      0.0692
    167  N         42.4200   49.7500   72.6530 N.3   290  SER290     -0.1202
    168  CA        43.3220   49.4790   71.5430 C.3   290  SER290      0.2020
    169  C         42.7600   50.0030   70.2080 C.2   290  SER290      0.2618
    170  O         43.4850   50.5660   69.4230 O.2   290  SER290     -0.2717
    171  CB        43.7170   48.0100   71.5000 C.3   290  SER290      0.2103
    172  OG        42.7440   47.2750   70.7960 O.3   290  SER290     -0.2182
    173  N         41.4490   49.8710   69.9710 N.am  291  GLN291     -0.1979
    174  CA        40.8560   50.3610   68.7250 C.3   291  GLN291      0.1601
    175  C         40.7150   51.8880   68.6670 C.2   291  GLN291      0.2287
    176  O         41.0230   52.5330   67.6580 O.2   291  GLN291     -0.2864
    177  CB        39.5200   49.6440   68.4630 C.3   291  GLN291      0.0394
    178  CG        39.6720   48.1230   68.3440 C.3   291  GLN291      0.0908
    179  CD        40.7940   47.7830   67.3650 C.2   291  GLN291      0.2608
    180  OE1       40.7060   48.1070   66.1770 O.2   291  GLN291     -0.2717
    181  NE2       41.9030   47.2580   67.8910 N.am  291  GLN291     -0.0878
    182  N         44.3340   52.9750   67.9970 N.3   294  PHE294     -0.1241
    183  CA        44.6400   52.6480   66.6070 C.3   294  PHE294      0.1605
    184  C         43.9680   53.6150   65.6470 C.2   294  PHE294      0.2264
    185  O         44.5950   54.1040   64.7120 O.2   294  PHE294     -0.2867
    186  CB        44.1890   51.1990   66.3700 C.3   294  PHE294      0.0534
    187  CG        44.5070   50.6470   64.9970 C.ar  294  PHE294     -0.0203
    188  CD1       45.8020   50.6530   64.5000 C.ar  294  PHE294     -0.0042
    189  CD2       43.4830   50.1010   64.2100 C.ar  294  PHE294     -0.0042
    190  CE1       46.0620   50.1400   63.2380 C.ar  294  PHE294     -0.0003
    191  CE2       43.7490   49.5780   62.9550 C.ar  294  PHE294     -0.0003
    192  CZ        45.0330   49.6100   62.4830 C.ar  294  PHE294     -0.0000
    193  N         46.5760   56.1550   64.1380 N.3   298  ILE298     -0.1245
    194  CA        47.0420   55.5720   62.8840 C.3   298  ILE298      0.1561
    195  C         45.9980   55.6380   61.7550 C.2   298  ILE298      0.2260
    196  O         46.2530   56.2210   60.7160 O.2   298  ILE298     -0.2867
    197  CB        47.4710   54.0930   63.1050 C.3   298  ILE298      0.0252
    198  CG1       48.6580   54.0220   64.0860 C.3   298  ILE298      0.0019
    199  CG2       47.8250   53.4340   61.7710 C.3   298  ILE298      0.0019
    200  CD1       49.9160   54.7420   63.5930 C.3   298  ILE298      0.0001
@<TRIPOS>BOND
     1    58    59    1
     2    49    47    1
     3    59    62    1
     4    59    60    1
     5    62    63    1
     6    60    61    2
     7    43    44    1
     8    68    69    1
     9    26    25    2
    10    48    47    1
    11    47    44    1
    12    25    24    1
    13    44    45    1
    14    63    65   ar
    15    63    64   ar
    16    69    72    1
    17    69    70    1
    18    72    73    1
    19    65    67   ar
    20    73    74   ar
    21    73    75   ar
    22    64    66   ar
    23    24    23    1
    24    24    27    1
    25    45    46    2
    26    70    76   am
    27    70    71    2
    28    76    77    1
    29    30    32   ar
    30    30    28   ar
    31    32    31   ar
    32    67    66   ar
    33    28    27    1
    34    28    29   ar
    35    31    29   ar
    36    33    34    1
    37   122   124   ar
    38   122   120   ar
    39   124   123   ar
    40    78    77    1
    41    78    79    2
    42    77    80    1
    43    80    81    1
    44    84    85    1
    45    81    82    1
    46    81    83    1
    47   120   119   ar
    48   120   118   ar
    49    91    89   am
    50   119   117   ar
    51    34    37    1
    52    34    35    1
    53    16    15    2
    54    37    38    1
    55   123   121   ar
    56    15    14    1
    57    85    86    1
    58    85    88    1
    59    40    38   ar
    60    40    42   ar
    61    38    39   ar
    62    14    17    1
    63    14    13    1
    64    50    51    1
    65   118   121   ar
    66   118   116   ar
    67     4     3    2
    68    20    18   ar
    69    20    22   ar
    70    12    11    1
    71    35    36    2
    72    89    88    1
    73    89    90    2
    74   117   116   ar
    75    17    18    1
    76    86    87    2
    77    86    92   am
    78    18    19   ar
    79    10    11   ar
    80    10     8   ar
    81    11     9   ar
    82    56    57    1
    83    56    55    1
    84    51    52    1
    85    51    54    1
    86   116   115    1
    87    94    95    2
    88    94    93    1
    89    22    21   ar
    90    42    41   ar
    91    92    98    1
    92    92    93    1
    93     3    13   am
    94     3     2    1
    95    98    97    1
    96    39    41   ar
    97    52    53    2
    98   196   195    2
    99     8     6   ar
   100     9     7   ar
   101    93    96    1
   102    99   100    1
   103    55    54    1
   104    19    21   ar
   105   115   112    1
   106     6     7   ar
   107     6     5    1
   108    96    97    1
   109     2     5    1
   110     2     1    1
   111   195   194    1
   112   199   197    1
   113   100   103    1
   114   100   101    1
   115   103   104    1
   116   112   111    1
   117   112   113    1
   118   192   191   ar
   119   192   190   ar
   120   194   197    1
   121   194   193    1
   122   191   189   ar
   123   105   104   ar
   124   105   107   ar
   125   104   106   ar
   126   197   198    1
   127   101   102    2
   128   190   188   ar
   129   200   198    1
   130   107   109   ar
   131   106   108   ar
   132   113   114    2
   133   113   125   am
   134   189   187   ar
   135   139   137    1
   136   109   108   ar
   137   109   110    1
   138   188   187   ar
   139   125   126    1
   140   185   184    2
   141   187   186    1
   142   137   136    1
   143   136   133    1
   144   136   138    1
   145   132   133    1
   146   133   134    1
   147   184   183    1
   148   130   129    1
   149   126   129    1
   150   126   127    1
   151   180   179    2
   152   186   183    1
   153   183   182    1
   154   156   158   ar
   155   156   154   ar
   156   129   131    1
   157   127   128    2
   158   158   157   ar
   159   134   135    2
   160   134   140   am
   161   179   181   am
   162   179   178    1
   163   154   153   ar
   164   176   175    2
   165   157   155   ar
   166   140   141    1
   167   178   177    1
   168   177   174    1
   169   148   149    1
   170   175   174    1
   171   174   173    1
   172   153   155   ar
   173   153   152    1
   174   141   142    1
   175   141   144    1
   176   147   146    1
   177   170   169    2
   178   149   152    1
   179   149   150    1
   180   142   143    2
   181   173   169   am
   182   145   144    1
   183   145   146    1
   184   165   166    1
   185   165   164    1
   186   169   168    1
   187   172   171    1
   188   150   151    2
   189   171   168    1
   190   168   167    1
   191   164   163    1
   192   163   160    1
   193   162   161    2
   194   161   160    1
   195   160   159    1
