@<TRIPOS>MOLECULE
tmp/3frhA00.pdb
 235 225 0 0 0
SMALL
GASTEIGER

@<TRIPOS>ATOM
      1  N        -19.5450   11.3060   10.6720 N.3    28  ARG28      -0.1245
      2  CA       -20.6850   10.5930   10.0960 C.3    28  ARG28       0.1563
      3  C        -20.9320    9.2810   10.8230 C.2    28  ARG28       0.2260
      4  O        -22.0560    8.9780   11.2320 O.2    28  ARG28      -0.2867
      5  CB       -20.4610   10.3340    8.5970 C.3    28  ARG28       0.0307
      6  CG       -21.5410    9.4820    7.9610 C.3    28  ARG28       0.0489
      7  CD       -21.3880    9.3320    6.4590 C.3    28  ARG28       0.2205
      8  NE       -20.1440    8.7040    6.0190 N.pl3  28  ARG28      -0.0865
      9  CZ       -19.9220    7.3940    5.9480 C.cat  28  ARG28       0.5346
     10  NH1      -20.8500    6.5270    6.3380 N.pl3  28  ARG28       0.1354
     11  NH2      -18.7460    6.9540    5.5060 N.pl3  28  ARG28       0.1354
     12  N        -13.6330    0.5550    7.2430 N.3    54  ILE54      -0.1231
     13  CA       -13.5540    1.5610    6.1960 C.3    54  ILE54       0.1692
     14  C        -12.1010    1.8030    5.7760 C.2    54  ILE54       0.2592
     15  O        -11.7940    1.8860    4.5860 O.2    54  ILE54      -0.2718
     16  CB       -14.2650    2.8610    6.6420 C.3    54  ILE54       0.0266
     17  CG1      -15.7780    2.6250    6.7130 C.3    54  ILE54       0.0019
     18  CG2      -13.9320    4.0120    5.7160 C.3    54  ILE54       0.0020
     19  CD1      -16.5230    3.6910    7.4560 C.3    54  ILE54       0.0001
     20  N        -11.2080    1.9140    6.7540 N.am   55  CYS55      -0.1970
     21  CA        -9.7900    2.0290    6.4470 C.3    55  CYS55       0.1712
     22  C         -9.3060    0.7640    5.7670 C.2    55  CYS55       0.2296
     23  O         -8.5150    0.8120    4.8240 O.2    55  CYS55      -0.2864
     24  CB        -9.0010    2.2730    7.7200 C.3    55  CYS55       0.0983
     25  SG        -9.2130    3.9280    8.3090 S.3    55  CYS55      -0.0798
     26  N         -6.0660   -1.6910    2.7690 N.3    58  TYR58      -0.1241
     27  CA        -5.5110   -1.2440    1.4940 C.3    58  TYR58       0.1605
     28  C         -4.0520   -0.8130    1.5700 C.2    58  TYR58       0.2264
     29  O         -3.2630   -1.1330    0.6670 O.2    58  TYR58      -0.2867
     30  CB        -6.3270   -0.0930    0.9020 C.3    58  TYR58       0.0534
     31  CG        -7.8230   -0.2930    0.9010 C.ar   58  TYR58      -0.0201
     32  CD1       -8.6240    0.4410    1.7630 C.ar   58  TYR58      -0.0009
     33  CD2       -8.4350   -1.2030    0.0490 C.ar   58  TYR58      -0.0009
     34  CE1       -9.9870    0.3000    1.7770 C.ar   58  TYR58       0.0417
     35  CE2       -9.8160   -1.3660    0.0670 C.ar   58  TYR58       0.0417
     36  CZ       -10.5740   -0.6050    0.9310 C.ar   58  TYR58       0.1957
     37  OH       -11.9390   -0.7540    0.9440 O.3    58  TYR58      -0.2866
     38  N         -0.8450   -0.2860   -3.0660 N.3    83  HIS83      -0.1241
     39  CA        -2.2350   -0.1840   -2.6180 C.3    83  HIS83       0.1621
     40  C         -2.8850   -1.4890   -3.0320 C.2    83  HIS83       0.2264
     41  O         -2.7450   -1.8960   -4.1960 O.2    83  HIS83      -0.2867
     42  CB        -2.9470    0.9850   -3.2880 C.3    83  HIS83       0.0745
     43  CG        -4.3210    1.2370   -2.7640 C.ar   83  HIS83       0.0817
     44  ND1       -5.4040    0.4270   -3.0600 N.ar   83  HIS83      -0.2268
     45  CD2       -4.7890    2.2230   -1.9600 C.ar   83  HIS83       0.1154
     46  CE1       -6.4760    0.9150   -2.4600 C.ar   83  HIS83       0.1986
     47  NE2       -6.1300    2.0020   -1.7810 N.ar   83  HIS83      -0.2212
     48  N         -5.7800   -2.4630   -3.9290 N.3    85  SER85      -0.1202
     49  CA        -6.7080   -2.4760   -5.0660 C.3    85  SER85       0.2020
     50  C         -5.9980   -2.3210   -6.4140 C.2    85  SER85       0.2619
     51  O         -6.3660   -2.9760   -7.3810 O.2    85  SER85      -0.2717
     52  CB        -7.7650   -1.3840   -4.9180 C.3    85  SER85       0.2103
     53  OG        -8.5180   -1.3040   -6.1080 O.3    85  SER85      -0.2182
     54  N         -5.0010   -1.4460   -6.4750 N.am   86  THR86      -0.1952
     55  CA        -4.2000   -1.3120   -7.6870 C.3    86  THR86       0.1897
     56  C         -3.2810   -2.5030   -7.8940 C.2    86  THR86       0.2313
     57  O         -3.0140   -2.8830   -9.0410 O.2    86  THR86      -0.2863
     58  CB        -3.4310    0.0260   -7.7590 C.3    86  THR86       0.1794
     59  OG1       -2.8610    0.3520   -6.4870 O.3    86  THR86      -0.2208
     60  CG2       -4.3600    1.1070   -8.0790 C.3    86  THR86       0.0378
     61  N         -5.0280   -4.9960   -9.7960 N.3    89  ARG89      -0.1245
     62  CA        -5.2360   -4.5140  -11.1720 C.3    89  ARG89       0.1563
     63  C         -3.9780   -4.6340  -12.0390 C.2    89  ARG89       0.2260
     64  O         -4.0570   -4.5580  -13.2610 O.2    89  ARG89      -0.2867
     65  CB        -5.7380   -3.0410  -11.1450 C.3    89  ARG89       0.0307
     66  CG        -6.1670   -2.4730  -12.4850 C.3    89  ARG89       0.0489
     67  CD        -6.8870   -1.1900  -12.2390 C.3    89  ARG89       0.2205
     68  NE        -8.0810   -1.4170  -11.4180 N.pl3  89  ARG89      -0.0865
     69  CZ        -8.3110   -0.8540  -10.2320 C.cat  89  ARG89       0.5346
     70  NH1       -7.4440    0.0140   -9.7200 N.pl3  89  ARG89       0.1354
     71  NH2       -9.4140   -1.1570   -9.5640 N.pl3  89  ARG89       0.1354
     72  N        -11.8790   10.4560  -10.4850 N.3   111  ASP111     -0.1225
     73  CA       -11.5950    9.1220   -9.9510 C.3   111  ASP111      0.1805
     74  C        -12.1850    9.1000   -8.5450 C.2   111  ASP111      0.2598
     75  O        -11.6410    9.7150   -7.6200 O.2   111  ASP111     -0.2718
     76  CB       -10.0840    8.8630   -9.9690 C.3   111  ASP111      0.1424
     77  CG        -9.7270    7.4060   -9.7660 C.2   111  ASP111      0.3668
     78  OD1      -10.6300    6.5820   -9.4670 O.co2 111  ASP111     -0.2456
     79  OD2       -8.5260    7.0910   -9.9100 O.co2 111  ASP111     -0.2456
     80  N        -13.3350    8.4410   -8.4130 N.am  112  ILE112     -0.1966
     81  CA       -14.1310    8.5410   -7.1920 C.3   112  ILE112      0.1727
     82  C        -13.7210    7.4410   -6.2200 C.2   112  ILE112      0.2616
     83  O        -13.7960    6.2660   -6.5630 O.2   112  ILE112     -0.2715
     84  CB       -15.6490    8.4430   -7.5100 C.3   112  ILE112      0.0290
     85  CG1      -16.0440    9.3820   -8.6600 C.3   112  ILE112      0.0022
     86  CG2      -16.4650    8.6850   -6.2500 C.3   112  ILE112      0.0023
     87  CD1      -15.6830   10.8290   -8.4230 C.3   112  ILE112      0.0001
     88  N        -13.2820    7.8160   -5.0090 N.am  113  ALA113     -0.1963
     89  CA       -12.6560    6.8640   -4.0590 C.3   113  ALA113      0.1728
     90  C        -11.4000    6.2980   -4.7220 C.2   113  ALA113      0.2616
     91  O        -11.2640    5.0940   -4.9410 O.2   113  ALA113     -0.2715
     92  CB       -13.6250    5.7660   -3.6250 C.3   113  ALA113      0.0334
     93  N        -10.4770    7.2010   -5.0380 N.am  114  CYS114     -0.1954
     94  CA        -9.4360    6.9230   -6.0230 C.3   114  CYS114      0.1843
     95  C         -8.3480    5.9520   -5.6020 C.2   114  CYS114      0.2626
     96  O         -7.6520    5.4280   -6.4680 O.2   114  CYS114     -0.2714
     97  CB        -8.8050    8.2500   -6.4850 C.3   114  CYS114      0.0997
     98  SG        -7.9710    9.2050   -5.1870 S.3   114  CYS114     -0.0797
     99  N         -8.1200    5.7770   -4.3010 N.am  115  GLY115     -0.1954
    100  CA        -6.9710    4.9840   -3.9120 C.3   115  GLY115      0.1869
    101  C         -5.6920    5.5680   -4.5010 C.2   115  GLY115      0.2309
    102  O         -5.4950    6.7800   -4.5080 O.2   115  GLY115     -0.2863
    103  N         -5.0220    4.7000   -7.7000 N.3   117  ASN117     -0.1240
    104  CA        -5.2680    4.5370   -9.1170 C.3   117  ASN117      0.1653
    105  C         -4.8820    5.7480   -9.9830 C.2   117  ASN117      0.2266
    106  O         -4.5290    5.5540  -11.1370 O.2   117  ASN117     -0.2867
    107  CB        -6.7150    4.1230   -9.3470 C.3   117  ASN117      0.1155
    108  CG        -7.0210    3.9160  -10.8140 C.2   117  ASN117      0.2627
    109  OD1       -6.5930    2.9260  -11.4170 O.2   117  ASN117     -0.2716
    110  ND2       -7.7520    4.8480  -11.3960 N.am  117  ASN117     -0.0877
    111  N        -10.9580   11.8110   -5.3570 N.3   132  CYS132     -0.1221
    112  CA       -11.3670   12.0000   -3.9830 C.3   132  CYS132      0.1808
    113  C        -11.2840   10.6930   -3.2210 C.2   132  CYS132      0.2601
    114  O        -11.4920    9.6230   -3.7820 O.2   132  CYS132     -0.2717
    115  CB       -12.7740   12.6040   -3.8720 C.3   132  CYS132      0.0970
    116  SG       -14.1400   11.5780   -4.4830 S.3   132  CYS132     -0.0800
    117  N        -10.9890   10.7960   -1.9290 N.am  133  ASP133     -0.1959
    118  CA       -10.9800    9.6360   -1.0600 C.3   133  ASP133      0.1840
    119  C        -11.0230   10.1370    0.3770 C.2   133  ASP133      0.2622
    120  O        -11.0340   11.3430    0.6290 O.2   133  ASP133     -0.2715
    121  CB        -9.7450    8.7540   -1.3440 C.3   133  ASP133      0.1450
    122  CG        -9.9740    7.2850   -1.0260 C.2   133  ASP133      0.3671
    123  OD1      -10.2210    6.9670    0.1720 O.co2 133  ASP133     -0.2456
    124  OD2       -9.8880    6.4480   -1.9580 O.co2 133  ASP133     -0.2456
    125  N        -11.0450    9.2090    1.3290 N.am  134  ILE134     -0.1963
    126  CA       -11.1630    9.5400    2.7380 C.3   134  ILE134      0.1727
    127  C         -9.8750    9.3040    3.5240 C.2   134  ILE134      0.2616
    128  O         -9.8560    9.5010    4.7340 O.2   134  ILE134     -0.2715
    129  CB       -12.3490    8.7890    3.3910 C.3   134  ILE134      0.0290
    130  CG1      -12.2540    7.2850    3.1360 C.3   134  ILE134      0.0022
    131  CG2      -13.6720    9.3480    2.8780 C.3   134  ILE134      0.0023
    132  CD1      -13.2030    6.5090    3.9250 C.3   134  ILE134      0.0001
    133  N         -8.8040    8.8930    2.8490 N.am  135  HIS135     -0.1973
    134  CA        -7.5110    8.6800    3.5000 C.3   135  HIS135      0.1656
    135  C         -6.5370    9.6970    2.9380 C.2   135  HIS135      0.2291
    136  O         -6.1620    9.6260    1.7560 O.2   135  HIS135     -0.2864
    137  CB        -7.0390    7.2670    3.2100 C.3   135  HIS135      0.0771
    138  CG        -5.8410    6.8430    3.9990 C.ar  135  HIS135      0.0820
    139  ND1       -4.8270    7.7060    4.3580 N.ar  135  HIS135     -0.2267
    140  CD2       -5.4700    5.6200    4.4410 C.ar  135  HIS135      0.1154
    141  CE1       -3.9120    7.0380    5.0400 C.ar  135  HIS135      0.1986
    142  NE2       -4.2690    5.7680    5.0890 N.ar  135  HIS135     -0.2212
    143  N         -3.2790    8.9850    0.7970 N.3   138  LEU138     -0.1245
    144  CA        -3.2940    8.7700   -0.6480 C.3   138  LEU138      0.1561
    145  C         -2.8790   10.0380   -1.3890 C.2   138  LEU138      0.2260
    146  O         -2.0170   10.0030   -2.2830 O.2   138  LEU138     -0.2867
    147  CB        -4.6840    8.3480   -1.0940 C.3   138  LEU138      0.0270
    148  CG        -5.2070    7.0850   -0.4220 C.3   138  LEU138      0.0019
    149  CD1       -6.7000    6.9220   -0.6780 C.3   138  LEU138      0.0001
    150  CD2       -4.4210    5.8360   -0.8590 C.3   138  LEU138      0.0001
    151  N        -12.5990   13.7820    0.7900 N.3   158  GLN158     -0.1231
    152  CA       -14.0380   13.9370    0.6970 C.3   158  GLN158      0.1698
    153  C        -14.7280   12.5890    0.8030 C.2   158  GLN158      0.2592
    154  O        -14.3980   11.6510    0.0840 O.2   158  GLN158     -0.2718
    155  CB       -14.4210   14.6130   -0.6250 C.3   158  GLN158      0.0381
    156  CG       -15.9300   14.8200   -0.7550 C.3   158  GLN158      0.0905
    157  CD       -16.3220   15.5970   -1.9980 C.2   158  GLN158      0.2608
    158  OE1      -15.4950   16.2810   -2.5960 O.2   158  GLN158     -0.2717
    159  NE2      -17.5960   15.5000   -2.3870 N.am  158  GLN158     -0.0878
    160  N        -15.6770   12.5130    1.7310 N.am  159  ASP159     -0.1960
    161  CA       -16.5320   11.3540    1.9140 C.3   159  ASP159      0.1840
    162  C        -17.7730   11.5470    1.0490 C.2   159  ASP159      0.2622
    163  O        -18.5510   12.4940    1.2550 O.2   159  ASP159     -0.2715
    164  CB       -16.8950   11.2570    3.4020 C.3   159  ASP159      0.1450
    165  CG       -17.6960   10.0160    3.7450 C.2   159  ASP159      0.3671
    166  OD1      -18.5550    9.6030    2.9340 O.co2 159  ASP159     -0.2456
    167  OD2      -17.4580    9.4730    4.8520 O.co2 159  ASP159     -0.2456
    168  N        -17.9600   10.6690    0.0650 N.am  160  VAL160     -0.1963
    169  CA       -19.0500   10.8590   -0.8930 C.3   160  VAL160      0.1727
    170  C        -20.4310   10.6010   -0.2900 C.2   160  VAL160      0.2616
    171  O        -21.4400   10.9560   -0.8930 O.2   160  VAL160     -0.2715
    172  CB       -18.8440   10.0390   -2.1830 C.3   160  VAL160      0.0290
    173  CG1      -17.5310   10.4350   -2.8490 C.3   160  VAL160      0.0023
    174  CG2      -18.9140    8.5290   -1.9020 C.3   160  VAL160      0.0023
    175  N        -20.4790   10.0250    0.9090 N.am  161  LEU161     -0.1977
    176  CA       -21.7440    9.9050    1.6420 C.3   161  LEU161      0.1596
    177  C        -22.0740   11.1720    2.4230 C.2   161  LEU161      0.2287
    178  O        -23.2020   11.3570    2.8750 O.2   161  LEU161     -0.2864
    179  CB       -21.7480    8.6820    2.5630 C.3   161  LEU161      0.0297
    180  CG       -21.6130    7.3410    1.8370 C.3   161  LEU161      0.0022
    181  CD1      -21.5070    6.2000    2.8310 C.3   161  LEU161      0.0001
    182  CD2      -22.7660    7.1080    0.8480 C.3   161  LEU161      0.0001
    183  N        -14.4420    2.5570   -9.2680 N.3   175  PHE175     -0.1227
    184  CA       -13.8810    1.2160   -9.2140 C.3   175  PHE175      0.1736
    185  C        -13.9200    0.6650   -7.7940 C.2   175  PHE175      0.2595
    186  O        -13.4140    1.2970   -6.8580 O.2   175  PHE175     -0.2718
    187  CB       -12.4170    1.1780   -9.6440 C.3   175  PHE175      0.0547
    188  CG       -12.1370    1.4870  -11.1010 C.ar  175  PHE175     -0.0202
    189  CD1      -10.8140    1.6450  -11.4860 C.ar  175  PHE175     -0.0042
    190  CD2      -13.1290    1.5980  -12.0770 C.ar  175  PHE175     -0.0042
    191  CE1      -10.4700    1.8930  -12.8010 C.ar  175  PHE175     -0.0003
    192  CE2      -12.7800    1.8500  -13.4130 C.ar  175  PHE175     -0.0003
    193  CZ       -11.4430    1.9990  -13.7580 C.ar  175  PHE175     -0.0000
    194  N        -14.5250   -0.5110   -7.6360 N.am  176  LYS176     -0.1966
    195  CA       -14.4870   -1.2390   -6.3720 C.3   176  LYS176      0.1728
    196  C        -15.0550   -0.4270   -5.2120 C.2   176  LYS176      0.2616
    197  O        -14.5930   -0.5410   -4.0680 O.2   176  LYS176     -0.2715
    198  CB       -13.0640   -1.7500   -6.0740 C.3   176  LYS176      0.0311
    199  CG       -12.5530   -2.7390   -7.1130 C.3   176  LYS176      0.0038
    200  CD       -11.0790   -3.0690   -6.9150 C.3   176  LYS176      0.0206
    201  CE       -10.5710   -4.0330   -7.9710 C.3   176  LYS176      0.1093
    202  NZ        -9.1140   -4.3180   -7.8050 N.3   176  LYS176     -0.1314
    203  N        -16.0860    0.3640   -5.4990 N.am  177  LEU177     -0.1977
    204  CA       -16.6690    1.2970   -4.5310 C.3   177  LEU177      0.1596
    205  C        -18.1600    1.0610   -4.2880 C.2   177  LEU177      0.2287
    206  O        -18.6310    1.1470   -3.1510 O.2   177  LEU177     -0.2864
    207  CB       -16.4600    2.7490   -4.9810 C.3   177  LEU177      0.0297
    208  CG       -17.0840    3.7910   -4.0480 C.3   177  LEU177      0.0022
    209  CD1      -16.4290    3.7820   -2.6410 C.3   177  LEU177      0.0001
    210  CD2      -17.0410    5.1680   -4.6650 C.3   177  LEU177      0.0001
    211  N        -19.3220   -1.2990   -1.3220 N.3   180  LEU180     -0.1231
    212  CA       -19.1160   -0.8880    0.0540 C.3   180  LEU180      0.1693
    213  C        -20.0430    0.2820    0.4110 C.2   180  LEU180      0.2591
    214  O        -20.4810    0.3970    1.5590 O.2   180  LEU180     -0.2718
    215  CB       -17.6420   -0.6020    0.3530 C.3   180  LEU180      0.0284
    216  CG       -17.0390    0.6840   -0.1870 C.3   180  LEU180      0.0019
    217  CD1      -17.3220    1.8670    0.7320 C.3   180  LEU180      0.0001
    218  CD2      -15.5290    0.5060   -0.3710 C.3   180  LEU180      0.0001
    219  N        -20.3620    1.1420   -0.5590 N.am  181  LEU181     -0.1980
    220  CA       -21.3010    2.2300   -0.2840 C.3   181  LEU181      0.1596
    221  C        -22.6870    1.6850    0.0050 C.2   181  LEU181      0.2287
    222  O        -23.3530    2.1140    0.9490 O.2   181  LEU181     -0.2864
    223  CB       -21.4000    3.2020   -1.4470 C.3   181  LEU181      0.0297
    224  CG       -20.1420    4.0230   -1.7180 C.3   181  LEU181      0.0022
    225  CD1      -20.4010    4.9210   -2.9130 C.3   181  LEU181      0.0001
    226  CD2      -19.7000    4.8490   -0.4940 C.3   181  LEU181      0.0001
    227  N        -23.2590    0.1240    3.3770 N.3   184  GLU184     -0.1245
    228  CA       -23.2700    1.1160    4.4310 C.3   184  GLU184      0.1567
    229  C        -24.5010    2.0200    4.4400 C.2   184  GLU184      0.2260
    230  O        -24.9190    2.5080    5.4930 O.2   184  GLU184     -0.2867
    231  CB       -22.0310    1.9680    4.3040 C.3   184  GLU184      0.0388
    232  CG       -21.6960    2.6650    5.5580 C.3   184  GLU184      0.1160
    233  CD       -20.2860    3.1570    5.5570 C.2   184  GLU184      0.3649
    234  OE1      -19.5040    2.7960    4.6540 O.co2 184  GLU184     -0.2457
    235  OE2      -19.9630    3.9160    6.4720 O.co2 184  GLU184     -0.2457
@<TRIPOS>BOND
     1   193   192   ar
     2   193   191   ar
     3   192   190   ar
     4    64    63    2
     5   191   189   ar
     6    66    67    1
     7    66    65    1
     8    67    68    1
     9   190   188   ar
    10    63    62    1
    11   189   188   ar
    12    68    69    2
    13   109   108    2
    14   110   108   am
    15    62    65    1
    16    62    61    1
    17   106   105    2
    18   188   187    1
    19   108   107    1
    20    72    73    1
    21    69    70    1
    22    69    71    1
    23   105   104    1
    24    76    73    1
    25    76    77    1
    26    73    74    1
    27    79    77   ar
    28    77    78   ar
    29   187   184    1
    30   107   104    1
    31   183   184    1
    32   184   185    1
    33   104   103    1
    34    57    56    2
    35    85    87    1
    36    85    84    1
    37    74    80   am
    38    74    75    2
    39    80    81    1
    40    60    58    1
    41   201   202    1
    42   201   200    1
    43    56    55    1
    44   185   194   am
    45   185   186    2
    46    58    55    1
    47    58    59    1
    48    55    54    1
    49   194   195    1
    50    84    81    1
    51    84    86    1
    52    51    50    2
    53    81    82    1
    54   199   200    1
    55   199   198    1
    56    83    82    2
    57    97    94    1
    58    97    98    1
    59    54    50   am
    60    96    95    2
    61    50    49    1
    62   195   198    1
    63   195   196    1
    64    82    88   am
    65    53    52    1
    66    94    95    1
    67    94    93    1
    68    95    99   am
    69   203   196   am
    70   203   204    1
    71   111   112    1
    72   196   197    2
    73    49    52    1
    74    49    48    1
    75    93    90   am
    76    88    89    1
    77   207   204    1
    78   207   208    1
    79    91    90    2
    80    90    89    1
    81   210   208    1
    82   204   205    1
    83   102   101    2
    84   101   100    1
    85   116   115    1
    86    99   100    1
    87   205   206    2
    88    41    40    2
    89    89    92    1
    90   208   209    1
    91   112   115    1
    92   112   113    1
    93   114   113    2
    94    42    43    1
    95    42    39    1
    96   113   117   am
    97    38    39    1
    98    44    43   ar
    99    44    46   ar
   100    40    39    1
   101   225   224    1
   102   173   172    1
   103    43    45   ar
   104   158   157    2
   105    46    47   ar
   106   159   157   am
   107   146   145    2
   108   172   174    1
   109   172   169    1
   110   157   156    1
   111    45    47   ar
   112   124   122   ar
   113   117   118    1
   114   224   223    1
   115   224   226    1
   116   223   220    1
   117   145   144    1
   118   121   118    1
   119   121   122    1
   120   211   212    1
   121   147   144    1
   122   147   148    1
   123   118   119    1
   124   122   123   ar
   125   169   170    1
   126   169   168    1
   127   171   170    2
   128   150   148    1
   129   156   155    1
   130   149   148    1
   131   144   143    1
   132   155   152    1
   133   219   220    1
   134   219   213   am
   135   218   216    1
   136   170   175   am
   137   220   221    1
   138   216   215    1
   139   216   217    1
   140   221   222    2
   141    33    35   ar
   142    33    31   ar
   143   212   215    1
   144   212   213    1
   145   168   162   am
   146    35    36   ar
   147   154   153    2
   148   119   120    2
   149   119   125   am
   150   213   214    2
   151    29    28    2
   152   152   151    1
   153   152   153    1
   154   153   160   am
   155   182   180    1
   156    31    30    1
   157    31    32   ar
   158    30    27    1
   159   175   176    1
   160    36    37    1
   161    36    34   ar
   162   162   163    2
   163   162   161    1
   164   125   126    1
   165    27    28    1
   166    27    26    1
   167   176   177    1
   168   176   179    1
   169   160   161    1
   170   136   135    2
   171    32    34   ar
   172   180   179    1
   173   180   181    1
   174   161   164    1
   175   177   178    2
   176   126   129    1
   177   126   127    1
   178   133   134    1
   179   133   127   am
   180   131   129    1
   181   166   165   ar
   182   135   134    1
   183   130   129    1
   184   130   132    1
   185   137   134    1
   186   137   138    1
   187   227   228    1
   188   164   165    1
   189   127   128    2
   190   165   167   ar
   191   138   139   ar
   192   138   140   ar
   193   231   228    1
   194   231   232    1
   195   139   141   ar
   196   228   229    1
   197   229   230    2
   198   140   142   ar
   199    15    14    2
   200   234   233   ar
   201    23    22    2
   202   141   142   ar
   203    11     9    1
   204   233   232    1
   205   233   235   ar
   206    18    16    1
   207    22    21    1
   208    14    13    1
   209    14    20   am
   210     9     8    2
   211     9    10    1
   212     8     7    1
   213    13    16    1
   214    13    12    1
   215    21    20    1
   216    21    24    1
   217     7     6    1
   218    16    17    1
   219    17    19    1
   220    24    25    1
   221     6     5    1
   222     5     2    1
   223     2     1    1
   224     2     3    1
   225     3     4    2
