@<TRIPOS>MOLECULE
tmp/3frjB00.pdb
 168 160 0 0 0
SMALL
GASTEIGER

@<TRIPOS>ATOM
      1  N         46.3220   29.3880   48.6600 N.3   102  ILE102     -0.1245
      2  CA        47.7590   29.4140   48.8340 C.3   102  ILE102      0.1561
      3  C         48.1640   30.8410   48.6460 C.2   102  ILE102      0.2260
      4  O         47.3710   31.6470   48.1460 O.2   102  ILE102     -0.2867
      5  CB        48.5250   28.5490   47.7610 C.3   102  ILE102      0.0252
      6  CG1       47.9990   28.8400   46.3110 C.3   102  ILE102      0.0019
      7  CG2       48.3760   27.0980   48.0580 C.3   102  ILE102      0.0019
      8  CD1       48.9380   28.2100   45.2060 C.3   102  ILE102      0.0001
      9  N         52.5430   32.6340   44.1850 N.3   105  THR105     -0.1203
     10  CA        53.8940   32.1010   44.0560 C.3   105  THR105      0.1994
     11  C         54.1930   31.9690   42.5320 C.2   105  THR105      0.2619
     12  O         53.2840   31.9630   41.7530 O.2   105  THR105     -0.2717
     13  CB        54.0730   30.7490   44.9450 C.3   105  THR105      0.1784
     14  OG1       54.3070   29.5730   44.1860 O.3   105  THR105     -0.2211
     15  CG2       52.8540   30.4620   45.7910 C.3   105  THR105      0.0376
     16  N         55.4420   31.8520   42.1230 N.am  106  SER106     -0.1937
     17  CA        55.7320   31.6450   40.7150 C.3   106  SER106      0.2055
     18  C         56.8440   30.6710   40.7130 C.2   106  SER106      0.2642
     19  O         57.4340   30.4570   41.7560 O.2   106  SER106     -0.2714
     20  CB        56.2170   32.9770   40.0510 C.3   106  SER106      0.2130
     21  OG        57.3680   33.4720   40.7590 O.3   106  SER106     -0.2179
     22  N         57.1770   30.1150   39.5330 N.am  107  LEU107     -0.1977
     23  CA        58.2890   29.1980   39.4170 C.3   107  LEU107      0.1596
     24  C         59.6100   29.9260   39.3040 C.2   107  LEU107      0.2287
     25  O         59.7960   30.6900   38.3450 O.2   107  LEU107     -0.2864
     26  CB        58.1030   28.3600   38.1480 C.3   107  LEU107      0.0297
     27  CG        56.7190   27.7410   37.9520 C.3   107  LEU107      0.0022
     28  CD1       56.5670   27.0150   36.5230 C.3   107  LEU107      0.0001
     29  CD2       56.4180   26.7960   39.1700 C.3   107  LEU107      0.0001
     30  N         49.3280   18.6040   46.6530 N.3   151  SER151     -0.1202
     31  CA        49.9190   18.6420   45.3440 C.3   151  SER151      0.2020
     32  C         50.8750   17.4380   45.2300 C.2   151  SER151      0.2619
     33  O         51.3740   16.9530   46.2530 O.2   151  SER151     -0.2717
     34  CB        50.7340   19.9520   45.1900 C.3   151  SER151      0.2103
     35  OG        51.5740   19.7420   44.0890 O.3   151  SER151     -0.2182
     36  N         51.1400   16.9910   43.9930 N.am  152  LEU152     -0.1965
     37  CA        52.2160   16.0380   43.7550 C.3   152  LEU152      0.1728
     38  C         53.4620   16.5740   44.3360 C.2   152  LEU152      0.2616
     39  O         54.2930   15.8210   44.7220 O.2   152  LEU152     -0.2715
     40  CB        52.4560   15.7540   42.2440 C.3   152  LEU152      0.0311
     41  CG        51.3640   14.9210   41.5330 C.3   152  LEU152      0.0022
     42  CD1       51.7700   14.8550   40.0260 C.3   152  LEU152      0.0001
     43  CD2       51.2990   13.5180   42.1460 C.3   152  LEU152      0.0001
     44  N         53.6480   17.8840   44.3290 N.am  153  ALA153     -0.1977
     45  CA        54.9080   18.4350   44.8850 C.3   153  ALA153      0.1597
     46  C         54.8490   18.5550   46.4520 C.2   153  ALA153      0.2287
     47  O         55.8240   18.9910   47.0410 O.2   153  ALA153     -0.2864
     48  CB        55.2860   19.8440   44.2260 C.3   153  ALA153      0.0319
     49  N         60.1830   18.4420   43.0940 N.3   158  TYR158     -0.1228
     50  CA        60.3960   19.1140   41.8230 C.3   158  TYR158      0.1721
     51  C         61.2820   20.3520   42.1130 C.2   158  TYR158      0.2437
     52  O         61.1850   20.9480   43.1680 O.2   158  TYR158     -0.2733
     53  CB        59.1330   19.7550   41.3080 C.3   158  TYR158      0.0547
     54  CG        58.0050   18.8790   40.9020 C.ar  158  TYR158     -0.0200
     55  CD1       57.2390   18.2060   41.8630 C.ar  158  TYR158     -0.0009
     56  CD2       57.6790   18.7240   39.5350 C.ar  158  TYR158     -0.0009
     57  CE1       56.1770   17.3630   41.5010 C.ar  158  TYR158      0.0417
     58  CE2       56.5730   17.9230   39.1480 C.ar  158  TYR158      0.0417
     59  CZ        55.8470   17.2350   40.1270 C.ar  158  TYR158      0.1957
     60  OH        54.7830   16.4750   39.7530 O.3   158  TYR158     -0.2866
     61  N         62.0840   20.7930   41.0940 N.am  159  PRO159     -0.2718
     62  CA        62.7200   22.1040   41.1550 C.3   159  PRO159      0.1535
     63  C         61.7000   23.1950   40.9530 C.2   159  PRO159      0.2598
     64  O         60.5790   22.9540   40.4640 O.2   159  PRO159     -0.2715
     65  CB        63.7190   22.0640   39.9790 C.3   159  PRO159      0.0310
     66  CG        63.0130   21.1490   38.9160 C.3   159  PRO159      0.0237
     67  CD        62.3390   20.0570   39.8060 C.3   159  PRO159      0.0939
     68  N         62.0800   24.4000   41.3690 N.am  160  MET160     -0.1964
     69  CA        61.3790   25.6470   41.1310 C.3   160  MET160      0.1736
     70  C         60.2540   25.9300   42.0690 C.2   160  MET160      0.2616
     71  O         59.6370   26.9810   41.9240 O.2   160  MET160     -0.2715
     72  CB        60.8240   25.8330   39.6940 C.3   160  MET160      0.0427
     73  CG        61.7630   25.5360   38.5260 C.3   160  MET160      0.0599
     74  SD        63.3840   26.2850   38.6500 S.3   160  MET160     -0.1393
     75  CE        64.2630   25.3200   37.3660 C.3   160  MET160      0.0692
     76  N         59.9030   24.9910   42.9440 N.am  161  VAL161     -0.1977
     77  CA        58.8110   25.2410   43.8970 C.3   161  VAL161      0.1596
     78  C         59.2350   24.9080   45.3590 C.2   161  VAL161      0.2287
     79  O         58.5510   24.1500   46.0950 O.2   161  VAL161     -0.2864
     80  CB        57.6380   24.3960   43.4670 C.3   161  VAL161      0.0276
     81  CG1       56.8820   25.0620   42.2120 C.3   161  VAL161      0.0022
     82  CG2       58.0370   22.8880   43.2470 C.3   161  VAL161      0.0022
     83  N         56.9890   26.3490   48.1900 N.3   164  TYR164     -0.1241
     84  CA        55.6630   25.7980   48.0420 C.3   164  TYR164      0.1605
     85  C         55.5980   24.3250   48.5280 C.2   164  TYR164      0.2264
     86  O         54.6520   23.8550   49.2040 O.2   164  TYR164     -0.2867
     87  CB        55.3380   25.8680   46.5590 C.3   164  TYR164      0.0534
     88  CG        54.0660   25.1880   46.1040 C.ar  164  TYR164     -0.0201
     89  CD1       52.8830   25.8810   46.0830 C.ar  164  TYR164     -0.0009
     90  CD2       54.0720   23.8510   45.6570 C.ar  164  TYR164     -0.0009
     91  CE1       51.6890   25.2580   45.6320 C.ar  164  TYR164      0.0417
     92  CE2       52.8850   23.2420   45.1610 C.ar  164  TYR164      0.0417
     93  CZ        51.7360   23.9500   45.1280 C.ar  164  TYR164      0.1957
     94  OH        50.5390   23.4150   44.6750 O.3   164  TYR164     -0.2866
     95  N         47.1530   16.6720   43.9100 N.3   196  LEU196     -0.1231
     96  CA        46.7970   17.0280   42.5150 C.3   196  LEU196      0.1693
     97  C         48.0290   17.1760   41.6740 C.2   196  LEU196      0.2593
     98  O         49.0280   17.7370   42.1340 O.2   196  LEU196     -0.2718
     99  CB        45.9810   18.3530   42.4530 C.3   196  LEU196      0.0284
    100  CG        44.8840   18.5190   43.5170 C.3   196  LEU196      0.0019
    101  CD1       44.1860   19.8090   43.2110 C.3   196  LEU196      0.0001
    102  CD2       43.9560   17.3530   43.4670 C.3   196  LEU196      0.0001
    103  N         47.9640   16.7010   40.4180 N.am  197  GLY197     -0.1942
    104  CA        48.9970   17.0500   39.4260 C.3   197  GLY197      0.2014
    105  C         48.6480   18.4030   38.8280 C.2   197  GLY197      0.2639
    106  O         47.7510   19.1280   39.3190 O.2   197  GLY197     -0.2714
    107  N         49.3310   18.7760   37.7490 N.am  198  LEU198     -0.1963
    108  CA        49.0440   20.0800   37.0670 C.3   198  LEU198      0.1728
    109  C         47.5980   20.1470   36.6330 C.2   198  LEU198      0.2616
    110  O         47.1260   19.2450   35.9720 O.2   198  LEU198     -0.2715
    111  CB        49.9770   20.2750   35.8590 C.3   198  LEU198      0.0311
    112  CG        49.7940   21.5740   35.0280 C.3   198  LEU198      0.0022
    113  CD1       50.1600   22.8340   35.8870 C.3   198  LEU198      0.0001
    114  CD2       50.6350   21.5250   33.6540 C.3   198  LEU198      0.0001
    115  N         46.8950   21.2280   37.0130 N.am  199  ILE199     -0.1977
    116  CA        45.5110   21.4250   36.7300 C.3   199  ILE199      0.1596
    117  C         45.3950   22.7430   35.9470 C.2   199  ILE199      0.2287
    118  O         46.1770   23.6880   36.1630 O.2   199  ILE199     -0.2864
    119  CB        44.7140   21.5640   38.0480 C.3   199  ILE199      0.0276
    120  CG1       45.0490   20.3870   39.0310 C.3   199  ILE199      0.0022
    121  CG2       43.2730   21.7480   37.7600 C.3   199  ILE199      0.0022
    122  CD1       44.5900   19.0300   38.5300 C.3   199  ILE199      0.0001
    123  N         44.2720   25.6580   35.7130 N.3   201  THR201     -0.1218
    124  CA        43.7190   26.8700   36.1740 C.3   201  THR201      0.1862
    125  C         44.4650   28.0130   35.4920 C.2   201  THR201      0.2287
    126  O         45.6370   27.9190   35.0540 O.2   201  THR201     -0.2866
    127  CB        43.8070   27.0670   37.7790 C.3   201  THR201      0.1770
    128  OG1       45.1890   27.2420   38.1710 O.3   201  THR201     -0.2211
    129  CG2       43.1080   25.9110   38.4910 C.3   201  THR201      0.0375
    130  N         45.9240   30.6270   36.7350 N.3   203  THR203     -0.1203
    131  CA        47.2470   31.0050   37.3070 C.3   203  THR203      0.1994
    132  C         48.3150   30.0300   36.9100 C.2   203  THR203      0.2617
    133  O         49.4730   30.3920   36.6510 O.2   203  THR203     -0.2717
    134  CB        47.2360   30.9980   38.8540 C.3   203  THR203      0.1784
    135  OG1       46.1670   31.8230   39.3230 O.3   203  THR203     -0.2211
    136  CG2       48.5880   31.4770   39.4380 C.3   203  THR203      0.0376
    137  N         47.9500   28.7600   36.8970 N.am  204  ALA204     -0.1979
    138  CA        48.9560   27.7510   36.5430 C.3   204  ALA204      0.1597
    139  C         49.3110   27.7940   35.0610 C.2   204  ALA204      0.2287
    140  O         50.4800   27.6920   34.7100 O.2   204  ALA204     -0.2864
    141  CB        48.4980   26.3280   36.9700 C.3   204  ALA204      0.0319
    142  N         51.6160   30.3970   34.1910 N.3   207  ALA207     -0.1231
    143  CA        53.0400   30.1170   34.5500 C.3   207  ALA207      0.1694
    144  C         53.6680   29.0040   33.7610 C.2   207  ALA207      0.2591
    145  O         54.8590   28.9830   33.5890 O.2   207  ALA207     -0.2718
    146  CB        53.2120   29.8430   36.0680 C.3   207  ALA207      0.0304
    147  N         52.9050   28.0510   33.2830 N.am  208  VAL208     -0.1980
    148  CA        53.6000   26.9720   32.6050 C.3   208  VAL208      0.1595
    149  C         53.4990   27.1120   31.0640 C.2   208  VAL208      0.2287
    150  O         54.2760   26.4580   30.3480 O.2   208  VAL208     -0.2864
    151  CB        53.1060   25.5750   33.0600 C.3   208  VAL208      0.0276
    152  CG1       53.0710   25.4570   34.6400 C.3   208  VAL208      0.0022
    153  CG2       51.7920   25.3110   32.4200 C.3   208  VAL208      0.0022
    154  N         57.1330   25.3930   30.0620 N.3   212  VAL212     -0.1245
    155  CA        57.5260   24.0910   30.4980 C.3   212  VAL212      0.1561
    156  C         56.5870   23.0250   29.9040 C.2   212  VAL212      0.2260
    157  O         55.3760   23.2150   29.8330 O.2   212  VAL212     -0.2867
    158  CB        57.5200   23.9770   32.0330 C.3   212  VAL212      0.0252
    159  CG1       57.8220   22.5500   32.4630 C.3   212  VAL212      0.0019
    160  CG2       58.5210   24.9480   32.6430 C.3   212  VAL212      0.0019
    161  N         54.2760   20.1460   29.7300 N.3   214  MET214     -0.1245
    162  CA        53.4350   19.2270   30.5280 C.3   214  MET214      0.1570
    163  C         51.9480   19.3230   30.1930 C.2   214  MET214      0.2261
    164  O         51.4700   20.3580   29.7220 O.2   214  MET214     -0.2867
    165  CB        53.5290   19.4470   32.0520 C.3   214  MET214      0.0387
    166  CG        54.6780   20.2200   32.6320 C.3   214  MET214      0.0595
    167  SD        54.2910   20.8020   34.3550 S.3   214  MET214     -0.1393
    168  CE        53.7610   19.2870   35.1510 C.3   214  MET214      0.0692
@<TRIPOS>BOND
     1   164   163    2
     2   161   162    1
     3   157   156    2
     4   156   155    1
     5   154   155    1
     6   163   162    1
     7   150   149    2
     8   155   158    1
     9   162   165    1
    10   149   148    1
    11   158   159    1
    12   158   160    1
    13   165   166    1
    14   153   151    1
    15   148   151    1
    16   148   147    1
    17   166   167    1
    18   151   152    1
    19   147   144   am
    20   145   144    2
    21   114   112    1
    22   144   143    1
    23   142   143    1
    24   167   168    1
    25   143   146    1
    26   140   139    2
    27   112   111    1
    28   112   113    1
    29   126   125    2
    30   139   138    1
    31   125   124    1
    32   123   124    1
    33   111   108    1
    34   117   118    2
    35   117   116    1
    36   110   109    2
    37   124   127    1
    38    28    27    1
    39   138   137    1
    40   138   141    1
    41   109   115   am
    42   109   108    1
    43   133   132    2
    44   116   115    1
    45   116   119    1
    46   130   131    1
    47   137   132   am
    48   132   131    1
    49   108   107    1
    50   131   134    1
    51    75    74    1
    52   107   105   am
    53   121   119    1
    54   127   128    1
    55   127   129    1
    56    27    26    1
    57    27    29    1
    58   119   120    1
    59    26    23    1
    60    25    24    2
    61    73    74    1
    62    73    72    1
    63   122   120    1
    64   105   106    2
    65   105   104    1
    66   134   135    1
    67   134   136    1
    68    66    67    1
    69    66    65    1
    70    58    56   ar
    71    58    59   ar
    72    24    23    1
    73    23    22    1
    74   104   103    1
    75    22    18   am
    76    56    54   ar
    77    72    69    1
    78    60    59    1
    79    67    61    1
    80    65    62    1
    81    42    41    1
    82    20    17    1
    83    20    21    1
    84    59    57   ar
    85   103    97   am
    86    64    63    2
    87    18    17    1
    88    18    19    2
    89    17    16    1
    90    54    53    1
    91    54    55   ar
    92    63    62    1
    93    63    68   am
    94    61    62    1
    95    61    51   am
    96    69    68    1
    97    69    70    1
    98    53    50    1
    99    57    55   ar
   100    41    43    1
   101    41    40    1
   102    97    98    2
   103    97    96    1
   104    12    11    2
   105    50    51    1
   106    50    49    1
   107    71    70    2
   108    70    76   am
   109    51    52    2
   110    16    11   am
   111    81    80    1
   112    40    37    1
   113    99    96    1
   114    99   100    1
   115    96    95    1
   116    11    10    1
   117    76    77    1
   118   101   100    1
   119    82    80    1
   120    80    77    1
   121   102   100    1
   122    37    36    1
   123    37    38    1
   124    77    78    1
   125    36    32   am
   126    10     9    1
   127    10    13    1
   128    35    34    1
   129    14    13    1
   130    48    45    1
   131    44    38   am
   132    44    45    1
   133    38    39    2
   134    94    93    1
   135    45    46    1
   136    13    15    1
   137    93    92   ar
   138    93    91   ar
   139    92    90   ar
   140    34    31    1
   141     8     6    1
   142    32    31    1
   143    32    33    2
   144    31    30    1
   145    78    79    2
   146    91    89   ar
   147    90    88   ar
   148    89    88   ar
   149    88    87    1
   150     6     5    1
   151    46    47    2
   152    87    84    1
   153     5     7    1
   154     5     2    1
   155    84    83    1
   156    84    85    1
   157     4     3    2
   158    85    86    2
   159     3     2    1
   160     1     2    1
