@<TRIPOS>MOLECULE
tmp/3frkA00.pdb
 223 216 0 0 0
SMALL
GASTEIGER

@<TRIPOS>ATOM
      1  N          5.4270  -33.9520   -7.7870 N.3     5  PHE5       -0.1227
      2  CA         6.4710  -34.4200   -6.8630 C.3     5  PHE5        0.1736
      3  C          6.9350  -33.2370   -6.0290 C.2     5  PHE5        0.2595
      4  O          7.0200  -33.3040   -4.8020 O.2     5  PHE5       -0.2718
      5  CB         7.7070  -35.0260   -7.5270 C.3     5  PHE5        0.0547
      6  CG         8.7960  -35.3610   -6.5340 C.ar    5  PHE5       -0.0202
      7  CD1        8.6380  -36.3930   -5.6200 C.ar    5  PHE5       -0.0042
      8  CD2        9.9600  -34.6150   -6.4740 C.ar    5  PHE5       -0.0042
      9  CE1        9.6400  -36.7140   -4.6800 C.ar    5  PHE5       -0.0003
     10  CE2       10.9430  -34.9060   -5.5400 C.ar    5  PHE5       -0.0003
     11  CZ        10.7960  -35.9540   -4.6500 C.ar    5  PHE5       -0.0000
     12  N          7.2170  -32.1420   -6.7220 N.am    6  ALA6       -0.1980
     13  CA         7.6190  -30.9040   -6.0590 C.3     6  ALA6        0.1597
     14  C          6.8840  -29.6930   -6.6790 C.2     6  ALA6        0.2287
     15  O          6.8410  -29.5730   -7.9120 O.2     6  ALA6       -0.2864
     16  CB         9.1460  -30.6970   -6.2070 C.3     6  ALA6        0.0319
     17  N          6.4980  -25.2990   -5.9290 N.3     8  PHE8       -0.1241
     18  CA         6.9650  -24.0290   -5.3480 C.3     8  PHE8        0.1605
     19  C          5.8450  -22.9650   -5.2350 C.2     8  PHE8        0.2264
     20  O          5.8440  -21.9920   -4.4690 O.2     8  PHE8       -0.2867
     21  CB         8.0090  -23.4560   -6.3400 C.3     8  PHE8        0.0534
     22  CG         9.3050  -24.2500   -6.5110 C.ar    8  PHE8       -0.0203
     23  CD1        9.4360  -25.5530   -6.0780 C.ar    8  PHE8       -0.0042
     24  CD2       10.3920  -23.6330   -7.1510 C.ar    8  PHE8       -0.0042
     25  CE1       10.6220  -26.2390   -6.2750 C.ar    8  PHE8       -0.0003
     26  CE2       11.5860  -24.3010   -7.3610 C.ar    8  PHE8       -0.0003
     27  CZ        11.6910  -25.6100   -6.9290 C.ar    8  PHE8       -0.0000
     28  N         27.4540  -22.9190   -5.7270 N.3    59  ASN59      -0.1225
     29  CA        26.6350  -24.1190   -5.6290 C.3    59  ASN59       0.1785
     30  C         27.1280  -24.9980   -4.5100 C.2    59  ASN59       0.2598
     31  O         28.1700  -24.7320   -3.9180 O.2    59  ASN59      -0.2718
     32  CB        26.4160  -24.8220   -6.9770 C.3    59  ASN59       0.1169
     33  CG        27.6980  -25.1300   -7.7000 C.2    59  ASN59       0.2627
     34  OD1       28.5700  -25.8560   -7.2030 O.2    59  ASN59      -0.2716
     35  ND2       27.8170  -24.5830   -8.8940 N.am   59  ASN59      -0.0877
     36  N         26.3450  -26.0150   -4.2030 N.am   60  GLY60      -0.1942
     37  CA        26.6870  -26.8860   -3.0800 C.3    60  GLY60       0.2014
     38  C         27.9170  -27.7150   -3.4060 C.2    60  GLY60       0.2638
     39  O         28.7120  -28.0620   -2.5380 O.2    60  GLY60      -0.2714
     40  N         28.0570  -28.0470   -4.6740 N.am   61  LEU61      -0.1977
     41  CA        29.1860  -28.8320   -5.0860 C.3    61  LEU61       0.1596
     42  C         30.3980  -27.9550   -4.7890 C.2    61  LEU61       0.2287
     43  O         31.3600  -28.2720   -4.0610 O.2    61  LEU61      -0.2864
     44  CB        28.9880  -29.0250   -6.5900 C.3    61  LEU61       0.0297
     45  CG        29.6750  -30.2460   -7.1940 C.3    61  LEU61       0.0022
     46  CD1       29.1940  -30.4060   -8.6210 C.3    61  LEU61       0.0001
     47  CD2       31.1670  -29.9830   -7.1330 C.3    61  LEU61       0.0001
     48  N         31.6830  -27.7300   -1.1980 N.3    64  LEU64      -0.1245
     49  CA        32.5580  -28.7810   -0.6800 C.3    64  LEU64       0.1561
     50  C         33.9760  -28.6710   -1.1990 C.2    64  LEU64       0.2260
     51  O         34.9990  -28.7140   -0.5070 O.2    64  LEU64      -0.2867
     52  CB        31.9970  -30.1120   -1.1540 C.3    64  LEU64       0.0270
     53  CG        30.5890  -30.3670   -0.6100 C.3    64  LEU64       0.0019
     54  CD1       29.8000  -31.3990   -1.4070 C.3    64  LEU64       0.0001
     55  CD2       30.5100  -30.6740    0.8730 C.3    64  LEU64       0.0001
     56  N         25.5330  -41.4210   -1.1340 N.3    85  THR85      -0.1203
     57  CA        25.2210  -40.0080   -1.3740 C.3    85  THR85       0.1994
     58  C         25.0720  -39.5550   -2.8490 C.2    85  THR85       0.2617
     59  O         25.2850  -40.2940   -3.7850 O.2    85  THR85      -0.2717
     60  CB        26.2200  -39.0700   -0.6160 C.3    85  THR85       0.1784
     61  OG1       25.9070  -37.6980   -0.8720 O.3    85  THR85      -0.2211
     62  CG2       27.6280  -39.2540   -1.0940 C.3    85  THR85       0.0376
     63  N         24.6540  -38.3190   -3.0700 N.am   86  PHE86      -0.1975
     64  CA        24.5180  -37.7870   -4.4250 C.3    86  PHE86       0.1639
     65  C         25.9530  -37.6550   -4.9000 C.2    86  PHE86       0.2290
     66  O         26.8480  -37.3230   -4.1290 O.2    86  PHE86      -0.2864
     67  CB        23.8510  -36.4050   -4.4570 C.3    86  PHE86       0.0560
     68  CG        23.7930  -35.7880   -5.8190 C.ar   86  PHE86      -0.0200
     69  CD1       23.0440  -36.3710   -6.8300 C.ar   86  PHE86      -0.0042
     70  CD2       24.4340  -34.5860   -6.0650 C.ar   86  PHE86      -0.0042
     71  CE1       22.9850  -35.7920   -8.1090 C.ar   86  PHE86      -0.0003
     72  CE2       24.3750  -33.9800   -7.3230 C.ar   86  PHE86      -0.0003
     73  CZ        23.6400  -34.5730   -8.3630 C.ar   86  PHE86      -0.0000
     74  N         27.3470  -35.6470   -6.3680 N.3    88  ALA88      -0.1231
     75  CA        27.9680  -34.3460   -6.1660 C.3    88  ALA88       0.1694
     76  C         29.0070  -34.3200   -5.0480 C.2    88  ALA88       0.2592
     77  O         30.0230  -33.6280   -5.1480 O.2    88  ALA88      -0.2718
     78  CB        26.9610  -33.2270   -6.0570 C.3    88  ALA88       0.0304
     79  N         28.7600  -35.0650   -3.9730 N.am   89  THR89      -0.1953
     80  CA        29.7060  -35.1760   -2.8590 C.3    89  THR89       0.1897
     81  C         31.0580  -35.7910   -3.3390 C.2    89  THR89       0.2313
     82  O         32.1360  -35.4870   -2.7990 O.2    89  THR89      -0.2863
     83  CB        29.0650  -36.0070   -1.7080 C.3    89  THR89       0.1794
     84  OG1       27.7170  -35.5670   -1.4710 O.3    89  THR89      -0.2208
     85  CG2       29.8730  -35.9010   -0.3960 C.3    89  THR89       0.0378
     86  N         27.3440  -36.6850    5.2150 N.3   131  VAL131     -0.1245
     87  CA        26.2620  -36.0650    4.4930 C.3   131  VAL131      0.1561
     88  C         25.0150  -36.2300    5.3290 C.2   131  VAL131      0.2260
     89  O         24.8270  -37.2580    5.9920 O.2   131  VAL131     -0.2867
     90  CB        26.0810  -36.8070    3.1810 C.3   131  VAL131      0.0252
     91  CG1       24.9230  -36.2220    2.4340 C.3   131  VAL131      0.0019
     92  CG2       27.3900  -36.7660    2.3940 C.3   131  VAL131      0.0019
     93  N         21.5050  -36.7290    4.7100 N.3   133  LEU133     -0.1245
     94  CA        20.6390  -37.0460    3.5790 C.3   133  LEU133      0.1561
     95  C         19.1530  -36.8570    3.8300 C.2   133  LEU133      0.2260
     96  O         18.6600  -37.0980    4.9290 O.2   133  LEU133     -0.2867
     97  CB        21.0060  -38.4520    3.0590 C.3   133  LEU133      0.0270
     98  CG        20.8540  -38.8380    1.5780 C.3   133  LEU133      0.0019
     99  CD1       21.5560  -37.8150    0.7190 C.3   133  LEU133      0.0001
    100  CD2       21.3880  -40.2200    1.1860 C.3   133  LEU133      0.0001
    101  N         28.1720  -32.3950    4.7780 N.3   157  ASP157     -0.1239
    102  CA        27.7910  -32.0570    3.4070 C.3   157  ASP157      0.1674
    103  C         26.3380  -31.8340    3.7950 C.2   157  ASP157      0.2266
    104  O         25.6120  -32.7970    3.9520 O.2   157  ASP157     -0.2867
    105  CB        27.8540  -33.2010    2.3880 C.3   157  ASP157      0.1410
    106  CG        27.2020  -32.8040    1.0510 C.2   157  ASP157      0.3668
    107  OD1       26.6170  -31.6960    1.0580 O.co2 157  ASP157     -0.2456
    108  OD2       27.2280  -33.5640    0.0380 O.co2 157  ASP157     -0.2456
    109  N         23.8310  -30.1000    2.1520 N.3   159  ALA159     -0.1231
    110  CA        23.0170  -29.6640    1.0050 C.3   159  ALA159      0.1694
    111  C         21.5220  -29.9170    1.0660 C.2   159  ALA159      0.2591
    112  O         20.7080  -29.1900    0.4950 O.2   159  ALA159     -0.2718
    113  CB        23.5300  -30.3750   -0.2210 C.3   159  ALA159      0.0304
    114  N         21.1710  -31.0070    1.7270 N.am  160  GLN160     -0.1979
    115  CA        19.7760  -31.3600    1.8380 C.3   160  GLN160      0.1601
    116  C         19.3260  -31.1490    3.2860 C.2   160  GLN160      0.2287
    117  O         18.3480  -31.7740    3.6660 O.2   160  GLN160     -0.2864
    118  CB        19.6130  -32.8330    1.4810 C.3   160  GLN160      0.0394
    119  CG        20.1680  -33.2280    0.1440 C.3   160  GLN160      0.0908
    120  CD        19.9640  -34.6950   -0.1320 C.2   160  GLN160      0.2608
    121  OE1       19.4620  -35.4590    0.6860 O.2   160  GLN160     -0.2717
    122  NE2       20.3370  -35.0940   -1.3220 N.am  160  GLN160     -0.0878
    123  N         23.8380  -26.2660   -0.3580 N.3   181  SER181     -0.1217
    124  CA        23.3260  -26.0320   -1.7010 C.3   181  SER181      0.1889
    125  C         22.0760  -25.2530   -1.3980 C.2   181  SER181      0.2288
    126  O         21.3610  -25.5380   -0.4260 O.2   181  SER181     -0.2866
    127  CB        22.8180  -27.2810   -2.4200 C.3   181  SER181      0.2089
    128  OG        22.0500  -26.8250   -3.5210 O.3   181  SER181     -0.2183
    129  N         20.2520  -24.7880   -4.2440 N.3   183  TYR183     -0.1228
    130  CA        19.6640  -25.1610   -5.5270 C.3   183  TYR183      0.1721
    131  C         18.1440  -24.8720   -5.3780 C.2   183  TYR183      0.2437
    132  O         17.6260  -24.9520   -4.2550 O.2   183  TYR183     -0.2733
    133  CB        20.0040  -26.6500   -5.6880 C.3   183  TYR183      0.0547
    134  CG        19.3520  -27.2730   -6.8770 C.ar  183  TYR183     -0.0200
    135  CD1       19.9540  -27.1150   -8.1300 C.ar  183  TYR183     -0.0009
    136  CD2       18.1670  -28.0370   -6.7760 C.ar  183  TYR183     -0.0009
    137  CE1       19.3910  -27.6330   -9.2700 C.ar  183  TYR183      0.0417
    138  CE2       17.5840  -28.6150   -7.9470 C.ar  183  TYR183      0.0417
    139  CZ        18.2300  -28.3860   -9.1660 C.ar  183  TYR183      0.1957
    140  OH        17.7750  -28.9080  -10.3440 O.3   183  TYR183     -0.2866
    141  N         17.4210  -24.4890   -6.4380 N.am  184  PRO184     -0.2718
    142  CA        16.0120  -24.1730   -6.2900 C.3   184  PRO184      0.1535
    143  C         15.0650  -25.0050   -5.4210 C.2   184  PRO184      0.2598
    144  O         14.2120  -24.4850   -4.6900 O.2   184  PRO184     -0.2715
    145  CB        15.5720  -24.0660   -7.7500 C.3   184  PRO184      0.0310
    146  CG        16.6800  -23.2720   -8.3350 C.3   184  PRO184      0.0237
    147  CD        17.9160  -23.8760   -7.6860 C.3   184  PRO184      0.0939
    148  N         15.2390  -26.3150   -5.5230 N.am  185  ALA185     -0.1964
    149  CA        14.4690  -27.3330   -4.8170 C.3   185  ALA185      0.1728
    150  C         14.8230  -27.6730   -3.3560 C.2   185  ALA185      0.2616
    151  O         14.2260  -28.5760   -2.7560 O.2   185  ALA185     -0.2715
    152  CB        14.3300  -28.5750   -5.6970 C.3   185  ALA185      0.0334
    153  N         15.7500  -26.9260   -2.7650 N.am  186  LYS186     -0.1977
    154  CA        16.1100  -27.2110   -1.3830 C.3   186  LYS186      0.1596
    155  C         15.1030  -26.6430   -0.3700 C.2   186  LYS186      0.2287
    156  O         14.1930  -25.9010   -0.7630 O.2   186  LYS186     -0.2864
    157  CB        17.5510  -26.7650   -1.0770 C.3   186  LYS186      0.0298
    158  CG        18.6380  -27.3580   -1.9490 C.3   186  LYS186      0.0038
    159  CD        18.6360  -28.8600   -1.9270 C.3   186  LYS186      0.0206
    160  CE        18.9740  -29.3410   -3.3200 C.3   186  LYS186      0.1093
    161  NZ        20.1590  -30.1610   -3.0370 N.3   186  LYS186     -0.1314
    162  N         21.3300  -21.0710   -9.2700 N.3   193  ASP193     -0.1225
    163  CA        22.2930  -21.9760   -8.6560 C.3   193  ASP193      0.1805
    164  C         22.9070  -21.1810   -7.4820 C.2   193  ASP193      0.2598
    165  O         23.1770  -19.9790   -7.5660 O.2   193  ASP193     -0.2718
    166  CB        23.3270  -22.4570   -9.6850 C.3   193  ASP193      0.1424
    167  CG        23.0100  -23.8390  -10.3090 C.2   193  ASP193      0.3668
    168  OD1       23.0080  -24.9050   -9.6420 O.co2 193  ASP193     -0.2456
    169  OD2       22.8780  -23.8770  -11.5390 O.co2 193  ASP193     -0.2456
    170  N         23.0940  -21.8020   -6.3280 N.am  194  GLY194     -0.1957
    171  CA        23.6310  -21.0700   -5.1710 C.3   194  GLY194      0.1869
    172  C         24.1560  -22.0820   -4.1470 C.2   194  GLY194      0.2309
    173  O         23.7580  -23.2490   -4.1500 O.2   194  GLY194     -0.2863
    174  N         13.7120  -33.0660    3.4940 N.3   283  TYR283     -0.1241
    175  CA        13.9740  -32.4800    2.1860 C.3   283  TYR283      0.1605
    176  C         13.2150  -33.4660    1.3020 C.2   283  TYR283      0.2264
    177  O         12.5080  -33.0830    0.3830 O.2   283  TYR283     -0.2867
    178  CB        15.4890  -32.4410    1.8790 C.3   283  TYR283      0.0534
    179  CG        15.9080  -32.3880    0.4140 C.ar  283  TYR283     -0.0201
    180  CD1       15.5150  -31.3450   -0.4280 C.ar  283  TYR283     -0.0009
    181  CD2       16.6920  -33.3960   -0.1300 C.ar  283  TYR283     -0.0009
    182  CE1       15.9050  -31.3290   -1.7650 C.ar  283  TYR283      0.0417
    183  CE2       17.0750  -33.3900   -1.4540 C.ar  283  TYR283      0.0417
    184  CZ        16.7010  -32.3580   -2.2710 C.ar  283  TYR283      0.1957
    185  OH        17.1560  -32.4440   -3.5720 O.3   283  TYR283     -0.2866
    186  N         10.1820  -39.2910   -7.6200 N.3   307  LEU307     -0.1231
    187  CA        11.5370  -39.1710   -8.1390 C.3   307  LEU307      0.1693
    188  C         12.2550  -40.1750   -7.2950 C.2   307  LEU307      0.2592
    189  O         11.7290  -40.5110   -6.2310 O.2   307  LEU307     -0.2718
    190  CB        12.1970  -37.8180   -7.8220 C.3   307  LEU307      0.0284
    191  CG        12.2620  -36.7010   -8.8750 C.3   307  LEU307      0.0019
    192  CD1       13.2640  -35.6330   -8.4510 C.3   307  LEU307      0.0001
    193  CD2       12.5780  -37.2270  -10.2820 C.3   307  LEU307      0.0001
    194  N         13.4430  -40.5950   -7.7420 N.am  308  ILE308     -0.1966
    195  CA        14.3140  -41.4920   -6.9720 C.3   308  ILE308      0.1727
    196  C         15.6590  -40.8250   -6.6750 C.2   308  ILE308      0.2616
    197  O         16.2630  -40.1820   -7.5400 O.2   308  ILE308     -0.2715
    198  CB        14.6550  -42.7630   -7.7250 C.3   308  ILE308      0.0290
    199  CG1       13.4140  -43.2980   -8.4200 C.3   308  ILE308      0.0022
    200  CG2       15.3200  -43.7910   -6.7920 C.3   308  ILE308      0.0023
    201  CD1       13.7260  -44.4710   -9.3490 C.3   308  ILE308      0.0001
    202  N         16.1440  -41.0120   -5.4530 N.am  309  HIS309     -0.1959
    203  CA        17.4250  -40.4390   -5.0250 C.3   309  HIS309      0.1787
    204  C         18.2690  -41.5280   -4.3380 C.2   309  HIS309      0.2620
    205  O         18.2270  -41.6680   -3.1180 O.2   309  HIS309     -0.2715
    206  CB        17.1580  -39.2480   -4.0340 C.3   309  HIS309      0.0785
    207  CG        16.3760  -38.0970   -4.6030 C.ar  309  HIS309      0.0821
    208  ND1       15.0160  -37.9370   -4.4170 N.ar  309  HIS309     -0.2267
    209  CD2       16.7760  -37.0430   -5.3510 C.ar  309  HIS309      0.1154
    210  CE1       14.6110  -36.8490   -5.0440 C.ar  309  HIS309      0.1986
    211  NE2       15.6620  -36.2910   -5.6190 N.ar  309  HIS309     -0.2212
    212  N         19.0460  -42.3160   -5.0750 N.am  310  TYR310     -0.1974
    213  CA        19.2030  -42.2450   -6.5170 C.3   310  TYR310      0.1639
    214  C         19.2680  -43.6810   -6.9750 C.2   310  TYR310      0.2290
    215  O         19.9470  -44.4980   -6.3750 O.2   310  TYR310     -0.2864
    216  CB        20.5360  -41.5270   -6.7910 C.3   310  TYR310      0.0560
    217  CG        20.5520  -40.2010   -6.0220 C.ar  310  TYR310     -0.0198
    218  CD1       20.9590  -40.1370   -4.6810 C.ar  310  TYR310     -0.0009
    219  CD2       20.0350  -39.0320   -6.5960 C.ar  310  TYR310     -0.0009
    220  CE1       20.9330  -38.9370   -3.9500 C.ar  310  TYR310      0.0417
    221  CE2       20.0040  -37.8310   -5.8830 C.ar  310  TYR310      0.0417
    222  CZ        20.4490  -37.7970   -4.5710 C.ar  310  TYR310      0.1957
    223  OH        20.3650  -36.6020   -3.9050 O.3   310  TYR310     -0.2866
@<TRIPOS>BOND
     1   169   167   ar
     2   140   139    1
     3   167   166    1
     4   167   168   ar
     5   193   191    1
     6   166   163    1
     7   201   199    1
     8   137   139   ar
     9   137   135   ar
    10   162   163    1
    11   139   138   ar
    12    35    33   am
    13   191   192    1
    14   191   190    1
    15   163   164    1
    16    46    45    1
    17   199   198    1
    18    73    71   ar
    19    73    72   ar
    20   146   145    1
    21   146   147    1
    22   187   190    1
    23   187   186    1
    24   187   188    1
    25   135   134   ar
    26    71    69   ar
    27   138   136   ar
    28    15    14    2
    29     1     2    1
    30   145   142    1
    31   194   188   am
    32   194   195    1
    33   198   195    1
    34   198   200    1
    35    33    34    2
    36    33    32    1
    37   147   141    1
    38   165   164    2
    39   197   196    2
    40     5     2    1
    41     5     6    1
    42   164   170   am
    43    26    24   ar
    44    26    27   ar
    45    72    70   ar
    46   188   189    2
    47    45    47    1
    48    45    44    1
    49    24    22   ar
    50    32    29    1
    51   214   213    1
    52   214   215    2
    53   195   196    1
    54    27    25   ar
    55   134   136   ar
    56   134   133    1
    57     2     3    1
    58    69    68   ar
    59   216   213    1
    60   216   217    1
    61    12    13    1
    62    12     3   am
    63    14    13    1
    64   196   202   am
    65   219   217   ar
    66   219   221   ar
    67    44    41    1
    68     6     8   ar
    69     6     7   ar
    70   213   212    1
    71    22    21    1
    72    22    23   ar
    73     8    10   ar
    74   141   142    1
    75   141   131   am
    76    74    75    1
    77    21    18    1
    78   170   171    1
    79   142   143    1
    80    25    23   ar
    81    16    13    1
    82    75    78    1
    83    75    76    1
    84    70    68   ar
    85     3     4    2
    86   217   218   ar
    87    17    18    1
    88   221   222   ar
    89    68    67    1
    90    28    29    1
    91   152   149    1
    92   133   130    1
    93    29    30    1
    94     7     9   ar
    95   211   209   ar
    96   211   210   ar
    97    10    11   ar
    98   130   131    1
    99   130   129    1
   100   148   143   am
   101   148   149    1
   102   202   203    1
   103   143   144    2
   104   131   132    2
   105   209   207   ar
   106    18    19    1
   107    19    20    2
   108   171   172    1
   109    77    76    2
   110    41    42    1
   111    41    40    1
   112   212   204   am
   113    76    79   am
   114   210   208   ar
   115   203   204    1
   116   203   206    1
   117    65    64    1
   118    65    66    2
   119   149   150    1
   120    42    43    2
   121   218   220   ar
   122     9    11   ar
   123    40    38   am
   124   207   208   ar
   125   207   206    1
   126   222   220   ar
   127   222   223    1
   128    30    36   am
   129    30    31    2
   130    67    64    1
   131    64    63    1
   132   204   205    2
   133    36    37    1
   134   173   172    2
   135    79    80    1
   136    59    58    2
   137   185   184    1
   138   128   127    1
   139    38    37    1
   140    38    39    2
   141   150   153   am
   142   150   151    2
   143    81    80    1
   144    81    82    2
   145   160   161    1
   146   160   159    1
   147    63    58   am
   148    80    83    1
   149    58    57    1
   150   153   154    1
   151   127   124    1
   152   184   182   ar
   153   184   183   ar
   154   158   159    1
   155   158   157    1
   156   182   180   ar
   157    83    84    1
   158    83    85    1
   159   124   125    1
   160   124   123    1
   161   183   181   ar
   162    54    53    1
   163   125   126    2
   164   154   157    1
   165   154   155    1
   166    57    56    1
   167    57    60    1
   168   122   120   am
   169    50    49    1
   170    50    51    2
   171    48    49    1
   172    52    49    1
   173    52    53    1
   174    62    60    1
   175    61    60    1
   176   156   155    2
   177    53    55    1
   178   180   179   ar
   179   113   110    1
   180   120   119    1
   181   120   121    2
   182   181   179   ar
   183   108   106   ar
   184   119   118    1
   185   177   176    2
   186   179   178    1
   187   112   111    2
   188    99    98    1
   189   110   111    1
   190   110   109    1
   191   106   107   ar
   192   106   105    1
   193   111   114   am
   194   100    98    1
   195   176   175    1
   196   118   115    1
   197    98    97    1
   198   114   115    1
   199   115   116    1
   200   178   175    1
   201   175   174    1
   202   105   102    1
   203    92    90    1
   204    91    90    1
   205    97    94    1
   206    90    87    1
   207   116   117    2
   208   102   103    1
   209   102   101    1
   210    94    95    1
   211    94    93    1
   212   103   104    2
   213    95    96    2
   214    87    86    1
   215    87    88    1
   216    88    89    2
