@<TRIPOS>MOLECULE
tmp/3frmF01.pdb
 100 98 0 0 0
SMALL
GASTEIGER

@<TRIPOS>ATOM
      1  N         27.3560   36.2310   72.9750 N.3   185  PHE185     -0.1227
      2  CA        28.2660   35.7070   72.0050 C.3   185  PHE185      0.1736
      3  C         28.8570   34.3930   72.4900 C.2   185  PHE185      0.2596
      4  O         29.2750   34.3000   73.6260 O.2   185  PHE185     -0.2718
      5  CB        29.3590   36.6900   71.7070 C.3   185  PHE185      0.0547
      6  CG        30.2620   36.2410   70.6370 C.ar  185  PHE185     -0.0202
      7  CD1       29.7520   35.6470   69.4960 C.ar  185  PHE185     -0.0042
      8  CD2       31.6230   36.4190   70.7470 C.ar  185  PHE185     -0.0042
      9  CE1       30.6100   35.2230   68.4900 C.ar  185  PHE185     -0.0003
     10  CE2       32.4800   36.0110   69.7400 C.ar  185  PHE185     -0.0003
     11  CZ        31.9750   35.4130   68.6170 C.ar  185  PHE185     -0.0000
     12  N         28.8580   33.3710   71.6430 N.am  186  GLY186     -0.1942
     13  CA        29.4560   32.1050   72.0530 C.3   186  GLY186      0.2014
     14  C         29.7380   31.1500   70.9200 C.2   186  GLY186      0.2638
     15  O         28.9930   31.0920   69.9370 O.2   186  GLY186     -0.2714
     16  N         30.8330   30.4110   71.0340 N.am  187  VAL187     -0.1977
     17  CA        31.0860   29.3210   70.1000 C.3   187  VAL187      0.1596
     18  C         31.4790   28.0500   70.8600 C.2   187  VAL187      0.2287
     19  O         32.1530   28.1510   71.8710 O.2   187  VAL187     -0.2864
     20  CB        32.1780   29.6760   69.1080 C.3   187  VAL187      0.0276
     21  CG1       32.0460   31.1170   68.6160 C.3   187  VAL187      0.0022
     22  CG2       33.4830   29.4460   69.7240 C.3   187  VAL187      0.0022
     23  N         35.6740   24.6740   68.0670 N.3   191  PHE191     -0.1227
     24  CA        35.6330   25.4280   66.8300 C.3   191  PHE191      0.1736
     25  C         36.1950   26.8080   67.1040 C.2   191  PHE191      0.2595
     26  O         36.1750   27.7430   66.2740 O.2   191  PHE191     -0.2718
     27  CB        34.1990   25.3610   66.2540 C.3   191  PHE191      0.0547
     28  CG        33.7290   23.9130   65.9740 C.ar  191  PHE191     -0.0202
     29  CD1       33.9070   23.3300   64.7080 C.ar  191  PHE191     -0.0042
     30  CD2       33.1800   23.1270   66.9940 C.ar  191  PHE191     -0.0042
     31  CE1       33.5180   22.0090   64.4610 C.ar  191  PHE191     -0.0003
     32  CE2       32.7830   21.8070   66.7590 C.ar  191  PHE191     -0.0003
     33  CZ        32.9600   21.2470   65.4900 C.ar  191  PHE191     -0.0000
     34  N         36.8050   26.8770   68.2780 N.am  192  GLN192     -0.1965
     35  CA        37.1100   28.1280   68.8950 C.3   192  GLN192      0.1733
     36  C         38.2630   28.9170   68.3240 C.2   192  GLN192      0.2616
     37  O         38.3910   30.1060   68.6080 O.2   192  GLN192     -0.2715
     38  CB        37.2590   27.9400   70.4000 C.3   192  GLN192      0.0408
     39  CG        35.9160   28.0540   71.1080 C.3   192  GLN192      0.0908
     40  CD        36.0420   28.3520   72.5770 C.2   192  GLN192      0.2608
     41  OE1       37.1280   28.6780   73.0760 O.2   192  GLN192     -0.2717
     42  NE2       34.9250   28.2640   73.2870 N.am  192  GLN192     -0.0878
     43  N         39.1080   28.3010   67.5240 N.am  193  HIS193     -0.1959
     44  CA        40.3250   29.0200   67.1820 C.3   193  HIS193      0.1787
     45  C         40.4730   29.1220   65.6840 C.2   193  HIS193      0.2620
     46  O         41.5810   29.1120   65.1290 O.2   193  HIS193     -0.2715
     47  CB        41.5160   28.4090   67.9310 C.3   193  HIS193      0.0785
     48  CG        41.3050   28.3920   69.4170 C.ar  193  HIS193      0.0821
     49  ND1       41.8130   29.3600   70.2570 N.ar  193  HIS193     -0.2267
     50  CD2       40.5640   27.5730   70.2020 C.ar  193  HIS193      0.1154
     51  CE1       41.4230   29.1190   71.4980 C.ar  193  HIS193      0.1986
     52  NE2       40.6550   28.0470   71.4900 N.ar  193  HIS193     -0.2212
     53  N         39.3110   29.2440   65.0480 N.am  194  GLN194     -0.1963
     54  CA        39.2010   29.0950   63.6130 C.3   194  GLN194      0.1733
     55  C         38.7120   30.3760   62.9340 C.2   194  GLN194      0.2616
     56  O         38.9190   30.5780   61.7380 O.2   194  GLN194     -0.2715
     57  CB        38.3500   27.8660   63.2860 C.3   194  GLN194      0.0408
     58  CG        38.5420   26.7290   64.3030 C.3   194  GLN194      0.0908
     59  CD        38.0770   25.3550   63.8160 C.2   194  GLN194      0.2608
     60  OE1       37.3890   25.2320   62.7990 O.2   194  GLN194     -0.2717
     61  NE2       38.4660   24.3060   64.5520 N.am  194  GLN194     -0.0878
     62  N         38.1000   31.2600   63.7060 N.am  195  GLY195     -0.1955
     63  CA        37.6980   32.5510   63.1770 C.3   195  GLY195      0.1869
     64  C         36.1990   32.6200   63.0770 C.2   195  GLY195      0.2309
     65  O         35.6470   33.6000   62.5750 O.2   195  GLY195     -0.2863
     66  N         34.1660   32.8910   65.5450 N.3   197  GLY197     -0.1210
     67  CA        33.9760   34.0980   66.3330 C.3   197  GLY197      0.1956
     68  C         34.0980   35.3410   65.4800 C.2   197  GLY197      0.2612
     69  O         33.2920   36.2540   65.5670 O.2   197  GLY197     -0.2717
     70  N         35.0830   35.3330   64.6100 N.am  198  SER198     -0.1952
     71  CA        35.4520   36.5140   63.8450 C.3   198  SER198      0.1924
     72  C         34.5290   36.7740   62.6290 C.2   198  SER198      0.2314
     73  O         34.2870   37.9250   62.2330 O.2   198  SER198     -0.2863
     74  CB        36.9460   36.4020   63.4540 C.3   198  SER198      0.2116
     75  OG        37.6520   35.6700   64.4650 O.3   198  SER198     -0.2180
     76  N         37.0300   36.1040   76.0810 N.3   222  ALA222     -0.1245
     77  CA        36.6160   36.9390   74.9590 C.3   222  ALA222      0.1562
     78  C         37.1670   38.3580   74.9690 C.2   222  ALA222      0.2260
     79  O         37.4880   38.9150   73.9000 O.2   222  ALA222     -0.2867
     80  CB        35.1030   37.0000   74.9200 C.3   222  ALA222      0.0290
     81  N         42.0340   42.6690   70.4140 N.3   227  ARG227     -0.1231
     82  CA        42.8090   42.3560   69.2160 C.3   227  ARG227      0.1694
     83  C         41.9900   42.6790   67.9940 C.2   227  ARG227      0.2591
     84  O         42.4930   43.1250   66.9780 O.2   227  ARG227     -0.2718
     85  CB        43.2320   40.8840   69.2070 C.3   227  ARG227      0.0321
     86  CG        44.6920   40.6400   69.6750 C.3   227  ARG227      0.0489
     87  CD        45.1120   39.1490   69.6320 C.3   227  ARG227      0.2205
     88  NE        44.3130   38.3340   70.5580 N.pl3 227  ARG227     -0.0865
     89  CZ        43.3600   37.4610   70.2040 C.cat 227  ARG227      0.5346
     90  NH1       43.0590   37.2260   68.9210 N.pl3 227  ARG227      0.1354
     91  NH2       42.7100   36.7990   71.1540 N.pl3 227  ARG227      0.1354
     92  N         40.7030   42.4800   68.1150 N.am  228  GLN228     -0.1979
     93  CA        39.7890   42.9040   67.0800 C.3   228  GLN228      0.1601
     94  C         39.6500   44.4290   66.9610 C.2   228  GLN228      0.2287
     95  O         39.3410   44.9370   65.8880 O.2   228  GLN228     -0.2864
     96  CB        38.4460   42.2320   67.2750 C.3   228  GLN228      0.0394
     97  CG        38.5400   40.7120   67.2110 C.3   228  GLN228      0.0908
     98  CD        37.1910   40.0190   67.4060 C.2   228  GLN228      0.2608
     99  OE1       36.2410   40.5810   67.9850 O.2   228  GLN228     -0.2717
    100  NE2       37.0990   38.7910   66.9120 N.am  228  GLN228     -0.0878
@<TRIPOS>BOND
     1    56    55    2
     2    73    72    2
     3    65    64    2
     4    72    71    1
     5    60    59    2
     6    55    54    1
     7    55    62   am
     8    64    63    1
     9    63    62    1
    10    57    54    1
    11    57    58    1
    12    74    71    1
    13    74    75    1
    14    54    53    1
    15    59    58    1
    16    59    61   am
    17    71    70    1
    18    31    29   ar
    19    31    33   ar
    20    70    68   am
    21    29    28   ar
    22    53    45   am
    23    46    45    2
    24    68    69    2
    25    68    67    1
    26    33    32   ar
    27    66    67    1
    28    45    44    1
    29    95    94    2
    30    28    27    1
    31    28    30   ar
    32    27    24    1
    33    26    25    2
    34    32    30   ar
    35    24    25    1
    36    24    23    1
    37   100    98   am
    38    94    93    1
    39    84    83    2
    40    93    96    1
    41    93    92    1
    42    25    34   am
    43    44    43    1
    44    44    47    1
    45    97    96    1
    46    97    98    1
    47    98    99    2
    48    43    36   am
    49    47    48    1
    50    83    92   am
    51    83    82    1
    52    34    35    1
    53    36    37    2
    54    36    35    1
    55     9    11   ar
    56     9     7   ar
    57    21    20    1
    58    11    10   ar
    59    35    38    1
    60    90    89    1
    61    20    22    1
    62    20    17    1
    63    85    82    1
    64    85    86    1
    65    82    81    1
    66    48    50   ar
    67    48    49   ar
    68     7     6   ar
    69    87    86    1
    70    87    88    1
    71    10     8   ar
    72    15    14    2
    73    17    18    1
    74    17    16    1
    75    50    52   ar
    76    89    88    2
    77    89    91    1
    78    49    51   ar
    79    38    39    1
    80     6     8   ar
    81     6     5    1
    82    18    19    2
    83    14    16   am
    84    14    13    1
    85    39    40    1
    86    52    51   ar
    87    12    13    1
    88    12     3   am
    89     5     2    1
    90     2     3    1
    91     2     1    1
    92     3     4    2
    93    40    41    2
    94    40    42   am
    95    79    78    2
    96    80    77    1
    97    77    78    1
    98    77    76    1
