@<TRIPOS>MOLECULE
tmp/3froB00.pdb
 108 104 0 0 0
SMALL
GASTEIGER

@<TRIPOS>ATOM
      1  N         34.1080   43.8290  -61.1710 N.3    19  GLY19      -0.1210
      2  CA        35.5390   44.1400  -61.1970 C.3    19  GLY19       0.1956
      3  C         36.0580   44.7640  -59.9090 C.2    19  GLY19       0.2611
      4  O         37.2690   44.9530  -59.7520 O.2    19  GLY19      -0.2717
      5  N         35.1450   45.0830  -58.9900 N.am   20  LEU20      -0.1979
      6  CA        35.4960   45.7120  -57.7170 C.3    20  LEU20       0.1596
      7  C         36.4370   44.8420  -56.8890 C.2    20  LEU20       0.2287
      8  O         37.4410   45.3340  -56.3700 O.2    20  LEU20      -0.2864
      9  CB        34.2280   46.0170  -56.9110 C.3    20  LEU20       0.0297
     10  CG        34.4110   46.5860  -55.4980 C.3    20  LEU20       0.0022
     11  CD1       35.3370   47.7860  -55.5090 C.3    20  LEU20       0.0001
     12  CD2       33.0630   46.9530  -54.8910 C.3    20  LEU20       0.0001
     13  N         39.8510   44.9440  -58.2160 N.3    23  ALA23      -0.1245
     14  CA        40.4200   46.2690  -57.9910 C.3    23  ALA23       0.1562
     15  C         40.9770   46.4010  -56.5740 C.2    23  ALA23       0.2260
     16  O         42.1150   46.8410  -56.3870 O.2    23  ALA23      -0.2867
     17  CB        39.3730   47.3440  -58.2480 C.3    23  ALA23       0.0290
     18  N         33.9830   53.8750  -56.3820 N.3   153  HIS153     -0.1226
     19  CA        34.1930   53.0620  -57.5830 C.3   153  HIS153      0.1752
     20  C         33.0020   53.1220  -58.5430 C.2   153  HIS153      0.2595
     21  O         33.1640   52.9800  -59.7530 O.2   153  HIS153     -0.2718
     22  CB        34.4660   51.6080  -57.1870 C.3   153  HIS153      0.0759
     23  CG        35.7840   51.4120  -56.5090 C.ar  153  HIS153      0.0818
     24  ND1       36.8930   50.9210  -57.1650 N.ar  153  HIS153     -0.2268
     25  CD2       36.1790   51.6650  -55.2400 C.ar  153  HIS153      0.1154
     26  CE1       37.9110   50.8710  -56.3250 C.ar  153  HIS153      0.1986
     27  NE2       37.5040   51.3190  -55.1510 N.ar  153  HIS153     -0.2212
     28  N         31.8080   53.3110  -57.9950 N.am  154  ARG154     -0.1980
     29  CA        30.6040   53.4860  -58.7980 C.3   154  ARG154      0.1597
     30  C         29.5980   54.2870  -57.9880 C.2   154  ARG154      0.2287
     31  O         29.4590   54.0780  -56.7820 O.2   154  ARG154     -0.2864
     32  CB        30.0160   52.1280  -59.1880 C.3   154  ARG154      0.0334
     33  CG        28.6560   52.1930  -59.8890 C.3   154  ARG154      0.0492
     34  CD        28.0980   50.7990  -60.1520 C.3   154  ARG154      0.2205
     35  NE        26.6480   50.8120  -60.3620 N.pl3 154  ARG154     -0.0865
     36  CZ        25.7340   50.9420  -59.3960 C.cat 154  ARG154      0.5346
     37  NH1       26.0940   51.0830  -58.1210 N.pl3 154  ARG154      0.1354
     38  NH2       24.4410   50.9400  -59.7080 N.pl3 154  ARG154      0.1354
     39  N         37.7930   56.5690  -59.5180 N.3   195  VAL195     -0.1245
     40  CA        38.7010   55.6640  -60.2250 C.3   195  VAL195      0.1561
     41  C         39.1710   56.1540  -61.6010 C.2   195  VAL195      0.2260
     42  O         39.9910   55.4900  -62.2410 O.2   195  VAL195     -0.2867
     43  CB        38.0890   54.2500  -60.3430 C.3   195  VAL195      0.0252
     44  CG1       37.9270   53.6480  -58.9650 C.3   195  VAL195      0.0019
     45  CG2       36.7530   54.2980  -61.0680 C.3   195  VAL195      0.0019
     46  N         42.7370   53.2770  -61.6190 N.3   219  ASN219     -0.1240
     47  CA        42.9950   51.8480  -61.4280 C.3   219  ASN219      0.1653
     48  C         44.1530   51.4040  -62.3310 C.2   219  ASN219      0.2266
     49  O         44.6000   52.1490  -63.2080 O.2   219  ASN219     -0.2867
     50  CB        41.7420   51.0040  -61.7270 C.3   219  ASN219      0.1155
     51  CG        40.7780   50.9170  -60.5500 C.2   219  ASN219      0.2627
     52  OD1       39.5930   50.6480  -60.7340 O.2   219  ASN219     -0.2716
     53  ND2       41.2810   51.1280  -59.3420 N.am  219  ASN219     -0.0877
     54  N         26.0080   48.4510  -68.3370 N.3   265  LYS265     -0.1245
     55  CA        27.0500   47.8820  -69.2070 C.3   265  LYS265      0.1561
     56  C         26.6510   47.8320  -70.6850 C.2   265  LYS265      0.2260
     57  O         27.4990   47.6210  -71.5520 O.2   265  LYS265     -0.2867
     58  CB        27.4600   46.4900  -68.7170 C.3   265  LYS265      0.0271
     59  CG        28.0330   46.4750  -67.3000 C.3   265  LYS265      0.0035
     60  CD        29.4350   47.0770  -67.2360 C.3   265  LYS265      0.0206
     61  CE        29.8380   47.3900  -65.8030 C.3   265  LYS265      0.1093
     62  NZ        31.2250   47.9240  -65.7120 N.3   265  LYS265     -0.1314
     63  N         30.8690   54.6390  -67.4290 N.3   341  GLU341     -0.1231
     64  CA        31.9810   53.7590  -67.0700 C.3   341  GLU341      0.1684
     65  C         32.9650   54.4340  -66.1130 C.2   341  GLU341      0.2434
     66  O         33.8000   55.2270  -66.5420 O.2   341  GLU341     -0.2733
     67  CB        32.7120   53.3050  -68.3370 C.3   341  GLU341      0.0402
     68  CG        33.6990   52.1640  -68.1220 C.3   341  GLU341      0.1161
     69  CD        33.0190   50.8110  -68.0140 C.2   341  GLU341      0.3649
     70  OE1       32.3220   50.5690  -67.0070 O.co2 341  GLU341     -0.2457
     71  OE2       33.1900   49.9880  -68.9380 O.co2 341  GLU341     -0.2457
     72  N         32.8770   54.1150  -64.8090 N.am  342  PRO342     -0.2718
     73  CA        33.8220   54.6680  -63.8370 C.3   342  PRO342      0.1535
     74  C         35.2970   54.4480  -64.1890 C.2   342  PRO342      0.2599
     75  O         36.1110   55.3500  -63.9780 O.2   342  PRO342     -0.2715
     76  CB        33.4600   53.9400  -62.5390 C.3   342  PRO342      0.0310
     77  CG        32.0450   53.5410  -62.7060 C.3   342  PRO342      0.0237
     78  CD        31.8800   53.2410  -64.1640 C.3   342  PRO342      0.0939
     79  N         35.6340   53.2690  -64.7100 N.am  343  PHE343     -0.1960
     80  CA        36.9980   52.9920  -65.1600 C.3   343  PHE343      0.1771
     81  C         37.0230   52.2070  -66.4740 C.2   343  PHE343      0.2620
     82  O         37.2550   52.7900  -67.5310 O.2   343  PHE343     -0.2715
     83  CB        37.7980   52.2660  -64.0730 C.3   343  PHE343      0.0574
     84  CG        39.2320   52.0110  -64.4480 C.ar  343  PHE343     -0.0200
     85  CD1       40.1320   53.0660  -64.5410 C.ar  343  PHE343     -0.0042
     86  CD2       39.6820   50.7240  -64.7110 C.ar  343  PHE343     -0.0042
     87  CE1       41.4580   52.8460  -64.8890 C.ar  343  PHE343     -0.0003
     88  CE2       41.0080   50.4940  -65.0580 C.ar  343  PHE343     -0.0003
     89  CZ        41.8970   51.5580  -65.1460 C.ar  343  PHE343     -0.0000
     90  N         36.7800   50.8990  -66.4100 N.am  344  GLY344     -0.1940
     91  CA        36.8520   50.0350  -67.5900 C.3   344  GLY344      0.2014
     92  C         37.9820   49.0260  -67.4970 C.2   344  GLY344      0.2639
     93  O         38.8520   48.9650  -68.3670 O.2   344  GLY344     -0.2714
     94  N         37.9520   48.2210  -66.4390 N.am  345  LEU345     -0.1963
     95  CA        38.9860   47.2180  -66.1880 C.3   345  LEU345      0.1728
     96  C         38.9920   46.1450  -67.2820 C.2   345  LEU345      0.2616
     97  O         40.0340   45.5600  -67.5770 O.2   345  LEU345     -0.2715
     98  CB        38.7800   46.5830  -64.8060 C.3   345  LEU345      0.0311
     99  CG        40.0170   46.1710  -64.0030 C.3   345  LEU345      0.0022
    100  CD1       40.8660   47.3810  -63.6500 C.3   345  LEU345      0.0001
    101  CD2       39.6050   45.4270  -62.7340 C.3   345  LEU345      0.0001
    102  N         37.8300   45.9020  -67.8880 N.am  346  VAL346     -0.1977
    103  CA        37.7250   44.9760  -69.0180 C.3   346  VAL346      0.1596
    104  C         38.5590   45.4710  -70.2060 C.2   346  VAL346      0.2287
    105  O         39.1750   44.6680  -70.9150 O.2   346  VAL346     -0.2864
    106  CB        36.2480   44.7650  -69.4530 C.3   346  VAL346      0.0276
    107  CG1       36.1660   43.9300  -70.7240 C.3   346  VAL346      0.0022
    108  CG2       35.4560   44.1010  -68.3400 C.3   346  VAL346      0.0022
@<TRIPOS>BOND
     1    57    56    2
     2   105   104    2
     3   107   106    1
     4    56    55    1
     5   104   103    1
     6   106   103    1
     7   106   108    1
     8    55    58    1
     9    55    54    1
    10   103   102    1
    11    71    69   ar
    12    58    59    1
    13    93    92    2
    14    67    68    1
    15    67    64    1
    16    68    69    1
    17    69    70   ar
    18   102    96   am
    19    91    92    1
    20    91    90    1
    21    97    96    2
    22    82    81    2
    23    92    94   am
    24    63    64    1
    25    59    60    1
    26    96    95    1
    27    60    61    1
    28    64    65    1
    29    66    65    2
    30    81    90   am
    31    81    80    1
    32    94    95    1
    33    95    98    1
    34    65    72   am
    35    61    62    1
    36    80    79    1
    37    80    83    1
    38    89    88   ar
    39    89    87   ar
    40    88    86   ar
    41    87    85   ar
    42    72    78    1
    43    72    73    1
    44    98    99    1
    45    86    84   ar
    46    79    74   am
    47    85    84   ar
    48    84    83    1
    49    74    75    2
    50    74    73    1
    51    78    77    1
    52    99   100    1
    53    99   101    1
    54    73    76    1
    55    49    48    2
    56    77    76    1
    57    48    47    1
    58    42    41    2
    59    50    47    1
    60    50    51    1
    61    46    47    1
    62    41    40    1
    63     2     1    1
    64     2     3    1
    65    45    43    1
    66    52    51    2
    67    51    53   am
    68    35    34    1
    69    35    36    2
    70    43    40    1
    71    43    44    1
    72    40    39    1
    73    34    33    1
    74     3     4    2
    75     3     5   am
    76    33    32    1
    77    21    20    2
    78    38    36    1
    79    36    37    1
    80    32    29    1
    81     5     6    1
    82    29    28    1
    83    29    30    1
    84    20    28   am
    85    20    19    1
    86    17    14    1
    87    13    14    1
    88    14    15    1
    89    30    31    2
    90     6     9    1
    91     6     7    1
    92    19    22    1
    93    19    18    1
    94    22    23    1
    95    24    23   ar
    96    24    26   ar
    97     9    10    1
    98     7     8    2
    99    15    16    2
   100    23    25   ar
   101    26    27   ar
   102    11    10    1
   103    10    12    1
   104    25    27   ar
