@<TRIPOS>MOLECULE
tmp/3frqA00.pdb
 203 191 0 0 0
SMALL
GASTEIGER

@<TRIPOS>ATOM
      1  N         19.5800   -3.8310   19.6630 N.3    13  THR13      -0.1218
      2  CA        18.6530   -2.7040   19.4230 C.3    13  THR13       0.1862
      3  C         18.9510   -2.0690   18.0580 C.2    13  THR13       0.2287
      4  O         18.0440   -1.7000   17.3150 O.2    13  THR13      -0.2866
      5  CB        18.7320   -1.7020   20.5560 C.3    13  THR13       0.1770
      6  OG1       18.4940   -2.4090   21.7870 O.3    13  THR13      -0.2211
      7  CG2       17.6970   -0.6280   20.4490 C.3    13  THR13       0.0375
      8  N         17.3400   -4.3950   15.6310 N.3    16  LEU16      -0.1231
      9  CA        15.8740   -4.1860   15.6720 C.3    16  LEU16       0.1693
     10  C         15.4590   -2.9290   14.8900 C.2    16  LEU16       0.2591
     11  O         14.4450   -2.9380   14.1520 O.2    16  LEU16      -0.2718
     12  CB        15.4130   -4.0880   17.1280 C.3    16  LEU16       0.0284
     13  CG        13.9600   -3.6470   17.2950 C.3    16  LEU16       0.0019
     14  CD1       13.0680   -4.7930   16.8470 C.3    16  LEU16       0.0001
     15  CD2       13.7280   -3.2750   18.7700 C.3    16  LEU16       0.0001
     16  N         16.2060   -1.8530   15.0540 N.am   17  LYS17      -0.1980
     17  CA        15.9310   -0.6090   14.3060 C.3    17  LYS17       0.1596
     18  C         16.1480   -0.7580   12.7980 C.2    17  LYS17       0.2287
     19  O         15.4520   -0.1210   11.9860 O.2    17  LYS17      -0.2864
     20  CB        16.7590    0.5090   14.8870 C.3    17  LYS17       0.0298
     21  CG        16.2930    0.9820   16.2000 C.3    17  LYS17       0.0038
     22  CD        17.4690    1.5270   16.9090 C.3    17  LYS17       0.0206
     23  CE        17.1460    2.6650   17.7540 C.3    17  LYS17       0.1093
     24  NZ        18.4580    3.3430   17.9410 N.3    17  LYS17      -0.1314
     25  N         13.8000   -4.2810   25.5960 N.3    55  MET55      -0.1245
     26  CA        12.7620   -3.2860   25.8900 C.3    55  MET55       0.1570
     27  C         12.7750   -2.8030   27.3380 C.2    55  MET55       0.2261
     28  O         12.4760   -1.6270   27.5810 O.2    55  MET55      -0.2867
     29  CB        11.3710   -3.7490   25.4350 C.3    55  MET55       0.0387
     30  CG        11.3050   -3.9330   23.9350 C.3    55  MET55       0.0595
     31  SD        11.8760   -2.4400   22.9850 S.3    55  MET55      -0.1393
     32  CE        11.0070   -2.7040   21.4320 C.3    55  MET55       0.0692
     33  N         15.3470   -0.3440   27.3220 N.3    58  GLY58      -0.1225
     34  CA        14.7580    0.8490   26.7070 C.3    58  GLY58       0.1811
     35  C         14.0740    1.7780   27.7250 C.2    58  GLY58       0.2280
     36  O         14.2620    3.0010   27.7110 O.2    58  GLY58      -0.2866
     37  N         16.6740    3.4670   29.8570 N.3    61  GLN61      -0.1231
     38  CA        17.3570    4.5080   29.1070 C.3    61  GLN61       0.1698
     39  C         16.4900    5.7500   28.9950 C.2    61  GLN61       0.2592
     40  O         16.9960    6.8780   29.1160 O.2    61  GLN61      -0.2718
     41  CB        17.6860    4.0400   27.7040 C.3    61  GLN61       0.0381
     42  CG        18.9260    3.1470   27.6350 C.3    61  GLN61       0.0905
     43  CD        19.3220    2.8820   26.2180 C.2    61  GLN61       0.2608
     44  OE1       18.4700    2.8340   25.3210 O.2    61  GLN61      -0.2717
     45  NE2       20.6310    2.7160   25.9820 N.am   61  GLN61      -0.0878
     46  N         15.1940    5.5500   28.7710 N.am   62  VAL62      -0.1980
     47  CA        14.2560    6.6960   28.7720 C.3    62  VAL62       0.1595
     48  C         14.3010    7.4260   30.0880 C.2    62  VAL62       0.2287
     49  O         14.4630    8.6440   30.1260 O.2    62  VAL62      -0.2864
     50  CB        12.7970    6.3100   28.4320 C.3    62  VAL62       0.0276
     51  CG1       11.9040    7.5530   28.5270 C.3    62  VAL62       0.0022
     52  CG2       12.7480    5.7460   27.0280 C.3    62  VAL62       0.0022
     53  N         17.6440    9.2090   30.5590 N.3    65  TYR65      -0.1227
     54  CA        17.8190   10.3230   29.6320 C.3    65  TYR65       0.1736
     55  C         17.0330   11.5350   30.1460 C.2    65  TYR65       0.2595
     56  O         17.5610   12.6390   30.2390 O.2    65  TYR65      -0.2718
     57  CB        17.3090    9.9300   28.2460 C.3    65  TYR65       0.0548
     58  CG        17.7450   10.8710   27.1490 C.ar   65  TYR65      -0.0200
     59  CD1       18.9250   10.6490   26.4690 C.ar   65  TYR65      -0.0009
     60  CD2       16.9670   11.9810   26.7920 C.ar   65  TYR65      -0.0009
     61  CE1       19.3310   11.4870   25.4710 C.ar   65  TYR65       0.0417
     62  CE2       17.3810   12.8360   25.7890 C.ar   65  TYR65       0.0417
     63  CZ        18.5520   12.5800   25.1300 C.ar   65  TYR65       0.1957
     64  OH        19.0110   13.4090   24.1130 O.3    65  TYR65      -0.2866
     65  N         15.7760   11.3190   30.4880 N.am   66  LEU66      -0.1980
     66  CA        14.9390   12.4070   31.0040 C.3    66  LEU66       0.1596
     67  C         15.5490   12.9990   32.2690 C.2    66  LEU66       0.2287
     68  O         15.5820   14.2100   32.4100 O.2    66  LEU66      -0.2864
     69  CB        13.5540   11.9070   31.2990 C.3    66  LEU66       0.0297
     70  CG        12.7200   11.3710   30.1520 C.3    66  LEU66       0.0022
     71  CD1       11.5080   10.6540   30.7310 C.3    66  LEU66       0.0001
     72  CD2       12.2860   12.5090   29.2230 C.3    66  LEU66       0.0001
     73  N         14.0650   16.8850   24.1970 N.3    85  LEU85      -0.1245
     74  CA        13.3040   15.6340   24.1050 C.3    85  LEU85       0.1561
     75  C         13.0080   15.2940   22.6380 C.2    85  LEU85       0.2260
     76  O         13.2050   14.1340   22.2160 O.2    85  LEU85      -0.2867
     77  CB        12.0230   15.7580   24.9390 C.3    85  LEU85       0.0270
     78  CG        11.0330   14.5920   24.8630 C.3    85  LEU85       0.0019
     79  CD1       11.6450   13.2280   25.2570 C.3    85  LEU85       0.0001
     80  CD2        9.7870   14.9240   25.7170 C.3    85  LEU85       0.0001
     81  N         16.0030   14.3240   20.5530 N.3    88  SER88      -0.1202
     82  CA        16.5650   13.0380   21.0120 C.3    88  SER88       0.2020
     83  C         16.1540   11.8750   20.1120 C.2    88  SER88       0.2619
     84  O         16.8020   10.8400   20.1300 O.2    88  SER88      -0.2717
     85  CB        16.1920   12.6950   22.4570 C.3    88  SER88       0.2103
     86  OG        14.8990   12.0800   22.5700 O.3    88  SER88      -0.2182
     87  N         15.1060   12.0650   19.3140 N.am   89  MET89      -0.1965
     88  CA        14.6310   10.9610   18.4630 C.3    89  MET89       0.1736
     89  C         15.5100   10.8630   17.2280 C.2    89  MET89       0.2616
     90  O         15.6140   11.8240   16.4810 O.2    89  MET89      -0.2715
     91  CB        13.1650   11.2230   18.0820 C.3    89  MET89       0.0427
     92  CG        12.2380   10.9990   19.2900 C.3    89  MET89       0.0599
     93  SD        10.5130   11.0370   18.7910 S.3    89  MET89      -0.1393
     94  CE        10.1930   12.7470   18.5350 C.3    89  MET89       0.0692
     95  N         16.1580    9.7110   17.0400 N.am   90  ASN90      -0.1972
     96  CA        17.1540    9.5340   15.9580 C.3    90  ASN90       0.1688
     97  C         16.4730    9.3300   14.6150 C.2    90  ASN90       0.2292
     98  O         15.5840    8.4810   14.5010 O.2    90  ASN90      -0.2864
     99  CB        18.0240    8.3170   16.2500 C.3    90  ASN90       0.1181
    100  CG        19.0930    8.0870   15.1610 C.2    90  ASN90       0.2629
    101  OD1       19.2380    8.8910   14.2360 O.2    90  ASN90      -0.2716
    102  ND2       19.8500    6.9960   15.2860 N.am   90  ASN90      -0.0877
    103  N         12.9180    6.0160    9.9920 N.3    95  PHE95      -0.1241
    104  CA        12.0910    6.2760   11.1580 C.3    95  PHE95       0.1605
    105  C         10.8100    5.4140   11.2020 C.2    95  PHE95       0.2264
    106  O         10.2280    5.1880   12.2810 O.2    95  PHE95      -0.2867
    107  CB        11.7240    7.7710   11.2310 C.3    95  PHE95       0.0534
    108  CG        11.2590    8.1950   12.5790 C.ar   95  PHE95      -0.0203
    109  CD1       12.1680    8.5900   13.5460 C.ar   95  PHE95      -0.0042
    110  CD2        9.8810    8.1810   12.9040 C.ar   95  PHE95      -0.0042
    111  CE1       11.7540    8.9870   14.8360 C.ar   95  PHE95      -0.0003
    112  CE2        9.4620    8.5300   14.1790 C.ar   95  PHE95      -0.0003
    113  CZ        10.4140    8.9640   15.1570 C.ar   95  PHE95      -0.0000
    114  N          9.8950    2.5440   13.7020 N.3    98  ASN98      -0.1225
    115  CA         9.2800    2.8190   15.0110 C.3    98  ASN98       0.1785
    116  C          7.7800    2.4320   15.0950 C.2    98  ASN98       0.2597
    117  O          7.3250    1.9800   16.1400 O.2    98  ASN98      -0.2718
    118  CB         9.5360    4.2830   15.3860 C.3    98  ASN98       0.1169
    119  CG        11.0100    4.5490   15.6880 C.2    98  ASN98       0.2627
    120  OD1       11.7580    3.6350   16.0910 O.2    98  ASN98      -0.2716
    121  ND2       11.4270    5.7840   15.5290 N.am   98  ASN98      -0.0877
    122  N          7.0320    2.6080   13.9990 N.am   99  TYR99      -0.1976
    123  CA         5.6130    2.2830   13.9580 C.3    99  TYR99       0.1639
    124  C          5.3870    0.7890   13.9750 C.2    99  TYR99       0.2290
    125  O          4.4380    0.2970   14.5890 O.2    99  TYR99      -0.2864
    126  CB         4.8690    3.0450   12.8100 C.3    99  TYR99       0.0560
    127  CG         4.9850    4.5330   13.1160 C.ar   99  TYR99      -0.0198
    128  CD1        4.1300    5.1440   14.0590 C.ar   99  TYR99      -0.0009
    129  CD2        6.0010    5.2920   12.5600 C.ar   99  TYR99      -0.0009
    130  CE1        4.2960    6.4640   14.4300 C.ar   99  TYR99       0.0417
    131  CE2        6.1470    6.6750   12.9290 C.ar   99  TYR99       0.0417
    132  CZ         5.2910    7.2220   13.8570 C.ar   99  TYR99       0.1957
    133  OH         5.4970    8.5210   14.2200 O.3    99  TYR99      -0.2866
    134  N          7.6260   -1.3260   15.3460 N.3   101  ILE101     -0.1231
    135  CA         8.0460   -1.7180   16.6900 C.3   101  ILE101      0.1692
    136  C          6.8580   -1.4910   17.6050 C.2   101  ILE101      0.2592
    137  O          6.5190   -2.3580   18.3810 O.2   101  ILE101     -0.2718
    138  CB         9.2860   -0.8720   17.1560 C.3   101  ILE101      0.0266
    139  CG1       10.5400   -1.3130   16.3770 C.3   101  ILE101      0.0019
    140  CG2        9.4690   -0.9250   18.6630 C.3   101  ILE101      0.0020
    141  CD1       11.7270   -0.3440   16.6180 C.3   101  ILE101      0.0001
    142  N          6.1890   -0.3350   17.4770 N.am  102  SER102     -0.1952
    143  CA         5.0260   -0.0260   18.3270 C.3   102  SER102      0.1924
    144  C          3.8850   -1.0240   18.1270 C.2   102  SER102      0.2314
    145  O          3.3390   -1.5540   19.1080 O.2   102  SER102     -0.2863
    146  CB         4.5130    1.4000   18.0930 C.3   102  SER102      0.2116
    147  OG         3.5310    1.7190   19.0730 O.3   102  SER102     -0.2180
    148  N          7.1410    3.2120   29.2080 N.3   118  ARG118     -0.1231
    149  CA         7.9010    4.1840   28.4430 C.3   118  ARG118      0.1694
    150  C          7.0950    5.4620   28.2700 C.2   118  ARG118      0.2592
    151  O          7.5760    6.5420   28.6030 O.2   118  ARG118     -0.2718
    152  CB         8.2120    3.6060   27.0630 C.3   118  ARG118      0.0321
    153  CG         9.4560    4.1050   26.4810 C.3   118  ARG118      0.0489
    154  CD         9.8670    3.2260   25.2970 C.3   118  ARG118      0.2205
    155  NE         8.7900    3.1100   24.3020 N.pl3 118  ARG118     -0.0865
    156  CZ         8.5160    1.9870   23.6280 C.cat 118  ARG118      0.5346
    157  NH1        9.2430    0.8760   23.8300 N.pl3 118  ARG118      0.1354
    158  NH2        7.5270    2.0000   22.7310 N.pl3 118  ARG118      0.1354
    159  N          5.8800    5.3340   27.7290 N.am  119  ASN119     -0.1974
    160  CA         5.0560    6.5300   27.5150 C.3   119  ASN119      0.1688
    161  C          4.7410    7.2100   28.8370 C.2   119  ASN119      0.2292
    162  O          4.7830    8.4280   28.9430 O.2   119  ASN119     -0.2864
    163  CB         3.7660    6.2000   26.7710 C.3   119  ASN119      0.1181
    164  CG         3.9450    6.2640   25.2500 C.2   119  ASN119      0.2629
    165  OD1        4.9990    6.7030   24.7410 O.2   119  ASN119     -0.2716
    166  ND2        2.9000    5.8350   24.5060 N.am  119  ASN119     -0.0877
    167  N          7.6560    9.3610   29.9420 N.3   122  VAL122     -0.1245
    168  CA         7.8100   10.5960   29.1600 C.3   122  VAL122      0.1561
    169  C          6.7480   11.5990   29.6020 C.2   122  VAL122      0.2260
    170  O          7.0610   12.7630   29.8370 O.2   122  VAL122     -0.2867
    171  CB         7.7270   10.3460   27.6220 C.3   122  VAL122      0.0252
    172  CG1        7.7540   11.6870   26.8740 C.3   122  VAL122      0.0019
    173  CG2        8.8970    9.3820   27.1730 C.3   122  VAL122      0.0019
    174  N          2.5360   15.6590   25.2210 N.3   143  HIS143     -0.1241
    175  CA         2.9650   14.3630   24.6730 C.3   143  HIS143      0.1621
    176  C          2.2290   14.0240   23.3610 C.2   143  HIS143      0.2264
    177  O          2.8430   13.5230   22.4150 O.2   143  HIS143     -0.2867
    178  CB         2.8390   13.2420   25.7380 C.3   143  HIS143      0.0745
    179  CG         3.2650   11.8900   25.2590 C.ar  143  HIS143      0.0817
    180  ND1        2.3750   10.9520   24.7950 N.ar  143  HIS143     -0.2268
    181  CD2        4.4950   11.3130   25.1850 C.ar  143  HIS143      0.1154
    182  CE1        3.0290    9.8530   24.4410 C.ar  143  HIS143      0.1986
    183  NE2        4.3150   10.0470   24.6610 N.ar  143  HIS143     -0.2212
    184  N          3.6840   15.9610   20.4630 N.3   146  ILE146     -0.1231
    185  CA         4.9190   15.3270   19.9680 C.3   146  ILE146      0.1692
    186  C          4.5770   14.0930   19.1460 C.2   146  ILE146      0.2591
    187  O          5.1080   13.9190   18.0490 O.2   146  ILE146     -0.2718
    188  CB         5.8540   14.9460   21.1260 C.3   146  ILE146      0.0266
    189  CG1        6.2460   16.2300   21.8920 C.3   146  ILE146      0.0019
    190  CG2        7.1530   14.2610   20.5990 C.3   146  ILE146      0.0020
    191  CD1        7.1750   15.9160   23.1360 C.3   146  ILE146      0.0001
    192  N          3.7720   13.1850   19.6940 N.am  147  ALA147     -0.1980
    193  CA         3.4680   11.9490   18.9810 C.3   147  ALA147      0.1597
    194  C          2.7530   12.1840   17.6370 C.2   147  ALA147      0.2287
    195  O          3.1220   11.5870   16.6130 O.2   147  ALA147     -0.2864
    196  CB         2.6830   10.9900   19.8750 C.3   147  ALA147      0.0319
    197  N          4.8960   14.0370   15.0540 N.3   150  THR150     -0.1218
    198  CA         5.9670   13.1350   14.5780 C.3   150  THR150      0.1862
    199  C          5.3480   12.2000   13.5210 C.2   150  THR150      0.2287
    200  O          5.9560   11.9300   12.4920 O.2   150  THR150     -0.2866
    201  CB         6.5860   12.3310   15.7470 C.3   150  THR150      0.1770
    202  OG1        7.3100   13.2240   16.6370 O.3   150  THR150     -0.2211
    203  CG2        7.5960   11.2210   15.2530 C.3   150  THR150      0.0375
@<TRIPOS>BOND
     1   103   104    1
     2   104   105    1
     3   104   107    1
     4   105   106    2
     5   107   108    1
     6    19    18    2
     7   200   199    2
     8   129   131   ar
     9   129   127   ar
    10   108   110   ar
    11   108   109   ar
    12    18    17    1
    13   126   127    1
    14   126   123    1
    15   110   112   ar
    16   131   132   ar
    17   127   128   ar
    18   199   198    1
    19   109   111   ar
    20   114   115    1
    21   132   133    1
    22   132   130   ar
    23   123   124    1
    24   123   122    1
    25   124   125    2
    26   122   116   am
    27   128   130   ar
    28    11    10    2
    29   112   113   ar
    30   101   100    2
    31    17    20    1
    32    17    16    1
    33    98    97    2
    34   198   197    1
    35   198   201    1
    36    97    96    1
    37   111   113   ar
    38    20    21    1
    39    10    16   am
    40    10     9    1
    41   115   116    1
    42   115   118    1
    43   116   117    2
    44   100   102   am
    45   100    99    1
    46   203   201    1
    47   134   135    1
    48   118   119    1
    49   121   119   am
    50     8     9    1
    51     9    12    1
    52   119   120    2
    53   201   202    1
    54    96    99    1
    55    96    95    1
    56    21    22    1
    57   139   141    1
    58   139   138    1
    59    90    89    2
    60   195   194    2
    61   135   138    1
    62   135   136    1
    63    14    13    1
    64    22    23    1
    65    95    89   am
    66    12    13    1
    67   138   140    1
    68    89    88    1
    69    13    15    1
    70     4     3    2
    71   142   136   am
    72   142   143    1
    73   136   137    2
    74   194   193    1
    75    23    24    1
    76   187   186    2
    77     3     2    1
    78    91    88    1
    79    91    92    1
    80   146   143    1
    81   146   147    1
    82   144   143    1
    83   144   145    2
    84    88    87    1
    85    94    93    1
    86    93    92    1
    87   193   192    1
    88   193   196    1
    89   186   192   am
    90   186   185    1
    91    87    83   am
    92     2     1    1
    93     2     5    1
    94   185   184    1
    95   185   188    1
    96    83    84    2
    97    83    82    1
    98     7     5    1
    99    81    82    1
   100     5     6    1
   101   190   188    1
   102    82    85    1
   103   188   189    1
   104    32    31    1
   105   189   191    1
   106    76    75    2
   107   177   176    2
   108    85    86    1
   109    75    74    1
   110   158   156    1
   111    31    30    1
   112   176   175    1
   113   156   157    1
   114   156   155    2
   115    30    29    1
   116    74    73    1
   117    74    77    1
   118    64    63    1
   119   155   154    1
   120   182   183   ar
   121   182   180   ar
   122   166   164   am
   123   183   181   ar
   124   175   174    1
   125   175   178    1
   126   165   164    2
   127   180   179   ar
   128    78    77    1
   129    78    79    1
   130    78    80    1
   131    63    61   ar
   132    63    62   ar
   133   181   179   ar
   134   164   163    1
   135   179   178    1
   136   154   153    1
   137    44    43    2
   138    29    26    1
   139    61    59   ar
   140    25    26    1
   141    62    60   ar
   142    26    27    1
   143    45    43   am
   144    43    42    1
   145    59    58   ar
   146   153   152    1
   147    34    33    1
   148    34    35    1
   149   163   160    1
   150    60    58   ar
   151   172   171    1
   152    52    50    1
   153   152   149    1
   154    58    57    1
   155   173   171    1
   156    27    28    2
   157   160   159    1
   158   160   161    1
   159   171   168    1
   160    42    41    1
   161    41    38    1
   162    36    35    2
   163   159   150   am
   164    57    54    1
   165   150   149    1
   166   150   151    2
   167    50    51    1
   168    50    47    1
   169   149   148    1
   170    46    47    1
   171    46    39   am
   172    47    48    1
   173   161   162    2
   174    39    38    1
   175    39    40    2
   176    38    37    1
   177   168   169    1
   178   168   167    1
   179    72    70    1
   180   169   170    2
   181    54    55    1
   182    54    53    1
   183    48    49    2
   184    55    56    2
   185    55    65   am
   186    70    71    1
   187    70    69    1
   188    65    66    1
   189    66    69    1
   190    66    67    1
   191    67    68    2
