@<TRIPOS>MOLECULE
tmp/3fruA02.pdb
 99 94 0 0 0
SMALL
GASTEIGER

@<TRIPOS>ATOM
      1  N          8.5260   15.1220  134.1340 N.3   192  ASN192     -0.1225
      2  CA         9.2480   14.4900  135.2200 C.3   192  ASN192      0.1785
      3  C          9.6490   13.0700  134.7390 C.2   192  ASN192      0.2598
      4  O          9.4020   12.7210  133.5630 O.2   192  ASN192     -0.2718
      5  CB         8.3620   14.4580  136.4670 C.3   192  ASN192      0.1169
      6  CG         8.4160   15.7710  137.2280 C.2   192  ASN192      0.2627
      7  OD1        9.1350   16.6710  136.8610 O.2   192  ASN192     -0.2716
      8  ND2        7.6620   15.8750  138.2930 N.am  192  ASN192     -0.0877
      9  N         10.2780   12.2670  135.6040 N.am  193  SER193     -0.1938
     10  CA        10.7090   10.9060  135.2320 C.3   193  SER193      0.2055
     11  C          9.5900   10.0750  134.5910 C.2   193  SER193      0.2644
     12  O          8.5170    9.8580  135.1930 O.2   193  SER193     -0.2714
     13  CB        11.2480   10.1540  136.4540 C.3   193  SER193      0.2130
     14  OG        12.4810   10.7130  136.8780 O.3   193  SER193     -0.2179
     15  N          9.8420    9.6250  133.3590 N.am  194  GLY194     -0.1939
     16  CA         8.8570    8.8210  132.6530 C.3   194  GLY194      0.2014
     17  C          7.5810    9.5250  132.1480 C.2   194  GLY194      0.2639
     18  O          6.6230    8.8500  131.7860 O.2   194  GLY194     -0.2714
     19  N          7.5850   10.8550  132.0670 N.am  195  SER195     -0.1949
     20  CA         6.3900   11.6070  131.6700 C.3   195  SER195      0.1924
     21  C          6.6350   12.7370  130.6910 C.2   195  SER195      0.2314
     22  O          7.7540   13.2230  130.5420 O.2   195  SER195     -0.2863
     23  CB         5.7130   12.2280  132.9080 C.3   195  SER195      0.2116
     24  OG         5.4950   11.2680  133.9210 O.3   195  SER195     -0.2180
     25  N         -8.9230   11.7360  124.8480 N.3   216  ARG216     -0.1245
     26  CA        -8.0580   10.5640  124.6960 C.3   216  ARG216      0.1563
     27  C         -8.8520    9.5800  123.8400 C.2   216  ARG216      0.2260
     28  O         -9.9280    9.1710  124.2450 O.2   216  ARG216     -0.2867
     29  CB        -7.7350    9.9130  126.0410 C.3   216  ARG216      0.0307
     30  CG        -6.5740    8.9050  125.9210 C.3   216  ARG216      0.0489
     31  CD        -6.1740    8.3320  127.3000 C.3   216  ARG216      0.2205
     32  NE        -4.9940    7.4620  127.2350 N.pl3 216  ARG216     -0.0865
     33  CZ        -4.9400    6.2600  126.6670 C.cat 216  ARG216      0.5346
     34  NH1       -6.0080    5.7210  126.0780 N.pl3 216  ARG216      0.1354
     35  NH2       -3.8030    5.5810  126.7040 N.pl3 216  ARG216      0.1354
     36  N        -13.7710   12.2950  126.5280 N.3   220  ALA220     -0.1231
     37  CA       -13.3990   13.3090  127.5150 C.3   220  ALA220      0.1694
     38  C        -12.3760   12.7260  128.4950 C.2   220  ALA220      0.2592
     39  O        -12.4840   11.5800  128.9010 O.2   220  ALA220     -0.2718
     40  CB       -14.6060   13.7650  128.2500 C.3   220  ALA220      0.0304
     41  N        -11.3810   13.5170  128.8810 N.am  221  SER221     -0.1952
     42  CA       -10.3350   13.0080  129.7670 C.3   221  SER221      0.1924
     43  C         -9.7490   14.0330  130.7560 C.2   221  SER221      0.2314
     44  O         -8.6430   13.8590  131.2640 O.2   221  SER221     -0.2863
     45  CB        -9.2190   12.4080  128.8860 C.3   221  SER221      0.2116
     46  OG        -7.9430   12.4750  129.4960 O.3   221  SER221     -0.2180
     47  N         -1.4620   19.2530  130.8650 N.3   242  LEU242     -0.1231
     48  CA        -1.8640   17.9280  131.3450 C.3   242  LEU242      0.1693
     49  C         -0.6060   17.0240  131.3150 C.2   242  LEU242      0.2592
     50  O          0.1800   17.0220  130.3500 O.2   242  LEU242     -0.2718
     51  CB        -2.9500   17.3210  130.4450 C.3   242  LEU242      0.0284
     52  CG        -3.6670   16.0370  130.8490 C.3   242  LEU242      0.0019
     53  CD1       -4.6030   16.3440  132.0380 C.3   242  LEU242      0.0001
     54  CD2       -4.4770   15.4500  129.6280 C.3   242  LEU242      0.0001
     55  N         -0.4140   16.2610  132.3760 N.am  243  GLU243     -0.1966
     56  CA         0.7320   15.3550  132.4440 C.3   243  GLU243      0.1733
     57  C          0.2780   13.9910  131.9070 C.2   243  GLU243      0.2616
     58  O         -0.7820   13.4900  132.3180 O.2   243  GLU243     -0.2715
     59  CB         1.1760   15.2220  133.9130 C.3   243  GLU243      0.0429
     60  CG         2.2620   14.1470  134.1860 C.3   243  GLU243      0.1163
     61  CD         2.6980   14.1170  135.6590 C.2   243  GLU243      0.3649
     62  OE1        1.8770   13.7150  136.5100 O.co2 243  GLU243     -0.2457
     63  OE2        3.8490   14.5020  135.9660 O.co2 243  GLU243     -0.2457
     64  N          1.0360   13.4200  130.9700 N.am  244  VAL244     -0.1963
     65  CA         0.7220   12.0870  130.4410 C.3   244  VAL244      0.1727
     66  C          1.9930   11.1740  130.3950 C.2   244  VAL244      0.2616
     67  O          3.1340   11.6470  130.5590 O.2   244  VAL244     -0.2715
     68  CB         0.1110   12.1480  128.9900 C.3   244  VAL244      0.0290
     69  CG1       -1.0400   13.1700  128.9030 C.3   244  VAL244      0.0023
     70  CG2        1.2130   12.4470  127.9800 C.3   244  VAL244      0.0023
     71  N          1.7910    9.8830  130.1380 N.am  245  LYS245     -0.1977
     72  CA         2.8770    8.9170  130.0580 C.3   245  LYS245      0.1596
     73  C          3.7700    9.1070  128.8200 C.2   245  LYS245      0.2287
     74  O          3.2780    9.2650  127.6910 O.2   245  LYS245     -0.2864
     75  CB         2.2870    7.5120  130.0810 C.3   245  LYS245      0.0298
     76  CG         2.7560    6.6950  131.2720 C.3   245  LYS245      0.0038
     77  CD         1.7920    5.5710  131.6340 C.3   245  LYS245      0.0206
     78  CE         2.1880    4.2430  130.9750 C.3   245  LYS245      0.1093
     79  NZ         2.9770    3.3010  131.8620 N.3   245  LYS245     -0.1314
     80  N          2.9530    7.9510  124.8800 N.3   248  ASP248     -0.1239
     81  CA         1.5150    7.9010  124.5420 C.3   248  ASP248      0.1674
     82  C          0.8930    9.2460  124.0990 C.2   248  ASP248      0.2266
     83  O         -0.3470    9.3650  123.9900 O.2   248  ASP248     -0.2867
     84  CB         0.6930    7.3960  125.7490 C.3   248  ASP248      0.1410
     85  CG         0.8230    5.8910  125.9570 C.2   248  ASP248      0.3668
     86  OD1        1.2220    5.1870  124.9930 O.co2 248  ASP248     -0.2456
     87  OD2        0.5320    5.4130  127.0760 O.co2 248  ASP248     -0.2456
     88  N         -3.7270   11.6140  122.3900 N.3   252  TYR252     -0.1241
     89  CA        -4.4320   12.8250  122.8770 C.3   252  TYR252      0.1605
     90  C         -4.7030   13.9860  121.9050 C.2   252  TYR252      0.2264
     91  O         -3.9220   14.2450  121.0100 O.2   252  TYR252     -0.2867
     92  CB        -3.6490   13.4270  124.0800 C.3   252  TYR252      0.0534
     93  CG        -3.6220   12.5660  125.3450 C.ar  252  TYR252     -0.0201
     94  CD1       -2.6730   11.5510  125.5030 C.ar  252  TYR252     -0.0009
     95  CD2       -4.5980   12.7210  126.3340 C.ar  252  TYR252     -0.0009
     96  CE1       -2.7040   10.7130  126.6010 C.ar  252  TYR252      0.0417
     97  CE2       -4.6490   11.8830  127.4420 C.ar  252  TYR252      0.0417
     98  CZ        -3.6980   10.8800  127.5660 C.ar  252  TYR252      0.1957
     99  OH        -3.7550   10.0380  128.6390 O.3   252  TYR252     -0.2866
@<TRIPOS>BOND
     1    91    90    2
     2    90    89    1
     3    88    89    1
     4    89    92    1
     5    27    28    2
     6    27    26    1
     7    83    82    2
     8    92    93    1
     9    82    81    1
    10    81    80    1
    11    81    84    1
    12    26    25    1
    13    26    29    1
    14    86    85   ar
    15    93    94   ar
    16    93    95   ar
    17    94    96   ar
    18    84    85    1
    19    30    29    1
    20    30    31    1
    21    85    87   ar
    22    34    33    1
    23    95    97   ar
    24    36    37    1
    25    96    98   ar
    26    33    35    1
    27    33    32    2
    28    32    31    1
    29    97    98   ar
    30    37    40    1
    31    37    38    1
    32    98    99    1
    33    74    73    2
    34    70    68    1
    35    38    41   am
    36    38    39    2
    37    73    72    1
    38    41    42    1
    39    45    46    1
    40    45    42    1
    41    69    68    1
    42    68    65    1
    43    54    52    1
    44    42    43    1
    45    72    75    1
    46    72    71    1
    47    75    76    1
    48    71    66   am
    49    50    49    2
    50    66    65    1
    51    66    67    2
    52    65    64    1
    53    51    52    1
    54    51    48    1
    55    22    21    2
    56    21    20    1
    57    43    44    2
    58    52    53    1
    59    47    48    1
    60    64    57   am
    61    78    77    1
    62    78    79    1
    63    76    77    1
    64    49    48    1
    65    49    55   am
    66    20    19    1
    67    20    23    1
    68    18    17    2
    69    57    58    2
    70    57    56    1
    71    19    17   am
    72    17    16    1
    73    55    56    1
    74    56    59    1
    75    16    15    1
    76    23    24    1
    77    15    11   am
    78     4     3    2
    79    59    60    1
    80     1     2    1
    81    60    61    1
    82    11    12    2
    83    11    10    1
    84     3     2    1
    85     3     9   am
    86     2     5    1
    87    10     9    1
    88    10    13    1
    89    61    63   ar
    90    61    62   ar
    91    13    14    1
    92     5     6    1
    93     7     6    2
    94     6     8   am
