@<TRIPOS>MOLECULE
tmp/3frzA01.pdb
 135 128 0 0 0
SMALL
GASTEIGER

@<TRIPOS>ATOM
      1  N          8.9130   29.4030   80.0160 N.3    14  CYS14      -0.1221
      2  CA         7.5120   29.4830   79.5830 C.3    14  CYS14       0.1808
      3  C          7.0850   28.2300   78.8060 C.2    14  CYS14       0.2601
      4  O          5.9220   28.1180   78.3780 O.2    14  CYS14      -0.2717
      5  CB         7.3390   30.7170   78.7260 C.3    14  CYS14       0.0970
      6  SG         8.3780   30.7020   77.2770 S.3    14  CYS14      -0.0800
      7  N          8.0330   27.2930   78.6670 N.am   15  ALA15      -0.1979
      8  CA         7.8250   25.9880   77.9850 C.3    15  ALA15       0.1597
      9  C          8.7970   24.9810   78.5670 C.2    15  ALA15       0.2287
     10  O          9.7280   25.3420   79.3060 O.2    15  ALA15      -0.2864
     11  CB         8.0700   26.1660   76.5220 C.3    15  ALA15       0.0319
     12  N         10.5500   34.6750   63.9220 N.3    95  HIS95      -0.1241
     13  CA        10.2260   34.0540   65.1920 C.3    95  HIS95       0.1621
     14  C         10.6380   34.9390   66.3800 C.2    95  HIS95       0.2264
     15  O         10.8270   34.4380   67.4700 O.2    95  HIS95      -0.2867
     16  CB        10.8510   32.6420   65.2920 C.3    95  HIS95       0.0745
     17  CG        10.2290   31.6350   64.3660 C.ar   95  HIS95       0.0817
     18  ND1       10.7010   31.4070   63.0890 N.ar   95  HIS95      -0.2268
     19  CD2        9.1660   30.8060   64.5280 C.ar   95  HIS95       0.1154
     20  CE1        9.9620   30.4780   62.5060 C.ar   95  HIS95       0.1986
     21  NE2        9.0330   30.0880   63.3610 N.ar   95  HIS95      -0.2212
     22  N         10.3610   37.3670   69.5260 N.3    97  ALA97      -0.1231
     23  CA         9.3960   37.2710   70.6190 C.3    97  ALA97       0.1694
     24  C          8.2460   38.2280   70.3770 C.2    97  ALA97       0.2592
     25  O          8.4710   39.3850   70.0350 O.2    97  ALA97      -0.2718
     26  CB        10.0520   37.5800   71.9400 C.3    97  ALA97       0.0304
     27  N          7.0090   37.7580   70.5720 N.am   98  LYS98      -0.1966
     28  CA         5.8730   38.6330   70.2920 C.3    98  LYS98       0.1728
     29  C          5.8200   39.7680   71.3010 C.2    98  LYS98       0.2617
     30  O          6.4380   39.6870   72.3860 O.2    98  LYS98      -0.2715
     31  CB         4.5290   37.8780   70.2930 C.3    98  LYS98       0.0311
     32  CG         4.1170   37.2790   71.6080 C.3    98  LYS98       0.0038
     33  CD         2.8350   36.4740   71.4040 C.3    98  LYS98       0.0206
     34  CE         2.1810   36.1260   72.7150 C.3    98  LYS98       0.1093
     35  NZ         3.1100   35.3730   73.5930 N.3    98  LYS98      -0.1314
     36  N          5.0910   40.8140   70.9250 N.am   99  SER99      -0.1936
     37  CA         4.8540   41.9310   71.8080 C.3    99  SER99       0.2055
     38  C          3.8880   41.5360   72.9080 C.2    99  SER99       0.2642
     39  O          3.0090   40.6860   72.7190 O.2    99  SER99      -0.2714
     40  CB         4.2900   43.1320   71.0550 C.3    99  SER99       0.2130
     41  OG         4.0840   44.2200   71.9480 O.3    99  SER99      -0.2179
     42  N          4.0180   42.1710   74.0630 N.am  100  LYS100     -0.1977
     43  CA         2.9350   42.0640   75.0410 C.3   100  LYS100      0.1596
     44  C          1.7150   42.9070   74.6530 C.2   100  LYS100      0.2287
     45  O          0.7020   42.8180   75.3250 O.2   100  LYS100     -0.2864
     46  CB         3.3930   42.4300   76.4460 C.3   100  LYS100      0.0298
     47  CG         3.6990   43.8830   76.6770 C.3   100  LYS100      0.0038
     48  CD         3.8000   44.1880   78.1890 C.3   100  LYS100      0.0206
     49  CE         4.8720   43.3270   78.9270 C.3   100  LYS100      0.1093
     50  NZ         6.2550   43.4580   78.3580 N.3   100  LYS100     -0.1314
     51  N         12.4000   41.8940   79.7380 N.3   137  THR137     -0.1218
     52  CA        12.2210   40.5340   80.1340 C.3   137  THR137      0.1862
     53  C         13.6050   39.9110   80.3420 C.2   137  THR137      0.2287
     54  O         14.5310   40.2020   79.5870 O.2   137  THR137     -0.2866
     55  CB        11.5010   39.7890   79.0430 C.3   137  THR137      0.1770
     56  OG1       10.1680   40.3640   78.8860 O.3   137  THR137     -0.2211
     57  CG2       11.2840   38.3310   79.4460 C.3   137  THR137      0.0375
     58  N         15.2580   36.0220   80.6480 N.3   139  MET139     -0.1230
     59  CA        15.0740   34.6020   80.4710 C.3   139  MET139      0.1702
     60  C         16.4610   33.9010   80.4460 C.2   139  MET139      0.2592
     61  O         17.4990   34.5230   80.1760 O.2   139  MET139     -0.2718
     62  CB        14.1850   34.3200   79.2300 C.3   139  MET139      0.0401
     63  CG        12.6040   34.4570   79.6140 C.3   139  MET139      0.0596
     64  SD        11.6200   33.9300   78.3760 S.3   139  MET139     -0.1393
     65  CE        11.5620   32.1490   78.7630 C.3   139  MET139      0.0692
     66  N         16.4460   32.6120   80.7370 N.am  140  ALA140     -0.1966
     67  CA        17.6210   31.7560   80.6990 C.3   140  ALA140      0.1728
     68  C         17.7890   31.2410   79.2940 C.2   140  ALA140      0.2616
     69  O         16.8580   30.6690   78.7560 O.2   140  ALA140     -0.2715
     70  CB        17.4050   30.5570   81.6190 C.3   140  ALA140      0.0334
     71  N         18.9500   31.4240   78.7000 N.am  141  LYS141     -0.1963
     72  CA        19.2760   30.7990   77.4210 C.3   141  LYS141      0.1728
     73  C         19.3520   29.2750   77.5280 C.2   141  LYS141      0.2616
     74  O         19.9240   28.7490   78.4740 O.2   141  LYS141     -0.2715
     75  CB        20.6300   31.3100   76.9570 C.3   141  LYS141      0.0311
     76  CG        20.5980   32.3360   75.8910 C.3   141  LYS141      0.0038
     77  CD        20.4250   31.6140   74.5450 C.3   141  LYS141      0.0206
     78  CE        21.2440   32.2410   73.4280 C.3   141  LYS141      0.1093
     79  NZ        20.5290   32.0630   72.1250 N.3   141  LYS141     -0.1314
     80  N         18.7580   28.5710   76.5610 N.am  142  ASN142     -0.1972
     81  CA        18.8870   27.1300   76.3970 C.3   142  ASN142      0.1688
     82  C         19.9060   26.8990   75.2350 C.2   142  ASN142      0.2292
     83  O         19.5820   27.1220   74.0450 O.2   142  ASN142     -0.2864
     84  CB        17.5090   26.4460   76.0970 C.3   142  ASN142      0.1181
     85  CG        16.6110   26.1960   77.3960 C.2   142  ASN142      0.2629
     86  OD1       15.9640   25.1540   77.5030 O.2   142  ASN142     -0.2716
     87  ND2       16.5920   27.1230   78.3380 N.am  142  ASN142     -0.0877
     88  N         19.3900   36.3040   79.1250 N.3   160  ILE160     -0.1245
     89  CA        19.1640   37.2660   78.0660 C.3   160  ILE160      0.1561
     90  C         18.1700   38.2830   78.6290 C.2   160  ILE160      0.2260
     91  O         17.2300   37.9190   79.3480 O.2   160  ILE160     -0.2867
     92  CB        18.6460   36.5800   76.7860 C.3   160  ILE160      0.0252
     93  CG1       18.5610   37.5780   75.6450 C.3   160  ILE160      0.0019
     94  CG2       17.3790   35.9360   76.9990 C.3   160  ILE160      0.0019
     95  CD1       18.1570   36.9220   74.3090 C.3   160  ILE160      0.0001
     96  N         15.9410   41.6250   77.3850 N.3   162  PHE162     -0.1241
     97  CA        15.4580   42.2730   76.1700 C.3   162  PHE162      0.1605
     98  C         14.1750   43.0560   76.4260 C.2   162  PHE162      0.2264
     99  O         13.3170   42.6050   77.1610 O.2   162  PHE162     -0.2867
    100  CB        15.2090   41.2420   75.0530 C.3   162  PHE162      0.0534
    101  CG        14.2030   40.1690   75.3620 C.ar  162  PHE162     -0.0203
    102  CD1       12.8520   40.3120   74.9750 C.ar  162  PHE162     -0.0042
    103  CD2       14.5810   38.9580   75.9530 C.ar  162  PHE162     -0.0042
    104  CE1       11.9410   39.2840   75.1850 C.ar  162  PHE162     -0.0003
    105  CE2       13.6380   37.9220   76.2100 C.ar  162  PHE162     -0.0003
    106  CZ        12.3220   38.0840   75.8340 C.ar  162  PHE162     -0.0000
    107  N         10.5980   45.0460   74.8540 N.3   164  ASP164     -0.1239
    108  CA         9.4650   44.5340   74.0780 C.3   164  ASP164      0.1674
    109  C          9.6840   44.7290   72.6020 C.2   164  ASP164      0.2266
    110  O         10.4080   45.6110   72.1640 O.2   164  ASP164     -0.2867
    111  CB         8.1640   45.2390   74.5250 C.3   164  ASP164      0.1410
    112  CG         6.9190   44.6590   73.8760 C.2   164  ASP164      0.3668
    113  OD1        6.4740   43.5660   74.3040 O.co2 164  ASP164     -0.2456
    114  OD2        6.3400   45.2360   72.9530 O.co2 164  ASP164     -0.2456
    115  N         10.1970   38.6460   84.8080 N.3   268  ASN268     -0.1225
    116  CA        10.2270   37.2620   84.3400 C.3   268  ASN268      0.1785
    117  C          9.0760   36.9650   83.3550 C.2   268  ASN268      0.2597
    118  O          8.2570   37.8580   83.0380 O.2   268  ASN268     -0.2718
    119  CB        10.3490   36.2600   85.4930 C.3   268  ASN268      0.1169
    120  CG         9.0870   36.2030   86.4050 C.2   268  ASN268      0.2627
    121  OD1        8.0150   36.6940   86.0390 O.2   268  ASN268     -0.2716
    122  ND2        9.2430   35.6120   87.5770 N.am  268  ASN268     -0.0877
    123  N          9.0660   35.7440   82.8110 N.am  269  SER269     -0.1952
    124  CA         8.0750   35.3390   81.8310 C.3   269  SER269      0.1924
    125  C          6.6560   35.3220   82.4020 C.2   269  SER269      0.2314
    126  O          5.6740   35.3240   81.6400 O.2   269  SER269     -0.2863
    127  CB         8.4130   33.9540   81.2760 C.3   269  SER269      0.2116
    128  OG         8.2510   32.9690   82.2480 O.3   269  SER269     -0.2180
    129  N         14.9280   26.6340   66.2890 N.3   404  PRO404     -0.2116
    130  CA        14.6530   27.8820   65.5440 C.3   404  PRO404      0.1372
    131  C         15.7980   28.2400   64.6070 C.2   404  PRO404      0.2244
    132  O         15.6130   28.4160   63.4040 O.2   404  PRO404     -0.2868
    133  CB        14.5230   28.9400   66.6510 C.3   404  PRO404      0.0268
    134  CG        15.1470   28.3010   67.9020 C.3   404  PRO404      0.0207
    135  CD        14.9140   26.8360   67.7520 C.3   404  PRO404      0.0892
@<TRIPOS>BOND
     1    20    18   ar
     2    20    21   ar
     3    18    17   ar
     4    21    19   ar
     5   132   131    2
     6    12    13    1
     7    17    19   ar
     8    17    16    1
     9   131   130    1
    10    13    16    1
    11    13    14    1
    12   130   129    1
    13   130   133    1
    14   129   135    1
    15    14    15    2
    16   133   134    1
    17   135   134    1
    18    22    23    1
    19    25    24    2
    20    28    31    1
    21    28    27    1
    22    28    29    1
    23    31    32    1
    24    24    27   am
    25    24    23    1
    26    23    26    1
    27    36    29   am
    28    36    37    1
    29    40    37    1
    30    40    41    1
    31    29    30    2
    32    33    32    1
    33    33    34    1
    34    37    38    1
    35    79    78    1
    36   110   109    2
    37   109   108    1
    38    34    35    1
    39    39    38    2
    40    38    42   am
    41   114   112   ar
    42    78    77    1
    43   112   113   ar
    44   112   111    1
    45    83    82    2
    46    42    43    1
    47   108   111    1
    48   108   107    1
    49    95    93    1
    50    77    76    1
    51    44    43    1
    52    44    45    2
    53   102   104   ar
    54   102   101   ar
    55    43    46    1
    56   100   101    1
    57   100    97    1
    58   104   106   ar
    59    82    81    1
    60   101   103   ar
    61    93    92    1
    62   106   105   ar
    63    76    75    1
    64   103   105   ar
    65    84    81    1
    66    84    85    1
    67    97    98    1
    68    97    96    1
    69    81    80    1
    70    98    99    2
    71    46    47    1
    72    11     8    1
    73    80    73   am
    74    47    48    1
    75    92    94    1
    76    92    89    1
    77    75    72    1
    78     6     5    1
    79    85    86    2
    80    85    87   am
    81    72    73    1
    82    72    71    1
    83    73    74    2
    84     8     9    1
    85     8     7    1
    86    89    90    1
    87    89    88    1
    88    48    49    1
    89    50    49    1
    90    64    65    1
    91    64    63    1
    92     4     3    2
    93     9    10    2
    94    90    91    2
    95     7     3   am
    96    71    68   am
    97     5     2    1
    98    69    68    2
    99     3     2    1
   100    56    55    1
   101    55    57    1
   102    55    52    1
   103    62    63    1
   104    62    59    1
   105    68    67    1
   106     2     1    1
   107    54    53    2
   108    51    52    1
   109    52    53    1
   110    61    60    2
   111    60    59    1
   112    60    66   am
   113    59    58    1
   114    67    66    1
   115    67    70    1
   116   127   124    1
   117   127   128    1
   118   126   125    2
   119   124   125    1
   120   124   123    1
   121   123   117   am
   122   118   117    2
   123   117   116    1
   124   116   115    1
   125   116   119    1
   126   119   120    1
   127   121   120    2
   128   120   122   am
