@<TRIPOS>MOLECULE
tmp/3frzA00.pdb
 144 137 0 0 0
SMALL
GASTEIGER

@<TRIPOS>ATOM
      1  N         45.3920   22.1880   46.0950 N.3   376  ALA376     -0.1245
      2  CA        45.6750   21.1530   45.0890 C.3   376  ALA376      0.1562
      3  C         47.0900   21.2520   44.4970 C.2   376  ALA376      0.2260
      4  O         47.7010   20.2220   44.1830 O.2   376  ALA376     -0.2867
      5  CB        44.6240   21.2150   43.9810 C.3   376  ALA376      0.0290
      6  N         38.6120   20.3550   57.9380 N.3   419  LEU419     -0.1245
      7  CA        38.4410   18.9240   57.7920 C.3   419  LEU419      0.1561
      8  C         37.2100   18.3940   58.5150 C.2   419  LEU419      0.2260
      9  O         36.5590   17.4930   57.9990 O.2   419  LEU419     -0.2867
     10  CB        39.6940   18.1710   58.1580 C.3   419  LEU419      0.0270
     11  CG        39.9330   17.7400   59.5820 C.3   419  LEU419      0.0019
     12  CD1       39.2720   16.4080   59.9170 C.3   419  LEU419      0.0001
     13  CD2       41.4690   17.6970   59.7830 C.3   419  LEU419      0.0001
     14  N         33.8530   19.3600   56.6640 N.3   422  ARG422     -0.1231
     15  CA        33.7690   18.6420   55.3860 C.3   422  ARG422      0.1694
     16  C         33.5220   17.1660   55.6130 C.2   422  ARG422      0.2591
     17  O         32.6430   16.5530   54.9570 O.2   422  ARG422     -0.2718
     18  CB        35.0700   18.8670   54.6000 C.3   422  ARG422      0.0321
     19  CG        35.2390   20.2250   54.1240 C.3   422  ARG422      0.0489
     20  CD        36.6110   20.5120   53.4790 C.3   422  ARG422      0.2205
     21  NE        36.7430   19.9120   52.1550 N.pl3 422  ARG422     -0.0865
     22  CZ        37.8980   19.5760   51.5880 C.cat 422  ARG422      0.5346
     23  NH1       39.0650   19.7460   52.2350 N.pl3 422  ARG422      0.1354
     24  NH2       37.8910   19.0370   50.3670 N.pl3 422  ARG422      0.1354
     25  N         34.3060   16.5520   56.4960 N.am  423  MET423     -0.1979
     26  CA        34.2010   15.1540   56.7790 C.3   423  MET423      0.1605
     27  C         32.8970   14.7750   57.4360 C.2   423  MET423      0.2287
     28  O         32.3020   13.7480   57.0620 O.2   423  MET423     -0.2864
     29  CB        35.3470   14.6580   57.6430 C.3   423  MET423      0.0413
     30  CG        35.3400   13.1800   57.9490 C.3   423  MET423      0.0598
     31  SD        36.8170   12.6940   58.9250 S.3   423  MET423     -0.1393
     32  CE        36.3610   13.1400   60.5820 C.3   423  MET423      0.0692
     33  N         39.2430   21.4610   47.8320 N.3   473  SER473     -0.1202
     34  CA        40.4250   20.5970   47.6210 C.3   473  SER473      0.2020
     35  C         41.5360   20.6580   48.6670 C.2   473  SER473      0.2619
     36  O         42.5670   19.9870   48.5210 O.2   473  SER473     -0.2717
     37  CB        41.0070   20.8130   46.2200 C.3   473  SER473      0.2103
     38  OG        41.1360   22.1620   45.9600 O.3   473  SER473     -0.2182
     39  N         41.3100   21.3580   49.7800 N.am  474  LEU474     -0.1965
     40  CA        42.3180   21.3630   50.8320 C.3   474  LEU474      0.1728
     41  C         42.6200   19.9830   51.3310 C.2   474  LEU474      0.2616
     42  O         41.7330   19.1450   51.4510 O.2   474  LEU474     -0.2715
     43  CB        41.8720   22.2240   52.0150 C.3   474  LEU474      0.0311
     44  CG        41.7940   23.7220   51.8070 C.3   474  LEU474      0.0022
     45  CD1       41.7520   24.4480   53.1940 C.3   474  LEU474      0.0001
     46  CD2       42.9210   24.2390   50.9830 C.3   474  LEU474      0.0001
     47  N         43.8700   19.7390   51.6890 N.am  475  HIS475     -0.1959
     48  CA        44.2790   18.4420   52.1930 C.3   475  HIS475      0.1787
     49  C         45.5650   18.6430   52.9970 C.2   475  HIS475      0.2621
     50  O         46.0400   19.7430   53.0870 O.2   475  HIS475     -0.2715
     51  CB        44.5390   17.4950   51.0080 C.3   475  HIS475      0.0785
     52  CG        45.5860   18.0240   50.0770 C.ar  475  HIS475      0.0821
     53  ND1       46.9220   17.7290   50.2280 N.ar  475  HIS475     -0.2267
     54  CD2       45.5100   18.9280   49.0730 C.ar  475  HIS475      0.1154
     55  CE1       47.6160   18.3890   49.3160 C.ar  475  HIS475      0.1986
     56  NE2       46.7840   19.1190   48.6010 N.ar  475  HIS475     -0.2212
     57  N         46.1160   17.5720   53.5450 N.am  476  SER476     -0.1936
     58  CA        47.3430   17.6330   54.3520 C.3   476  SER476      0.2055
     59  C         47.2000   18.6760   55.4440 C.2   476  SER476      0.2643
     60  O         47.9270   19.6720   55.4610 O.2   476  SER476     -0.2714
     61  CB        48.5540   17.8890   53.4530 C.3   476  SER476      0.2130
     62  OG        48.6210   16.8330   52.4960 O.3   476  SER476     -0.2179
     63  N         46.2240   18.4230   56.3240 N.am  477  TYR477     -0.1973
     64  CA        45.9360   19.2940   57.4520 C.3   477  TYR477      0.1639
     65  C         47.0300   19.1020   58.5140 C.2   477  TYR477      0.2290
     66  O         47.7390   18.0860   58.5370 O.2   477  TYR477     -0.2864
     67  CB        44.5860   18.9570   58.0410 C.3   477  TYR477      0.0560
     68  CG        43.4250   19.3840   57.1710 C.ar  477  TYR477     -0.0198
     69  CD1       42.9100   18.5450   56.2080 C.ar  477  TYR477     -0.0009
     70  CD2       42.8410   20.6220   57.3350 C.ar  477  TYR477     -0.0009
     71  CE1       41.8490   18.9380   55.3970 C.ar  477  TYR477      0.0417
     72  CE2       41.7720   21.0400   56.5120 C.ar  477  TYR477      0.0417
     73  CZ        41.2650   20.1730   55.5740 C.ar  477  TYR477      0.1957
     74  OH        40.1770   20.5750   54.7930 O.3   477  TYR477     -0.2866
     75  N         44.5920   17.6430   63.0500 N.3   482  ILE482     -0.1245
     76  CA        44.1420   16.2760   62.9640 C.3   482  ILE482      0.1561
     77  C         43.9820   15.6650   64.3140 C.2   482  ILE482      0.2260
     78  O         42.9680   15.0160   64.5530 O.2   482  ILE482     -0.2867
     79  CB        45.0630   15.4010   62.0350 C.3   482  ILE482      0.0252
     80  CG1       44.9240   15.8900   60.6000 C.3   482  ILE482      0.0019
     81  CG2       44.7390   13.9490   62.1580 C.3   482  ILE482      0.0019
     82  CD1       46.0740   15.5720   59.6920 C.3   482  ILE482      0.0001
     83  N         40.9620   17.0010   66.2750 N.3   485  VAL485     -0.1231
     84  CA        39.7060   16.4020   65.7970 C.3   485  VAL485      0.1692
     85  C         39.5550   14.9570   66.2910 C.2   485  VAL485      0.2591
     86  O         38.5120   14.6080   66.8310 O.2   485  VAL485     -0.2718
     87  CB        39.5360   16.5230   64.2630 C.3   485  VAL485      0.0266
     88  CG1       38.2750   15.7760   63.8540 C.3   485  VAL485      0.0020
     89  CG2       39.4830   17.9450   63.7690 C.3   485  VAL485      0.0020
     90  N         40.6100   14.1350   66.1500 N.am  486  ALA486     -0.1980
     91  CA        40.5920   12.7610   66.5730 C.3   486  ALA486      0.1597
     92  C         40.2810   12.6350   68.0670 C.2   486  ALA486      0.2287
     93  O         39.4950   11.7880   68.4490 O.2   486  ALA486     -0.2864
     94  CB        41.9270   12.0450   66.2040 C.3   486  ALA486      0.0319
     95  N         36.6170   13.1670   68.4570 N.3   489  LEU489     -0.1245
     96  CA        35.8700   12.0040   67.9810 C.3   489  LEU489      0.1561
     97  C         35.8240   10.8910   68.9920 C.2   489  LEU489      0.2260
     98  O         34.7680   10.2760   69.2210 O.2   489  LEU489     -0.2867
     99  CB        36.3820   11.5260   66.6170 C.3   489  LEU489      0.0270
    100  CG        36.4600   12.5830   65.5200 C.3   489  LEU489      0.0019
    101  CD1       36.5940   11.9290   64.1810 C.3   489  LEU489      0.0001
    102  CD2       35.3290   13.5580   65.4750 C.3   489  LEU489      0.0001
    103  N         37.3010    8.4510   60.3340 N.3   497  LEU497     -0.1245
    104  CA        37.4330    8.8860   58.9450 C.3   497  LEU497      0.1561
    105  C         36.9260    7.8330   57.9560 C.2   497  LEU497      0.2260
    106  O         36.2340    8.1700   57.0190 O.2   497  LEU497     -0.2867
    107  CB        38.9080    9.2360   58.6400 C.3   497  LEU497      0.0270
    108  CG        39.3050    9.4930   57.2000 C.3   497  LEU497      0.0019
    109  CD1       38.5220   10.5860   56.5820 C.3   497  LEU497      0.0001
    110  CD2       40.8090    9.7920   57.0860 C.3   497  LEU497      0.0001
    111  N         34.1380    8.6490   55.1340 N.3   501  ARG501     -0.1245
    112  CA        34.4670    8.6260   53.7100 C.3   501  ARG501      0.1563
    113  C         33.4990    7.6920   52.9770 C.2   501  ARG501      0.2260
    114  O         32.9910    8.0560   51.9350 O.2   501  ARG501     -0.2867
    115  CB        35.9020    8.1540   53.5000 C.3   501  ARG501      0.0307
    116  CG        36.3510    8.2570   52.0650 C.3   501  ARG501      0.0489
    117  CD        37.6700    7.5060   51.8010 C.3   501  ARG501      0.2205
    118  NE        38.7960    7.9730   52.6320 N.pl3 501  ARG501     -0.0865
    119  CZ        39.4830    9.1070   52.4620 C.cat 501  ARG501      0.5346
    120  NH1       39.1880    9.9910   51.4940 N.pl3 501  ARG501      0.1354
    121  NH2       40.4900    9.3670   53.3020 N.pl3 501  ARG501      0.1354
    122  N         36.5450   15.3900   47.9500 N.3   528  TRP528     -0.1241
    123  CA        37.5540   14.8170   48.8730 C.3   528  TRP528      0.1605
    124  C         37.4390   13.3350   49.1340 C.2   528  TRP528      0.2264
    125  O         38.4540   12.7100   49.4650 O.2   528  TRP528     -0.2867
    126  CB        37.5490   15.5090   50.2470 C.3   528  TRP528      0.0550
    127  CG        36.2730   15.3470   51.0390 C.ar  528  TRP528      0.0003
    128  CD1       35.2120   16.2010   51.0210 C.ar  528  TRP528      0.0946
    129  CD2       35.9300   14.3110   51.9750 C.ar  528  TRP528      0.0152
    130  NE1       34.2280   15.7300   51.8430 N.ar  528  TRP528     -0.2442
    131  CE2       34.6260   14.5860   52.4410 C.ar  528  TRP528      0.0810
    132  CE3       36.5660   13.1510   52.4300 C.ar  528  TRP528      0.0012
    133  CZ2       33.9610   13.7720   53.3280 C.ar  528  TRP528      0.0191
    134  CZ3       35.9180   12.3600   53.3440 C.ar  528  TRP528      0.0001
    135  CH2       34.6130   12.6720   53.7850 C.ar  528  TRP528      0.0015
    136  N         39.5790   11.9980   41.8260 N.3   533  LYS533     -0.1245
    137  CA        39.1330   13.3800   41.9950 C.3   533  LYS533      0.1561
    138  C         38.6490   13.9980   40.6960 C.2   533  LYS533      0.2260
    139  O         39.3290   13.8800   39.6830 O.2   533  LYS533     -0.2867
    140  CB        40.3050   14.2350   42.5040 C.3   533  LYS533      0.0271
    141  CG        40.2680   14.6240   43.9780 C.3   533  LYS533      0.0035
    142  CD        40.1920   13.4110   44.8690 C.3   533  LYS533      0.0206
    143  CE        40.5600   13.7500   46.2850 C.3   533  LYS533      0.1093
    144  NZ        40.9150   12.5210   47.0020 N.3   533  LYS533     -0.1314
@<TRIPOS>BOND
     1   139   138    2
     2   138   137    1
     3   136   137    1
     4   137   140    1
     5   140   141    1
     6   141   142    1
     7     5     2    1
     8     4     3    2
     9     3     2    1
    10   142   143    1
    11     2     1    1
    12    38    37    1
    13    37    34    1
    14   143   144    1
    15    34    33    1
    16    34    35    1
    17   122   123    1
    18    36    35    2
    19    56    54   ar
    20    56    55   ar
    21    35    39   am
    22   123   124    1
    23   123   126    1
    24    54    52   ar
    25   124   125    2
    26    55    53   ar
    27    39    40    1
    28    52    53   ar
    29    52    51    1
    30   126   127    1
    31    24    22    1
    32    40    41    1
    33    40    43    1
    34    46    44    1
    35    51    48    1
    36   128   127   ar
    37   128   130   ar
    38   127   129   ar
    39    41    42    2
    40    41    47   am
    41   120   119    1
    42    22    21    2
    43    22    23    1
    44    47    48    1
    45   117   116    1
    46   117   118    1
    47    44    43    1
    48    44    45    1
    49   130   131   ar
    50   114   113    2
    51   129   132   ar
    52   129   131   ar
    53   116   115    1
    54    21    20    1
    55    48    49    1
    56   132   134   ar
    57   131   133   ar
    58   119   118    2
    59   119   121    1
    60    62    61    1
    61   113   112    1
    62    49    50    2
    63    49    57   am
    64   133   135   ar
    65   134   135   ar
    66    61    58    1
    67    20    19    1
    68   115   112    1
    69    57    58    1
    70   112   111    1
    71    19    18    1
    72    58    59    1
    73    18    15    1
    74    74    73    1
    75    17    16    2
    76    15    16    1
    77    15    14    1
    78    71    73   ar
    79    71    69   ar
    80    59    60    2
    81    59    63   am
    82    73    72   ar
    83    16    25   am
    84    69    68   ar
    85    63    64    1
    86    25    26    1
    87    72    70   ar
    88   109   108    1
    89    26    27    1
    90    26    29    1
    91   106   105    2
    92    28    27    2
    93   110   108    1
    94    68    70   ar
    95    68    67    1
    96   108   107    1
    97    64    67    1
    98    64    65    1
    99    29    30    1
   100     7     6    1
   101     7    10    1
   102     7     8    1
   103    30    31    1
   104   105   104    1
   105     9     8    2
   106    10    11    1
   107    65    66    2
   108   107   104    1
   109    31    32    1
   110   104   103    1
   111    11    13    1
   112    11    12    1
   113    82    80    1
   114    80    79    1
   115    79    81    1
   116    79    76    1
   117    76    75    1
   118    76    77    1
   119    89    87    1
   120    88    87    1
   121   101   100    1
   122    87    84    1
   123    77    78    2
   124   102   100    1
   125   100    99    1
   126    84    83    1
   127    84    85    1
   128    90    85   am
   129    90    91    1
   130    94    91    1
   131    85    86    2
   132    91    92    1
   133    99    96    1
   134    96    95    1
   135    96    97    1
   136    92    93    2
   137    97    98    2
