@<TRIPOS>MOLECULE
tmp/3fsbA01.pdb
 155 154 0 0 0
SMALL
GASTEIGER

@<TRIPOS>ATOM
      1  N          5.4260  -11.0700  -69.9810 N.3    78  ARG78      -0.1245
      2  CA         4.0560  -10.7730  -70.3400 C.3    78  ARG78       0.1563
      3  C          3.8670   -9.3760  -70.9270 C.2    78  ARG78       0.2260
      4  O          4.8310   -8.6710  -71.1890 O.2    78  ARG78      -0.2867
      5  CB         3.0330  -11.1670  -69.2700 C.3    78  ARG78       0.0307
      6  CG         2.8820  -12.6790  -69.1340 C.3    78  ARG78       0.0489
      7  CD         1.6680  -13.0690  -68.3070 C.3    78  ARG78       0.2205
      8  NE         1.5140  -14.5130  -68.1740 N.pl3  78  ARG78      -0.0865
      9  CZ         2.3320  -15.3280  -67.4960 C.cat  78  ARG78       0.5346
     10  NH1        3.4050  -14.9160  -66.8180 N.pl3  78  ARG78       0.1354
     11  NH2        2.0230  -16.6040  -67.4650 N.pl3  78  ARG78       0.1354
     12  N         10.2890  -14.6240  -65.6260 N.3    94  GLN94      -0.1231
     13  CA         8.8690  -14.6500  -65.9180 C.3    94  GLN94       0.1698
     14  C          8.1980  -13.3990  -65.3770 C.2    94  GLN94       0.2593
     15  O          8.5880  -12.9790  -64.3060 O.2    94  GLN94      -0.2718
     16  CB         8.2050  -15.8780  -65.3260 C.3    94  GLN94       0.0381
     17  CG         7.1550  -16.2570  -66.2980 C.3    94  GLN94       0.0905
     18  CD         6.1360  -17.1740  -65.6700 C.2    94  GLN94       0.2608
     19  OE1        4.9180  -16.8620  -65.5300 O.2    94  GLN94      -0.2717
     20  NE2        6.6470  -18.3440  -65.2900 N.am   94  GLN94      -0.0878
     21  N          7.2660  -12.7720  -66.0630 N.am   95  THR95      -0.1939
     22  CA         6.7000  -11.5840  -65.4840 C.3    95  THR95       0.2028
     23  C          5.2050  -11.5530  -65.6300 C.2    95  THR95       0.2643
     24  O          4.6430  -12.3870  -66.3000 O.2    95  THR95      -0.2714
     25  CB         7.2610  -10.3040  -66.1370 C.3    95  THR95       0.1808
     26  OG1        6.9920  -10.2920  -67.5480 O.3    95  THR95      -0.2208
     27  CG2        8.7250  -10.0690  -65.8200 C.3    95  THR95       0.0379
     28  N          4.5780  -10.5690  -64.9940 N.am   96  GLY96      -0.1939
     29  CA         3.1430  -10.3630  -65.0510 C.3    96  GLY96       0.2014
     30  C          2.9940   -9.1840  -66.0050 C.2    96  GLY96       0.2638
     31  O          3.9160   -8.8620  -66.7340 O.2    96  GLY96      -0.2714
     32  N          1.8280   -8.5410  -65.9920 N.am   97  HIS97      -0.1973
     33  CA         1.5540   -7.4470  -66.8890 C.3    97  HIS97       0.1656
     34  C          2.0270   -6.1360  -66.3680 C.2    97  HIS97       0.2291
     35  O          1.9610   -5.9260  -65.1490 O.2    97  HIS97      -0.2864
     36  CB         0.0120   -7.4160  -67.2750 C.3    97  HIS97       0.0771
     37  CG        -0.4190   -8.7480  -67.7960 C.ar   97  HIS97       0.0820
     38  ND1       -0.3930   -9.0810  -69.1390 N.ar   97  HIS97      -0.2267
     39  CD2       -0.8060   -9.8700  -67.1380 C.ar   97  HIS97       0.1154
     40  CE1       -0.7700  -10.3410  -69.2810 C.ar   97  HIS97       0.1986
     41  NE2       -1.0320  -10.8440  -68.0840 N.ar   97  HIS97      -0.2212
     42  N         10.8220  -14.4070  -60.8380 N.3   112  LYS112     -0.1231
     43  CA         9.4960  -14.0030  -61.2420 C.3   112  LYS112      0.1693
     44  C          9.1180  -12.6640  -60.6560 C.2   112  LYS112      0.2592
     45  O          9.3040  -12.4540  -59.4480 O.2   112  LYS112     -0.2718
     46  CB         8.5170  -15.0020  -60.7180 C.3   112  LYS112      0.0285
     47  CG         9.0570  -16.3470  -61.0770 C.3   112  LYS112      0.0035
     48  CD         8.0540  -17.2520  -61.6810 C.3   112  LYS112      0.0206
     49  CE         7.2880  -17.9900  -60.5910 C.3   112  LYS112      0.1093
     50  NZ         5.9590  -17.4350  -60.1400 N.3   112  LYS112     -0.1314
     51  N          8.5580  -11.8130  -61.5050 N.am  113  ILE113     -0.1966
     52  CA         8.1180  -10.5010  -61.0650 C.3   113  ILE113      0.1727
     53  C          6.6990  -10.2420  -61.5430 C.2   113  ILE113      0.2617
     54  O          6.4060  -10.1220  -62.7280 O.2   113  ILE113     -0.2715
     55  CB         9.1140   -9.4770  -61.5880 C.3   113  ILE113      0.0290
     56  CG1       10.5170   -9.8120  -61.0680 C.3   113  ILE113      0.0022
     57  CG2        8.6870   -8.0800  -61.1980 C.3   113  ILE113      0.0023
     58  CD1       11.6540   -8.8080  -61.4790 C.3   113  ILE113      0.0001
     59  N          5.7900  -10.2060  -60.5900 N.am  114  GLY114     -0.1940
     60  CA         4.4030  -10.0250  -60.9300 C.3   114  GLY114      0.2014
     61  C          3.9120   -8.6750  -61.4520 C.2   114  GLY114      0.2639
     62  O          4.6030   -7.6510  -61.4780 O.2   114  GLY114     -0.2714
     63  N          2.6470   -8.7090  -61.8550 N.am  115  THR115     -0.1950
     64  CA         1.9230   -7.5720  -62.4120 C.3   115  THR115      0.1897
     65  C          2.0960   -6.2400  -61.6650 C.2   115  THR115      0.2313
     66  O          1.9140   -6.1840  -60.4540 O.2   115  THR115     -0.2863
     67  CB         0.4320   -7.9650  -62.5730 C.3   115  THR115      0.1794
     68  OG1        0.3710   -9.1020  -63.4380 O.3   115  THR115     -0.2208
     69  CG2       -0.4330   -6.7950  -63.1270 C.3   115  THR115      0.0378
     70  N         10.9680  -14.5690  -55.9460 N.3   130  ASN130     -0.1225
     71  CA         9.5650  -14.3470  -56.2850 C.3   130  ASN130      0.1785
     72  C          9.0340  -13.0020  -55.8330 C.2   130  ASN130      0.2597
     73  O          8.8400  -12.7850  -54.6260 O.2   130  ASN130     -0.2718
     74  CB         8.6610  -15.3790  -55.6110 C.3   130  ASN130      0.1169
     75  CG         8.5650  -16.6120  -56.4330 C.2   130  ASN130      0.2627
     76  OD1        9.2310  -17.6390  -56.1660 O.2   130  ASN130     -0.2716
     77  ND2        7.8290  -16.4720  -57.5320 N.am  130  ASN130     -0.0877
     78  N          8.7650  -12.1280  -56.7930 N.am  131  ILE131     -0.1966
     79  CA         8.1910  -10.8420  -56.4690 C.3   131  ILE131      0.1727
     80  C          6.7790  -10.8120  -57.1050 C.2   131  ILE131      0.2616
     81  O          6.6110  -10.8890  -58.3160 O.2   131  ILE131     -0.2715
     82  CB         9.0420   -9.7880  -57.0430 C.3   131  ILE131      0.0290
     83  CG1       10.4340   -9.7910  -56.4290 C.3   131  ILE131      0.0022
     84  CG2        8.3110   -8.4700  -56.9240 C.3   131  ILE131      0.0023
     85  CD1       11.3450   -8.7320  -57.0770 C.3   131  ILE131      0.0001
     86  N          5.7590  -10.7040  -56.2640 N.am  132  HIS132     -0.1959
     87  CA         4.3490  -10.6920  -56.6590 C.3   132  HIS132      0.1787
     88  C          3.8130   -9.3730  -57.2300 C.2   132  HIS132      0.2620
     89  O          4.5650   -8.5900  -57.7770 O.2   132  HIS132     -0.2715
     90  CB         3.4940  -11.2110  -55.4920 C.3   132  HIS132      0.0785
     91  CG         2.4400  -12.2100  -55.8760 C.ar  132  HIS132      0.0821
     92  ND1        1.2410  -11.8690  -56.4740 N.ar  132  HIS132     -0.2267
     93  CD2        2.4020  -13.5540  -55.6970 C.ar  132  HIS132      0.1154
     94  CE1        0.5150  -12.9640  -56.6540 C.ar  132  HIS132      0.1986
     95  NE2        1.1940  -14.0020  -56.1920 N.ar  132  HIS132     -0.2212
     96  N          2.5080   -9.1290  -57.1560 N.am  133  SER133     -0.1950
     97  CA         1.9440   -7.9200  -57.7270 C.3   133  SER133      0.1924
     98  C          2.2830   -6.6140  -57.0160 C.2   133  SER133      0.2314
     99  O          2.2220   -6.5090  -55.7930 O.2   133  SER133     -0.2863
    100  CB         0.4070   -8.0100  -57.7090 C.3   133  SER133      0.2116
    101  OG        -0.0600   -8.9860  -58.6110 O.3   133  SER133     -0.2180
    102  N         10.9830  -14.0150  -51.1300 N.3   148  TRP148     -0.1241
    103  CA         9.6280  -13.8280  -51.6450 C.3   148  TRP148      0.1605
    104  C          9.1440  -12.4640  -51.2020 C.2   148  TRP148      0.2264
    105  O          9.1340  -12.2030  -50.0040 O.2   148  TRP148     -0.2867
    106  CB         8.6290  -14.7600  -50.9840 C.3   148  TRP148      0.0550
    107  CG         8.8110  -16.1680  -51.3890 C.ar  148  TRP148      0.0003
    108  CD1        9.8930  -16.9650  -51.1020 C.ar  148  TRP148      0.0946
    109  CD2        7.9060  -16.9740  -52.1710 C.ar  148  TRP148      0.0152
    110  NE1        9.7030  -18.2280  -51.6480 N.ar  148  TRP148     -0.2442
    111  CE2        8.4920  -18.2630  -52.2950 C.ar  148  TRP148      0.0810
    112  CE3        6.6610  -16.7410  -52.7740 C.ar  148  TRP148      0.0012
    113  CZ2        7.8700  -19.3090  -53.0080 C.ar  148  TRP148      0.0191
    114  CZ3        6.0430  -17.7960  -53.4740 C.ar  148  TRP148      0.0001
    115  CH2        6.6480  -19.0640  -53.5790 C.ar  148  TRP148      0.0015
    116  N          5.7550  -10.3720  -51.3070 N.3   150  PHE150     -0.1228
    117  CA         4.3350  -10.4490  -51.6330 C.3   150  PHE150      0.1721
    118  C          3.6800   -9.1440  -52.1030 C.2   150  PHE150      0.2437
    119  O          4.2940   -8.1060  -51.9780 O.2   150  PHE150     -0.2733
    120  CB         3.6200  -11.1560  -50.4960 C.3   150  PHE150      0.0547
    121  CG         3.8440  -12.6170  -50.5420 C.ar  150  PHE150     -0.0202
    122  CD1        3.0080  -13.4440  -51.2860 C.ar  150  PHE150     -0.0042
    123  CD2        4.9300  -13.1720  -49.8820 C.ar  150  PHE150     -0.0042
    124  CE1        3.2280  -14.8250  -51.3410 C.ar  150  PHE150     -0.0003
    125  CE2        5.1690  -14.5310  -49.9280 C.ar  150  PHE150     -0.0003
    126  CZ         4.3210  -15.3780  -50.6580 C.ar  150  PHE150     -0.0000
    127  N          2.4510   -9.1890  -52.6190 N.am  151  PRO151     -0.2729
    128  CA         1.8680   -7.9910  -53.1630 C.3   151  PRO151      0.1401
    129  C          2.0230   -6.7030  -52.3600 C.2   151  PRO151      0.2269
    130  O          1.9090   -6.7100  -51.1280 O.2   151  PRO151     -0.2865
    131  CB         0.3980   -8.3590  -53.3530 C.3   151  PRO151      0.0296
    132  CG         0.3550   -9.8510  -53.4080 C.3   151  PRO151      0.0237
    133  CD         1.4440  -10.2770  -52.5060 C.3   151  PRO151      0.0939
    134  N          7.8030  -26.5180  -48.8320 N.3   241  PHE241     -0.1241
    135  CA         7.2360  -25.9990  -50.0850 C.3   241  PHE241      0.1605
    136  C          8.3040  -26.0700  -51.1500 C.2   241  PHE241      0.2264
    137  O          9.4190  -25.6190  -50.9280 O.2   241  PHE241     -0.2867
    138  CB         6.7430  -24.5450  -49.8890 C.3   241  PHE241      0.0534
    139  CG         6.2280  -23.8760  -51.1510 C.ar  241  PHE241     -0.0203
    140  CD1        4.8480  -23.7660  -51.3940 C.ar  241  PHE241     -0.0042
    141  CD2        7.1330  -23.3420  -52.0800 C.ar  241  PHE241     -0.0042
    142  CE1        4.3730  -23.1760  -52.5940 C.ar  241  PHE241     -0.0003
    143  CE2        6.6890  -22.7560  -53.2570 C.ar  241  PHE241     -0.0003
    144  CZ         5.3050  -22.6710  -53.5060 C.ar  241  PHE241     -0.0000
    145  N          7.2220  -25.9930  -54.9150 N.3   243  ARG243     -0.1245
    146  CA         6.6700  -25.7310  -56.2350 C.3   243  ARG243      0.1563
    147  C          7.5260  -24.6530  -56.8720 C.2   243  ARG243      0.2260
    148  O          7.7000  -23.5840  -56.2910 O.2   243  ARG243     -0.2867
    149  CB         5.2590  -25.1860  -56.0670 C.3   243  ARG243      0.0307
    150  CG         4.5820  -24.7240  -57.3580 C.3   243  ARG243      0.0489
    151  CD         3.0580  -24.5770  -57.1260 C.3   243  ARG243      0.2205
    152  NE         2.6690  -23.5370  -56.1520 N.pl3 243  ARG243     -0.0865
    153  CZ         2.6930  -22.2200  -56.3950 C.cat 243  ARG243      0.5346
    154  NH1        3.1120  -21.7650  -57.5740 N.pl3 243  ARG243      0.1354
    155  NH2        2.3190  -21.3320  -55.4710 N.pl3 243  ARG243      0.1354
@<TRIPOS>BOND
     1     4     3    2
     2     3     2    1
     3     2     1    1
     4     2     5    1
     5    40    38   ar
     6    40    41   ar
     7     5     6    1
     8    38    37   ar
     9     6     7    1
    10     7     8    1
    11     8     9    2
    12    41    39   ar
    13    37    36    1
    14    37    39   ar
    15    26    25    1
    16     9    11    1
    17     9    10    1
    18    36    33    1
    19    33    34    1
    20    33    32    1
    21    31    30    2
    22    34    35    2
    23    24    23    2
    24    17    18    1
    25    17    16    1
    26    25    27    1
    27    25    22    1
    28    21    22    1
    29    21    14   am
    30    30    32   am
    31    30    29    1
    32    13    12    1
    33    13    14    1
    34    13    16    1
    35    18    19    2
    36    18    20   am
    37    23    22    1
    38    23    28   am
    39    14    15    2
    40    29    28    1
    41    68    67    1
    42    69    67    1
    43    54    53    2
    44    67    64    1
    45    64    63    1
    46    64    65    1
    47    63    61   am
    48    48    47    1
    49    48    49    1
    50    65    66    2
    51    55    57    1
    52    55    56    1
    53    55    52    1
    54    53    52    1
    55    53    59   am
    56    51    52    1
    57    51    44   am
    58    58    56    1
    59    62    61    2
    60    61    60    1
    61    43    42    1
    62    43    46    1
    63    43    44    1
    64    47    46    1
    65    60    59    1
    66    44    45    2
    67    49    50    1
    68   101   100    1
    69    81    80    2
    70    89    88    2
    71    97   100    1
    72    97    96    1
    73    97    98    1
    74   154   153    1
    75    77    75   am
    76   150   151    1
    77   150   149    1
    78    88    96   am
    79    88    87    1
    80   151   152    1
    81    80    79    1
    82    80    86   am
    83    85    83    1
    84    82    84    1
    85    82    79    1
    86    82    83    1
    87    98    99    2
    88   147   148    2
    89   147   146    1
    90    78    79    1
    91    78    72   am
    92    87    86    1
    93    87    90    1
    94    94    92   ar
    95    94    95   ar
    96    92    91   ar
    97    75    76    2
    98    75    74    1
    99   153   152    2
   100   153   155    1
   101    71    70    1
   102    71    72    1
   103    71    74    1
   104   146   149    1
   105   146   145    1
   106    95    93   ar
   107    91    93   ar
   108    91    90    1
   109    72    73    2
   110   115   114   ar
   111   115   113   ar
   112   144   143   ar
   113   144   142   ar
   114   114   112   ar
   115   132   131    1
   116   132   133    1
   117   131   128    1
   118   143   141   ar
   119   128   127    1
   120   128   129    1
   121   113   111   ar
   122   112   109   ar
   123   127   133    1
   124   127   118   am
   125   142   140   ar
   126   129   130    2
   127   111   109   ar
   128   111   110   ar
   129   109   107   ar
   130   118   119    2
   131   118   117    1
   132   141   139   ar
   133   110   108   ar
   134   103   104    1
   135   103   102    1
   136   103   106    1
   137   117   116    1
   138   117   120    1
   139   140   139   ar
   140   107   108   ar
   141   107   106    1
   142   124   122   ar
   143   124   126   ar
   144   122   121   ar
   145   104   105    2
   146   139   138    1
   147   136   137    2
   148   136   135    1
   149   126   125   ar
   150   121   120    1
   151   121   123   ar
   152   135   138    1
   153   135   134    1
   154   125   123   ar
