@<TRIPOS>MOLECULE
tmp/3fsbA00.pdb
 110 103 0 0 0
SMALL
GASTEIGER

@<TRIPOS>ATOM
      1  N          5.7590  -10.7040  -56.2640 N.3   132  HIS132     -0.1241
      2  CA         4.3490  -10.6920  -56.6590 C.3   132  HIS132      0.1621
      3  C          3.8130   -9.3730  -57.2300 C.2   132  HIS132      0.2264
      4  O          4.5650   -8.5900  -57.7770 O.2   132  HIS132     -0.2867
      5  CB         3.4940  -11.2110  -55.4920 C.3   132  HIS132      0.0745
      6  CG         2.4400  -12.2100  -55.8760 C.ar  132  HIS132      0.0817
      7  ND1        1.2410  -11.8690  -56.4740 N.ar  132  HIS132     -0.2268
      8  CD2        2.4020  -13.5540  -55.6970 C.ar  132  HIS132      0.1154
      9  CE1        0.5150  -12.9640  -56.6540 C.ar  132  HIS132      0.1986
     10  NE2        1.1940  -14.0020  -56.1920 N.ar  132  HIS132     -0.2212
     11  N          5.7550  -10.3720  -51.3070 N.3   150  PHE150     -0.1228
     12  CA         4.3350  -10.4490  -51.6330 C.3   150  PHE150      0.1721
     13  C          3.6800   -9.1440  -52.1030 C.2   150  PHE150      0.2437
     14  O          4.2940   -8.1060  -51.9780 O.2   150  PHE150     -0.2733
     15  CB         3.6200  -11.1560  -50.4960 C.3   150  PHE150      0.0547
     16  CG         3.8440  -12.6170  -50.5420 C.ar  150  PHE150     -0.0202
     17  CD1        3.0080  -13.4440  -51.2860 C.ar  150  PHE150     -0.0042
     18  CD2        4.9300  -13.1720  -49.8820 C.ar  150  PHE150     -0.0042
     19  CE1        3.2280  -14.8250  -51.3410 C.ar  150  PHE150     -0.0003
     20  CE2        5.1690  -14.5310  -49.9280 C.ar  150  PHE150     -0.0003
     21  CZ         4.3210  -15.3780  -50.6580 C.ar  150  PHE150     -0.0000
     22  N          2.4510   -9.1890  -52.6190 N.am  151  PRO151     -0.2729
     23  CA         1.8680   -7.9910  -53.1630 C.3   151  PRO151      0.1401
     24  C          2.0230   -6.7030  -52.3600 C.2   151  PRO151      0.2269
     25  O          1.9090   -6.7100  -51.1280 O.2   151  PRO151     -0.2865
     26  CB         0.3980   -8.3590  -53.3530 C.3   151  PRO151      0.0296
     27  CG         0.3550   -9.8510  -53.4080 C.3   151  PRO151      0.0237
     28  CD         1.4440  -10.2770  -52.5060 C.3   151  PRO151      0.0939
     29  N          5.7230  -10.5330  -46.1450 N.3   178  ALA178     -0.1231
     30  CA         4.3140  -10.6360  -46.5110 C.3   178  ALA178      0.1694
     31  C          3.7180   -9.3680  -47.1190 C.2   178  ALA178      0.2591
     32  O          4.3010   -8.2750  -47.0130 O.2   178  ALA178     -0.2718
     33  CB         3.5070  -11.0650  -45.2880 C.3   178  ALA178      0.0304
     34  N          2.5150   -9.4910  -47.6780 N.am  179  ALA179     -0.1980
     35  CA         1.8510   -8.3950  -48.3500 C.3   179  ALA179      0.1597
     36  C          1.7190   -7.0320  -47.6380 C.2   179  ALA179      0.2287
     37  O          1.4370   -7.0080  -46.4380 O.2   179  ALA179     -0.2864
     38  CB         0.4130   -8.8770  -48.7600 C.3   179  ALA179      0.0319
     39  N         10.7460  -13.8610  -41.3360 N.3   194  LEU194     -0.1245
     40  CA         9.3890  -13.6650  -41.8590 C.3   194  LEU194      0.1561
     41  C          8.8290  -12.3360  -41.3940 C.2   194  LEU194      0.2260
     42  O          8.7140  -12.0760  -40.1950 O.2   194  LEU194     -0.2867
     43  CB         8.4370  -14.7690  -41.3690 C.3   194  LEU194      0.0270
     44  CG         6.9470  -14.6190  -41.6750 C.3   194  LEU194      0.0019
     45  CD1        6.7170  -14.3740  -43.2250 C.3   194  LEU194      0.0001
     46  CD2        6.1340  -15.8460  -41.1930 C.3   194  LEU194      0.0001
     47  N          5.6210  -10.2030  -41.2010 N.3   196  GLY196     -0.1210
     48  CA         4.1760  -10.3910  -41.3150 C.3   196  GLY196      0.1956
     49  C          3.5040   -9.2880  -42.1430 C.2   196  GLY196      0.2611
     50  O          3.9190   -8.1240  -42.2400 O.2   196  GLY196     -0.2717
     51  N          2.4010   -9.6710  -42.7390 N.am  197  ALA197     -0.1979
     52  CA         1.6390   -8.7540  -43.5620 C.3   197  ALA197      0.1597
     53  C          1.3920   -7.4240  -42.9040 C.2   197  ALA197      0.2287
     54  O          1.0480   -7.3540  -41.7130 O.2   197  ALA197     -0.2864
     55  CB         0.2890   -9.3900  -43.8630 C.3   197  ALA197      0.0319
     56  N         10.1320  -13.9290  -36.5900 N.3   210  VAL210     -0.1245
     57  CA         8.9040  -13.3300  -37.1260 C.3   210  VAL210      0.1561
     58  C          8.6490  -11.9790  -36.4530 C.2   210  VAL210      0.2260
     59  O          8.6410  -11.8500  -35.2110 O.2   210  VAL210     -0.2867
     60  CB         7.6250  -14.1160  -36.7640 C.3   210  VAL210      0.0252
     61  CG1        6.4440  -13.6180  -37.6220 C.3   210  VAL210      0.0019
     62  CG2        7.8250  -15.6200  -36.9070 C.3   210  VAL210      0.0019
     63  N          5.9970   -8.4600  -36.6950 N.3   212  VAL212     -0.1231
     64  CA         4.6890   -8.0120  -37.1790 C.3   212  VAL212      0.1692
     65  C          4.3400   -6.6600  -36.5660 C.2   212  VAL212      0.2592
     66  O          4.8480   -6.3100  -35.5070 O.2   212  VAL212     -0.2718
     67  CB         3.5290   -8.9940  -36.9030 C.3   212  VAL212      0.0266
     68  CG1        3.8640  -10.3930  -37.3770 C.3   212  VAL212      0.0020
     69  CG2        3.0930   -8.9100  -35.4520 C.3   212  VAL212      0.0020
     70  N          3.4930   -5.9000  -37.2450 N.am  213  GLY213     -0.1957
     71  CA         3.0560   -4.5970  -36.7880 C.3   213  GLY213      0.1869
     72  C          3.7220   -3.3350  -37.3010 C.2   213  GLY213      0.2309
     73  O          4.5970   -3.3560  -38.1690 O.2   213  GLY213     -0.2863
     74  N          8.0070  -11.4840  -32.6440 N.3   219  ILE219     -0.1245
     75  CA         7.0020  -12.1620  -31.8480 C.3   219  ILE219      0.1561
     76  C          7.4140  -13.5640  -31.5520 C.2   219  ILE219      0.2260
     77  O          7.0210  -14.1210  -30.5250 O.2   219  ILE219     -0.2867
     78  CB         5.6010  -12.1080  -32.4830 C.3   219  ILE219      0.0252
     79  CG1        5.6740  -12.3890  -33.9680 C.3   219  ILE219      0.0019
     80  CG2        5.0050  -10.7090  -32.3730 C.3   219  ILE219      0.0019
     81  CD1        4.3750  -13.0230  -34.4280 C.3   219  ILE219      0.0001
     82  N          5.7160  -21.5200  -36.1290 N.3   225  ILE225     -0.1245
     83  CA         4.5610  -21.5560  -37.0230 C.3   225  ILE225      0.1561
     84  C          4.0460  -22.8900  -37.5170 C.2   225  ILE225      0.2260
     85  O          4.8080  -23.6900  -38.0820 O.2   225  ILE225     -0.2867
     86  CB         4.5150  -20.3790  -38.0270 C.3   225  ILE225      0.0252
     87  CG1        4.7500  -19.0420  -37.3080 C.3   225  ILE225      0.0019
     88  CG2        3.2210  -20.4180  -38.8810 C.3   225  ILE225      0.0019
     89  CD1        5.3250  -17.9390  -38.1750 C.3   225  ILE225      0.0001
     90  N         -1.8350  -23.6680  -40.9110 N.3   228  LYS228     -0.1245
     91  CA        -3.2130  -23.4390  -40.4840 C.3   228  LYS228      0.1561
     92  C         -4.2440  -24.4990  -40.8950 C.2   228  LYS228      0.2260
     93  O         -5.3340  -24.5990  -40.3290 O.2   228  LYS228     -0.2867
     94  CB        -3.6580  -22.0380  -40.9090 C.3   228  LYS228      0.0271
     95  CG        -2.5620  -21.0150  -40.7200 C.3   228  LYS228      0.0035
     96  CD        -3.0370  -19.7870  -39.9610 C.3   228  LYS228      0.0206
     97  CE        -3.5350  -20.1800  -38.5950 C.3   228  LYS228      0.1093
     98  NZ        -4.9460  -19.7500  -38.3890 N.3   228  LYS228     -0.1314
     99  N          8.0760  -23.5730  -41.4160 N.3   235  TYR235     -0.1241
    100  CA         9.4320  -23.1160  -41.7430 C.3   235  TYR235      0.1605
    101  C         10.5690  -23.7990  -40.9710 C.2   235  TYR235      0.2264
    102  O         10.3540  -24.2890  -39.8540 O.2   235  TYR235     -0.2867
    103  CB         9.5660  -21.6020  -41.4770 C.3   235  TYR235      0.0534
    104  CG         8.4410  -20.7320  -41.9860 C.ar  235  TYR235     -0.0201
    105  CD1        7.3060  -20.5020  -41.2310 C.ar  235  TYR235     -0.0009
    106  CD2        8.5110  -20.1230  -43.2300 C.ar  235  TYR235     -0.0009
    107  CE1        6.2550  -19.7160  -41.7140 C.ar  235  TYR235      0.0417
    108  CE2        7.4770  -19.3360  -43.7000 C.ar  235  TYR235      0.0417
    109  CZ         6.3500  -19.1330  -42.9440 C.ar  235  TYR235      0.1957
    110  OH         5.3180  -18.3490  -43.4380 O.3   235  TYR235     -0.2866
@<TRIPOS>BOND
     1     4     3    2
     2     3     2    1
     3     2     1    1
     4     2     5    1
     5     9     7   ar
     6     9    10   ar
     7     7     6   ar
     8    10     8   ar
     9     6     8   ar
    10     6     5    1
    11    27    26    1
    12    27    28    1
    13    26    23    1
    14    23    22    1
    15    23    24    1
    16    22    28    1
    17    22    13   am
    18    24    25    2
    19    13    14    2
    20    13    12    1
    21    12    11    1
    22    12    15    1
    23    19    17   ar
    24    19    21   ar
    25    17    16   ar
    26    21    20   ar
    27    16    15    1
    28    16    18   ar
    29    20    18   ar
    30    38    35    1
    31    35    34    1
    32    35    36    1
    33    34    31   am
    34    36    37    2
    35    31    32    2
    36    31    30    1
    37    30    29    1
    38    30    33    1
    39    55    52    1
    40   108   106   ar
    41   108   109   ar
    42    52    53    1
    43    52    51    1
    44   110   109    1
    45   106   104   ar
    46    45    44    1
    47   109   107   ar
    48    53    54    2
    49    51    49   am
    50    50    49    2
    51    49    48    1
    52   104   103    1
    53   104   105   ar
    54    40    41    1
    55    40    43    1
    56    40    39    1
    57   100   103    1
    58   100    99    1
    59   100   101    1
    60   107   105   ar
    61    44    43    1
    62    44    46    1
    63    41    42    2
    64    48    47    1
    65   101   102    2
    66    90    91    1
    67    94    95    1
    68    94    91    1
    69    92    91    1
    70    92    93    2
    71    95    96    1
    72    96    97    1
    73    88    86    1
    74    97    98    1
    75    89    87    1
    76    73    72    2
    77    85    84    2
    78    86    87    1
    79    86    83    1
    80    61    60    1
    81    84    83    1
    82    68    67    1
    83    72    71    1
    84    70    71    1
    85    70    65   am
    86    64    67    1
    87    64    63    1
    88    64    65    1
    89    57    60    1
    90    57    56    1
    91    57    58    1
    92    83    82    1
    93    62    60    1
    94    67    69    1
    95    65    66    2
    96    58    59    2
    97    81    79    1
    98    79    78    1
    99    74    75    1
   100    78    80    1
   101    78    75    1
   102    75    76    1
   103    76    77    2
