@<TRIPOS>MOLECULE
tmp/3fsfA00.pdb
 153 145 0 0 0
SMALL
GASTEIGER

@<TRIPOS>ATOM
      1  N         22.5160    8.8770   43.9250 N.3    25  PRO25      -0.2102
      2  CA        22.8000   10.1700   43.2860 C.3    25  PRO25       0.1504
      3  C         23.9210   10.1190   42.2440 C.2    25  PRO25       0.2576
      4  O         24.9230    9.4480   42.4430 O.2    25  PRO25      -0.2718
      5  CB        23.1770   11.0580   44.4650 C.3    25  PRO25       0.0282
      6  CG        22.3890   10.4890   45.5900 C.3    25  PRO25       0.0208
      7  CD        22.5790    8.9960   45.3890 C.3    25  PRO25       0.0893
      8  N         23.7440   10.8010   41.1210 N.am   26  VAL26      -0.1966
      9  CA        24.7840   10.8460   40.1010 C.3    26  VAL26       0.1727
     10  C         24.9310   12.2710   39.5540 C.2    26  VAL26       0.2616
     11  O         25.6270   12.5000   38.5570 O.2    26  VAL26      -0.2715
     12  CB        24.4960    9.9030   38.9110 C.3    26  VAL26       0.0290
     13  CG1       24.5860    8.4630   39.3580 C.3    26  VAL26       0.0023
     14  CG2       23.1340   10.2150   38.3020 C.3    26  VAL26       0.0023
     15  N         24.2680   13.2300   40.2010 N.am   27  GLY27      -0.1955
     16  CA        24.3520   14.6060   39.7330 C.3    27  GLY27       0.1869
     17  C         23.1730   15.4500   40.1740 C.2    27  GLY27       0.2309
     18  O         22.1460   14.8610   40.5670 O.2    27  GLY27      -0.2863
     19  N         19.6480   14.1190   39.6600 N.3    29  VAL29      -0.1245
     20  CA        19.5280   12.7830   39.0850 C.3    29  VAL29       0.1561
     21  C         20.0820   11.5970   39.8800 C.2    29  VAL29       0.2260
     22  O         21.1280   11.6940   40.5220 O.2    29  VAL29      -0.2867
     23  CB        20.1900   12.7590   37.6900 C.3    29  VAL29       0.0252
     24  CG1       19.9820   11.3960   37.0250 C.3    29  VAL29       0.0019
     25  CG2       19.6340   13.9000   36.8350 C.3    29  VAL29       0.0019
     26  N         18.1020    6.1730   34.5960 N.3    42  ALA42      -0.1231
     27  CA        18.4780    7.4350   35.2200 C.3    42  ALA42       0.1694
     28  C         17.1660    8.1320   35.5830 C.2    42  ALA42       0.2592
     29  O         16.2720    8.2150   34.7570 O.2    42  ALA42      -0.2718
     30  CB        19.2840    8.2810   34.2450 C.3    42  ALA42       0.0304
     31  N         17.0220    8.5870   36.8210 N.am   43  VAL43      -0.1966
     32  CA        15.7940    9.2700   37.2250 C.3    43  VAL43       0.1727
     33  C         16.0660   10.7300   37.6190 C.2    43  VAL43       0.2616
     34  O         16.8070   10.9970   38.5740 O.2    43  VAL43      -0.2715
     35  CB        15.1280    8.5640   38.4260 C.3    43  VAL43       0.0290
     36  CG1       13.8050    9.2090   38.7250 C.3    43  VAL43       0.0023
     37  CG2       14.9660    7.0720   38.1370 C.3    43  VAL43       0.0023
     38  N         15.4670   11.6710   36.8860 N.am   44  LYS44      -0.1977
     39  CA        15.6610   13.0900   37.1950 C.3    44  LYS44       0.1596
     40  C         14.4500   13.6940   37.8610 C.2    44  LYS44       0.2287
     41  O         13.3370   13.6210   37.3270 O.2    44  LYS44      -0.2864
     42  CB        15.9860   13.9040   35.9310 C.3    44  LYS44       0.0298
     43  CG        16.0840   15.4190   36.2040 C.3    44  LYS44       0.0038
     44  CD        16.7070   16.1990   35.0540 C.3    44  LYS44       0.0206
     45  CE        15.7950   16.2610   33.8320 C.3    44  LYS44       0.1093
     46  NZ        16.3700   17.1000   32.7300 N.3    44  LYS44      -0.1314
     47  N         10.4280   20.5040   27.8690 N.3    62  GLU62      -0.1245
     48  CA        11.2640   19.3120   27.9750 C.3    62  GLU62       0.1567
     49  C         10.4340   18.0340   27.9140 C.2    62  GLU62       0.2260
     50  O         10.8030   17.0740   27.2330 O.2    62  GLU62      -0.2867
     51  CB        12.1310   19.3320   29.2480 C.3    62  GLU62       0.0388
     52  CG        13.0620   18.1070   29.2760 C.3    62  GLU62       0.1160
     53  CD        13.9360   17.9900   30.5360 C.2    62  GLU62       0.3649
     54  OE1       13.6090   18.5560   31.6110 O.co2  62  GLU62      -0.2457
     55  OE2       14.9510   17.2850   30.4470 O.co2  62  GLU62      -0.2457
     56  N         10.9220   15.0430   24.9670 N.3    66  LEU66      -0.1245
     57  CA        11.2900   13.6750   25.3410 C.3    66  LEU66       0.1561
     58  C         10.2120   12.6580   25.0110 C.2    66  LEU66       0.2260
     59  O         10.5090   11.5200   24.5930 O.2    66  LEU66      -0.2867
     60  CB        11.6310   13.6210   26.8370 C.3    66  LEU66       0.0270
     61  CG        13.0790   13.8010   27.3210 C.3    66  LEU66       0.0019
     62  CD1       14.0080   14.2620   26.2060 C.3    66  LEU66       0.0001
     63  CD2       13.0800   14.7690   28.4960 C.3    66  LEU66       0.0001
     64  N         18.0500   10.2010   22.9980 N.3    75  ILE75      -0.1245
     65  CA        17.5370    9.9090   24.3140 C.3    75  ILE75       0.1561
     66  C         16.0060   10.0120   24.2870 C.2    75  ILE75       0.2260
     67  O         15.4460   10.9890   23.7940 O.2    75  ILE75      -0.2867
     68  CB        18.0720   10.8890   25.3620 C.3    75  ILE75       0.0252
     69  CG1       17.7040   10.3700   26.7450 C.3    75  ILE75       0.0019
     70  CG2       17.4650   12.2930   25.1610 C.3    75  ILE75       0.0019
     71  CD1       17.9460   11.3670   27.8500 C.3    75  ILE75       0.0001
     72  N         11.4340   12.2810   35.5930 N.3    95  LEU95      -0.1245
     73  CA        11.5780   11.7660   34.2310 C.3    95  LEU95       0.1561
     74  C         12.5660   10.6000   34.2860 C.2    95  LEU95       0.2260
     75  O         13.6210   10.7120   34.9080 O.2    95  LEU95      -0.2867
     76  CB        12.1360   12.8680   33.3270 C.3    95  LEU95       0.0270
     77  CG        11.3640   14.2070   33.3030 C.3    95  LEU95       0.0019
     78  CD1       12.1820   15.2180   32.5150 C.3    95  LEU95       0.0001
     79  CD2        9.9640   14.0180   32.6750 C.3    95  LEU95       0.0001
     80  N         14.8580    7.7970   32.0450 N.3    97  THR97      -0.1203
     81  CA        15.4500    7.4740   30.7540 C.3    97  THR97       0.1994
     82  C         16.4370    6.3180   30.9700 C.2    97  THR97       0.2618
     83  O         16.6710    5.9090   32.1030 O.2    97  THR97      -0.2717
     84  CB        16.2340    8.6890   30.1900 C.3    97  THR97       0.1784
     85  OG1       17.4620    8.8380   30.9180 O.3    97  THR97      -0.2211
     86  CG2       15.4200    9.9740   30.3450 C.3    97  THR97       0.0376
     87  N         16.9840    5.7810   29.8800 N.am   98  HIS98      -0.1961
     88  CA        17.9840    4.7160   29.9460 C.3    98  HIS98       0.1787
     89  C         19.1970    5.3130   30.6600 C.2    98  HIS98       0.2620
     90  O         19.4930    6.4970   30.4850 O.2    98  HIS98      -0.2715
     91  CB        18.4430    4.3160   28.5370 C.3    98  HIS98       0.0785
     92  CG        17.4980    3.4090   27.8090 C.ar   98  HIS98       0.0821
     93  ND1       17.3180    2.0870   28.1590 N.ar   98  HIS98      -0.2267
     94  CD2       16.6990    3.6270   26.7370 C.ar   98  HIS98       0.1154
     95  CE1       16.4500    1.5300   27.3370 C.ar   98  HIS98       0.1986
     96  NE2       16.0590    2.4430   26.4650 N.ar   98  HIS98      -0.2212
     97  N         19.8960    4.5190   31.4600 N.am   99  LEU99      -0.1963
     98  CA        21.0910    5.0320   32.1290 C.3    99  LEU99       0.1728
     99  C         22.2080    4.8200   31.1130 C.2    99  LEU99       0.2616
    100  O         22.3500    3.7330   30.5580 O.2    99  LEU99      -0.2715
    101  CB        21.4120    4.2330   33.4020 C.3    99  LEU99       0.0311
    102  CG        22.6820    4.6220   34.1720 C.3    99  LEU99       0.0022
    103  CD1       22.4530    5.9620   34.8960 C.3    99  LEU99       0.0001
    104  CD2       23.0300    3.5330   35.1950 C.3    99  LEU99       0.0001
    105  N         22.9790    5.8590   30.8490 N.am  100  MET100     -0.1963
    106  CA        24.0780    5.7570   29.8890 C.3   100  MET100      0.1736
    107  C         25.3880    5.6840   30.6830 C.2   100  MET100      0.2617
    108  O         25.4630    6.1850   31.8000 O.2   100  MET100     -0.2715
    109  CB        24.0640    6.9700   28.9500 C.3   100  MET100      0.0427
    110  CG        22.7960    7.1050   28.0900 C.3   100  MET100      0.0599
    111  SD        22.4280    5.6070   27.1280 S.3   100  MET100     -0.1393
    112  CE        23.5740    5.7970   25.6960 C.3   100  MET100      0.0692
    113  N         26.4150    5.0770   30.0960 N.am  101  GLY101     -0.1940
    114  CA        27.6880    4.9090   30.7840 C.3   101  GLY101      0.2014
    115  C         28.5570    6.1360   31.0160 C.2   101  GLY101      0.2639
    116  O         28.9300    6.4550   32.1530 O.2   101  GLY101     -0.2714
    117  N         28.9070    6.8130   29.9340 N.am  102  ALA102     -0.1963
    118  CA        29.7430    7.9940   30.0160 C.3   102  ALA102      0.1728
    119  C         29.5320    8.7900   28.7350 C.2   102  ALA102      0.2616
    120  O         29.0870    8.2450   27.7230 O.2   102  ALA102     -0.2715
    121  CB        31.2050    7.5910   30.1510 C.3   102  ALA102      0.0334
    122  N         29.8310   10.0810   28.7830 N.am  103  ASP103     -0.1971
    123  CA        29.6650   10.9010   27.6050 C.3   103  ASP103      0.1709
    124  C         30.9420   10.8480   26.7910 C.2   103  ASP103      0.2293
    125  O         32.0260   10.5650   27.3200 O.2   103  ASP103     -0.2864
    126  CB        29.3050   12.3400   27.9940 C.3   103  ASP103      0.1436
    127  CG        30.4550   13.1000   28.6310 C.2   103  ASP103      0.3671
    128  OD1       30.1970   13.8740   29.5760 O.co2 103  ASP103     -0.2456
    129  OD2       31.6060   12.9590   28.1790 O.co2 103  ASP103     -0.2456
    130  N         34.0550   12.6760   28.2280 N.3   106  ASN106     -0.1240
    131  CA        34.7300   12.0000   29.3280 C.3   106  ASN106      0.1653
    132  C         35.4120   10.7120   28.8750 C.2   106  ASN106      0.2266
    133  O         36.1620   10.1120   29.6430 O.2   106  ASN106     -0.2867
    134  CB        33.7310   11.6800   30.4450 C.3   106  ASN106      0.1155
    135  CG        33.4380   12.8810   31.3300 C.2   106  ASN106      0.2627
    136  OD1       32.2870   13.1240   31.7140 O.2   106  ASN106     -0.2716
    137  ND2       34.4850   13.6350   31.6740 N.am  106  ASN106     -0.0877
    138  N         21.8830   13.4450   23.5650 N.3   158  LEU158     -0.1231
    139  CA        21.1790   13.8910   24.7610 C.3   158  LEU158      0.1693
    140  C         21.1600   15.4170   24.8750 C.2   158  LEU158      0.2592
    141  O         21.7030   16.1410   24.0260 O.2   158  LEU158     -0.2718
    142  CB        21.8500   13.3180   26.0280 C.3   158  LEU158      0.0284
    143  CG        22.2970   11.8500   26.1280 C.3   158  LEU158      0.0019
    144  CD1       22.3780   11.4480   27.5960 C.3   158  LEU158      0.0001
    145  CD2       21.3130   10.9420   25.4480 C.3   158  LEU158      0.0001
    146  N         20.5260   15.8880   25.9460 N.am  159  ASP159     -0.1974
    147  CA        20.4360   17.3100   26.2710 C.3   159  ASP159      0.1709
    148  C         20.2200   18.2660   25.1390 C.2   159  ASP159      0.2293
    149  O         21.1520   19.0020   24.7780 O.2   159  ASP159     -0.2864
    150  CB        21.6970   17.7990   26.9950 C.3   159  ASP159      0.1436
    151  CG        22.0650   16.9310   28.1440 C.2   159  ASP159      0.3671
    152  OD1       21.1510   16.6460   28.9490 O.co2 159  ASP159     -0.2456
    153  OD2       23.2550   16.5410   28.2590 O.co2 159  ASP159     -0.2456
@<TRIPOS>BOND
     1    64    65    1
     2   138   139    1
     3    67    66    2
     4   141   140    2
     5    66    65    1
     6    65    68    1
     7    59    58    2
     8   139   140    1
     9   139   142    1
    10   149   148    2
    11   140   146   am
    12    56    57    1
    13    58    57    1
    14   148   147    1
    15    70    68    1
    16    57    60    1
    17    68    69    1
    18   145   143    1
    19   112   111    1
    20   146   147    1
    21   142   143    1
    22   143   144    1
    23    62    61    1
    24   147   150    1
    25    96    94   ar
    26    96    95   ar
    27    94    92   ar
    28    69    71    1
    29   124   125    2
    30   124   123    1
    31    60    61    1
    32   150   151    1
    33   111   110    1
    34    50    49    2
    35    61    63    1
    36    95    93   ar
    37   123   126    1
    38   123   122    1
    39   120   119    2
    40    92    93   ar
    41    92    91    1
    42    47    48    1
    43    49    48    1
    44    48    51    1
    45   126   127    1
    46   110   109    1
    47   151   153   ar
    48   151   152   ar
    49   129   127   ar
    50   130   131    1
    51    91    88    1
    52   127   128   ar
    53   119   122   am
    54   119   118    1
    55   132   131    1
    56   132   133    2
    57   109   106    1
    58    51    52    1
    59    52    53    1
    60   131   134    1
    61    87    88    1
    62    87    82   am
    63   106   107    1
    64   106   105    1
    65   117   118    1
    66   117   115   am
    67    88    89    1
    68   118   121    1
    69   113   107   am
    70   113   114    1
    71    84    86    1
    72    84    81    1
    73    84    85    1
    74   134   135    1
    75    55    53   ar
    76    90    89    2
    77    53    54   ar
    78   100    99    2
    79    89    97   am
    80   107   108    2
    81    81    82    1
    82    81    80    1
    83   114   115    1
    84   105    99   am
    85    82    83    2
    86   115   116    2
    87    99    98    1
    88   135   137   am
    89   135   136    2
    90    97    98    1
    91    98   101    1
    92    78    77    1
    93    79    77    1
    94    46    45    1
    95    77    76    1
    96    76    73    1
    97   101   102    1
    98    45    44    1
    99   102   103    1
   100   102   104    1
   101    73    74    1
   102    73    72    1
   103    30    27    1
   104    74    75    2
   105    26    27    1
   106    29    28    2
   107    44    43    1
   108    27    28    1
   109    28    31   am
   110    42    43    1
   111    42    39    1
   112    31    32    1
   113    25    23    1
   114    38    39    1
   115    38    33   am
   116    24    23    1
   117    39    40    1
   118    32    33    1
   119    32    35    1
   120    41    40    2
   121    33    34    2
   122    23    20    1
   123    37    35    1
   124    14    12    1
   125    35    36    1
   126    11    10    2
   127    12    13    1
   128    12     9    1
   129    20    19    1
   130    20    21    1
   131    10     9    1
   132    10    15   am
   133    16    17    1
   134    16    15    1
   135    21    22    2
   136     9     8    1
   137    17    18    2
   138     8     3   am
   139     3     4    2
   140     3     2    1
   141     2     1    1
   142     2     5    1
   143     1     7    1
   144     5     6    1
   145     7     6    1
