@<TRIPOS>MOLECULE
tmp/3fskA00.pdb
 155 143 0 0 0
SMALL
GASTEIGER

@<TRIPOS>ATOM
      1  N         24.2460    9.6490   40.2370 N.3    26  VAL26      -0.1245
      2  CA        25.2370    9.5180   39.1800 C.3    26  VAL26       0.1561
      3  C         25.6690   10.9170   38.7690 C.2    26  VAL26       0.2260
      4  O         26.5360   11.0930   37.9100 O.2    26  VAL26      -0.2867
      5  CB        24.6860    8.8070   37.9350 C.3    26  VAL26       0.0252
      6  CG1       24.3000    7.4020   38.2720 C.3    26  VAL26       0.0019
      7  CG2       23.5150    9.5840   37.3760 C.3    26  VAL26       0.0019
      8  N         24.4920   15.2480   38.0760 N.3    28  SER28      -0.1202
      9  CA        23.4720   16.2080   37.7080 C.3    28  SER28       0.2020
     10  C         22.9600   15.9650   36.2790 C.2    28  SER28       0.2619
     11  O         23.6260   15.3310   35.4540 O.2    28  SER28      -0.2717
     12  CB        24.0550   17.6220   37.8370 C.3    28  SER28       0.2103
     13  OG        23.0370   18.5740   38.0960 O.3    28  SER28      -0.2182
     14  N         21.7590   16.4590   36.0080 N.am   29  GLY29      -0.1942
     15  CA        21.1760   16.3280   34.6870 C.3    29  GLY29       0.2014
     16  C         20.6580   17.7040   34.3230 C.2    29  GLY29       0.2638
     17  O         20.7900   18.6460   35.1110 O.2    29  GLY29      -0.2714
     18  N         20.0790   17.8410   33.1370 N.am   30  ALA30      -0.1977
     19  CA        19.5400   19.1320   32.7210 C.3    30  ALA30       0.1597
     20  C         18.3450   19.4950   33.6030 C.2    30  ALA30       0.2287
     21  O         17.2520   18.9330   33.4530 O.2    30  ALA30      -0.2864
     22  CB        19.1140   19.0940   31.2220 C.3    30  ALA30       0.0319
     23  N         20.1320   13.2640   38.7560 N.3    34  VAL34      -0.1245
     24  CA        19.9520   11.9490   38.1750 C.3    34  VAL34       0.1561
     25  C         20.4940   10.8390   39.0580 C.2    34  VAL34       0.2260
     26  O         21.5590   10.9770   39.6630 O.2    34  VAL34      -0.2867
     27  CB        20.6400   11.9020   36.8080 C.3    34  VAL34       0.0252
     28  CG1       20.3930   10.5590   36.1290 C.3    34  VAL34       0.0019
     29  CG2       20.1120   13.0800   35.9440 C.3    34  VAL34       0.0019
     30  N         18.1210    5.5310   34.1680 N.3    47  ALA47      -0.1245
     31  CA        18.5810    6.7500   34.7680 C.3    47  ALA47       0.1562
     32  C         17.2630    7.4050   35.1540 C.2    47  ALA47       0.2260
     33  O         16.3040    7.4230   34.3720 O.2    47  ALA47      -0.2867
     34  CB        19.3410    7.6020   33.7450 C.3    47  ALA47       0.0290
     35  N         15.6580   10.9210   36.4800 N.3    49  LYS49      -0.1245
     36  CA        15.8950   12.3150   36.7850 C.3    49  LYS49       0.1561
     37  C         14.7080   12.9190   37.5230 C.2    49  LYS49       0.2260
     38  O         13.5830   12.8570   37.0480 O.2    49  LYS49      -0.2867
     39  CB        16.1870   13.1050   35.5050 C.3    49  LYS49       0.0271
     40  CG        16.4680   14.5860   35.7730 C.3    49  LYS49       0.0035
     41  CD        17.0970   15.3250   34.5660 C.3    49  LYS49       0.0206
     42  CE        16.1380   15.4470   33.3800 C.3    49  LYS49       0.1093
     43  NZ        16.6850   16.3980   32.3480 N.3    49  LYS49      -0.1314
     44  N         10.4150   19.6940   27.7580 N.3    67  GLU67      -0.1245
     45  CA        11.2520   18.5130   27.8840 C.3    67  GLU67       0.1567
     46  C         10.4030   17.2530   27.8360 C.2    67  GLU67       0.2260
     47  O         10.7620   16.2950   27.1730 O.2    67  GLU67      -0.2867
     48  CB        12.0970   18.5210   29.1890 C.3    67  GLU67       0.0388
     49  CG        13.1120   17.3080   29.1800 C.3    67  GLU67       0.1160
     50  CD        13.9830   17.2090   30.4200 C.2    67  GLU67       0.3649
     51  OE1       13.5850   17.7230   31.4760 O.co2  67  GLU67      -0.2457
     52  OE2       15.0600   16.5850   30.3460 O.co2  67  GLU67      -0.2457
     53  N         10.8150   14.5310   24.9470 N.3    71  LEU71      -0.1245
     54  CA        11.1720   13.1830   25.3280 C.3    71  LEU71       0.1561
     55  C         10.0670   12.1840   24.9910 C.2    71  LEU71       0.2260
     56  O         10.3620   11.0670   24.6050 O.2    71  LEU71      -0.2867
     57  CB        11.5310   13.1060   26.8200 C.3    71  LEU71       0.0270
     58  CG        12.8220   13.8460   27.2420 C.3    71  LEU71       0.0019
     59  CD1       12.9660   13.8130   28.7620 C.3    71  LEU71       0.0001
     60  CD2       14.0330   13.2010   26.6010 C.3    71  LEU71       0.0001
     61  N         17.9750    9.6870   22.9720 N.3    80  ILE80      -0.1245
     62  CA        17.4260    9.3300   24.2690 C.3    80  ILE80       0.1561
     63  C         15.9230    9.4870   24.2480 C.2    80  ILE80       0.2260
     64  O         15.3980   10.5080   23.8120 O.2    80  ILE80      -0.2867
     65  CB        18.0090   10.1890   25.4130 C.3    80  ILE80       0.0252
     66  CG1       19.3680    9.6200   25.8220 C.3    80  ILE80       0.0019
     67  CG2       17.1190   10.1100   26.6570 C.3    80  ILE80       0.0019
     68  CD1       19.2750    8.2580   26.5260 C.3    80  ILE80       0.0001
     69  N         11.6020   11.5740   35.3990 N.3   100  LEU100     -0.1245
     70  CA        11.7460   11.0710   34.0260 C.3   100  LEU100      0.1561
     71  C         12.7100    9.8870   34.0630 C.2   100  LEU100      0.2260
     72  O         13.7740    9.9490   34.6770 O.2   100  LEU100     -0.2867
     73  CB        12.3080   12.1750   33.1020 C.3   100  LEU100      0.0270
     74  CG        11.4420   13.4470   33.0460 C.3   100  LEU100      0.0019
     75  CD1       12.2290   14.5810   32.4260 C.3   100  LEU100      0.0001
     76  CD2       10.1850   13.1840   32.2410 C.3   100  LEU100      0.0001
     77  N         14.8510    7.0010   31.7570 N.3   102  THR102     -0.1203
     78  CA        15.4530    6.6650   30.4650 C.3   102  THR102      0.1994
     79  C         16.4330    5.5020   30.6660 C.2   102  THR102      0.2618
     80  O         16.7340    5.1190   31.8000 O.2   102  THR102     -0.2717
     81  CB        16.3090    7.8340   29.9220 C.3   102  THR102      0.1784
     82  OG1       17.4650    7.9730   30.7710 O.3   102  THR102     -0.2211
     83  CG2       15.5260    9.1640   29.9470 C.3   102  THR102      0.0376
     84  N         16.9260    4.9460   29.5590 N.am  103  HIS103     -0.1961
     85  CA        17.9460    3.9000   29.6240 C.3   103  HIS103      0.1787
     86  C         19.1760    4.5110   30.2920 C.2   103  HIS103      0.2620
     87  O         19.4450    5.6990   30.1140 O.2   103  HIS103     -0.2715
     88  CB        18.3670    3.4730   28.2130 C.3   103  HIS103      0.0785
     89  CG        17.3620    2.6220   27.5090 C.ar  103  HIS103      0.0821
     90  ND1       17.0440    1.3540   27.9380 N.ar  103  HIS103     -0.2267
     91  CD2       16.6330    2.8390   26.3890 C.ar  103  HIS103      0.1154
     92  CE1       16.1620    0.8220   27.1090 C.ar  103  HIS103      0.1986
     93  NE2       15.8970    1.7030   26.1620 N.ar  103  HIS103     -0.2212
     94  N         19.9160    3.7160   31.0680 N.am  104  LEU104     -0.1963
     95  CA        21.1470    4.2160   31.6970 C.3   104  LEU104      0.1728
     96  C         22.2810    4.0250   30.6690 C.2   104  LEU104      0.2616
     97  O         22.4720    2.9310   30.1370 O.2   104  LEU104     -0.2715
     98  CB        21.4550    3.4240   32.9820 C.3   104  LEU104      0.0311
     99  CG        22.6800    3.7880   33.8430 C.3   104  LEU104      0.0022
    100  CD1       22.5280    5.1850   34.4470 C.3   104  LEU104      0.0001
    101  CD2       22.8290    2.7470   34.9550 C.3   104  LEU104      0.0001
    102  N         23.0000    5.0930   30.3520 N.am  105  MET105     -0.1963
    103  CA        24.1050    4.9830   29.3930 C.3   105  MET105      0.1736
    104  C         25.3920    4.8300   30.1940 C.2   105  MET105      0.2617
    105  O         25.4580    5.2820   31.3330 O.2   105  MET105     -0.2715
    106  CB        24.1770    6.2260   28.5110 C.3   105  MET105      0.0427
    107  CG        22.9350    6.4410   27.6220 C.3   105  MET105      0.0599
    108  SD        22.5440    4.9630   26.6960 S.3   105  MET105     -0.1393
    109  CE        23.7970    5.0360   25.2820 C.3   105  MET105      0.0692
    110  N         26.4090    4.2070   29.6060 N.am  106  GLY106     -0.1940
    111  CA        27.6600    3.9890   30.3350 C.3   106  GLY106      0.2014
    112  C         28.5990    5.1690   30.5640 C.2   106  GLY106      0.2639
    113  O         29.1720    5.3390   31.6400 O.2   106  GLY106     -0.2714
    114  N         28.7700    5.9950   29.5480 N.am  107  ALA107     -0.1963
    115  CA        29.6710    7.1220   29.6670 C.3   107  ALA107      0.1728
    116  C         29.3360    8.0940   28.5530 C.2   107  ALA107      0.2616
    117  O         28.6390    7.7260   27.5980 O.2   107  ALA107     -0.2715
    118  CB        31.1030    6.6430   29.4980 C.3   107  ALA107      0.0334
    119  N         29.8060    9.3300   28.6770 N.am  108  ASP108     -0.1971
    120  CA        29.5810   10.2690   27.5960 C.3   108  ASP108      0.1709
    121  C         30.8650   10.2420   26.7680 C.2   108  ASP108      0.2293
    122  O         31.9610    9.9680   27.2900 O.2   108  ASP108     -0.2864
    123  CB        29.3150   11.6740   28.1130 C.3   108  ASP108      0.1436
    124  CG        30.5140   12.2800   28.7760 C.2   108  ASP108      0.3671
    125  OD1       30.8040   11.8700   29.9130 O.co2 108  ASP108     -0.2456
    126  OD2       31.1720   13.1520   28.1530 O.co2 108  ASP108     -0.2456
    127  N         34.2920   11.8040   27.9740 N.3   111  ASN111     -0.1240
    128  CA        35.0890   11.0120   28.9090 C.3   111  ASN111      0.1653
    129  C         35.7780    9.7950   28.3040 C.2   111  ASN111      0.2266
    130  O         36.7070    9.2480   28.8980 O.2   111  ASN111     -0.2867
    131  CB        34.2170   10.5660   30.0780 C.3   111  ASN111      0.1155
    132  CG        33.8260   11.7180   30.9740 C.2   111  ASN111      0.2627
    133  OD1       32.9040   11.6050   31.7770 O.2   111  ASN111     -0.2716
    134  ND2       34.5370   12.8390   30.8520 N.am  111  ASN111     -0.0877
    135  N         26.0960    9.9300   24.5400 N.3   153  ALA153     -0.1245
    136  CA        26.4110    8.8700   25.4790 C.3   153  ALA153      0.1562
    137  C         26.6070    7.6100   24.6710 C.2   153  ALA153      0.2260
    138  O         25.9880    7.4180   23.6220 O.2   153  ALA153     -0.2867
    139  CB        25.2630    8.7240   26.4940 C.3   153  ALA153      0.0290
    140  N         21.6450   12.9650   23.5060 N.3   163  LEU163     -0.1231
    141  CA        20.7870   13.4380   24.5880 C.3   163  LEU163      0.1693
    142  C         20.9240   14.9330   24.8450 C.2   163  LEU163      0.2592
    143  O         21.6280   15.6470   24.1070 O.2   163  LEU163     -0.2718
    144  CB        21.0300   12.6490   25.8670 C.3   163  LEU163      0.0284
    145  CG        22.4700   12.3130   26.2000 C.3   163  LEU163      0.0019
    146  CD1       23.2050   13.5920   26.5160 C.3   163  LEU163      0.0001
    147  CD2       22.4980   11.3500   27.3870 C.3   163  LEU163      0.0001
    148  N         20.2290   15.3930   25.8830 N.am  164  ASP164     -0.1974
    149  CA        20.1990   16.7840   26.2960 C.3   164  ASP164      0.1709
    150  C         20.0440   17.7500   25.1410 C.2   164  ASP164      0.2293
    151  O         20.9480   18.5360   24.8450 O.2   164  ASP164     -0.2864
    152  CB        21.4510   17.1650   27.1140 C.3   164  ASP164      0.1436
    153  CG        21.5370   16.4300   28.4650 C.2   164  ASP164      0.3671
    154  OD1       20.4910   15.9610   28.9920 O.co2 164  ASP164     -0.2456
    155  OD2       22.6650   16.3340   29.0090 O.co2 164  ASP164     -0.2456
@<TRIPOS>BOND
     1    61    62    1
     2   140   141    1
     3   138   137    2
     4    64    63    2
     5   143   142    2
     6    63    62    1
     7    62    65    1
     8   135   136    1
     9   141   142    1
    10   141   144    1
    11    56    55    2
    12   137   136    1
    13   142   148   am
    14   151   150    2
    15    53    54    1
    16    55    54    1
    17   150   149    1
    18   109   108    1
    19    54    57    1
    20    65    66    1
    21    65    67    1
    22   136   139    1
    23    66    68    1
    24   144   145    1
    25   148   149    1
    26    93    91   ar
    27    93    92   ar
    28   145   146    1
    29   145   147    1
    30   149   152    1
    31    91    89   ar
    32    60    58    1
    33   108   107    1
    34   121   122    2
    35   121   120    1
    36    57    58    1
    37    92    90   ar
    38   152   153    1
    39    47    46    2
    40    58    59    1
    41    89    90   ar
    42    89    88    1
    43   120   123    1
    44   120   119    1
    45   117   116    2
    46   107   106    1
    47    44    45    1
    48    46    45    1
    49    45    48    1
    50   127   128    1
    51   123   124    1
    52   126   124   ar
    53    88    85    1
    54   129   130    2
    55   129   128    1
    56   153   154   ar
    57   153   155   ar
    58   106   103    1
    59   116   119   am
    60   116   115    1
    61   124   125   ar
    62   128   131    1
    63    49    48    1
    64    49    50    1
    65   103   104    1
    66   103   102    1
    67   118   115    1
    68   114   115    1
    69   114   112   am
    70    84    85    1
    71    84    79   am
    72   110   104   am
    73   110   111    1
    74    85    86    1
    75    81    83    1
    76    81    78    1
    77    81    82    1
    78   131   132    1
    79    87    86    2
    80    97    96    2
    81   104   105    2
    82    86    94   am
    83   111   112    1
    84    52    50   ar
    85   102    96   am
    86    50    51   ar
    87    78    79    1
    88    78    77    1
    89   112   113    2
    90    79    80    2
    91    96    95    1
    92   134   132   am
    93   132   133    2
    94    94    95    1
    95    22    19    1
    96    95    98    1
    97    76    74    1
    98    43    42    1
    99    75    74    1
   100    19    18    1
   101    19    20    1
   102    98    99    1
   103    74    73    1
   104    73    70    1
   105    18    16   am
   106    42    41    1
   107    21    20    2
   108    34    31    1
   109    99   100    1
   110    99   101    1
   111    70    71    1
   112    70    69    1
   113    71    72    2
   114    30    31    1
   115    16    15    1
   116    16    17    2
   117    33    32    2
   118    41    40    1
   119    15    14    1
   120    31    32    1
   121    11    10    2
   122    39    40    1
   123    39    36    1
   124    29    27    1
   125    14    10   am
   126    28    27    1
   127    10     9    1
   128    35    36    1
   129    36    37    1
   130    27    24    1
   131    38    37    2
   132     7     5    1
   133     9    12    1
   134     9     8    1
   135    12    13    1
   136     4     3    2
   137     5     6    1
   138     5     2    1
   139    24    23    1
   140    24    25    1
   141     3     2    1
   142    25    26    2
   143     2     1    1
