@<TRIPOS>MOLECULE
tmp/3fsuB01.pdb
 109 102 0 0 0
SMALL
GASTEIGER

@<TRIPOS>ATOM
      1  N          5.3280   16.5870   19.9370 N.3     7  GLN7       -0.1245
      2  CA         4.9870   15.9550   18.6750 C.3     7  GLN7        0.1566
      3  C          3.4960   15.7610   18.5420 C.2     7  GLN7        0.2260
      4  O          2.8920   15.2350   19.4050 O.2     7  GLN7       -0.2867
      5  CB         5.7080   14.6170   18.5270 C.3     7  GLN7        0.0367
      6  CG         5.4630   13.8850   17.2360 C.3     7  GLN7        0.0905
      7  CD         6.2890   12.6310   17.1170 C.2     7  GLN7        0.2608
      8  OE1        5.7580   11.5680   17.0160 O.2     7  GLN7       -0.2717
      9  NE2        7.5470   12.7700   17.1600 N.am    7  GLN7       -0.0878
     10  N          3.7920   14.4670   12.6800 N.3    38  THR38      -0.1218
     11  CA         4.0760   13.2070   12.0050 C.3    38  THR38       0.1862
     12  C          3.4510   13.0960   10.6230 C.2    38  THR38       0.2287
     13  O          2.5750   13.8740   10.2440 O.2    38  THR38      -0.2866
     14  CB         3.6110   11.9990   12.8280 C.3    38  THR38       0.1770
     15  OG1        2.1860   12.0360   12.9730 O.3    38  THR38      -0.2211
     16  CG2        4.2820   12.0090   14.1930 C.3    38  THR38       0.0375
     17  N          7.6250   15.8760    9.8610 N.3    67  HIS67      -0.1241
     18  CA         8.3240   14.6110    9.6690 C.3    67  HIS67       0.1621
     19  C          8.2040   14.2790    8.1870 C.2    67  HIS67       0.2264
     20  O          7.0890   14.1860    7.6460 O.2    67  HIS67      -0.2867
     21  CB         7.6820   13.5110   10.4930 C.3    67  HIS67       0.0745
     22  CG         7.7640   13.7400   11.9700 C.ar   67  HIS67       0.0817
     23  ND1        7.7930   12.7040   12.8810 N.ar   67  HIS67      -0.2268
     24  CD2        7.8600   14.8820   12.6910 C.ar   67  HIS67       0.1154
     25  CE1        7.8680   13.2010   14.1050 C.ar   67  HIS67       0.1986
     26  NE2        7.9230   14.5190   14.0170 N.ar   67  HIS67      -0.2212
     27  N          7.6510    4.4260    8.0220 N.3    99  ASP99      -0.1239
     28  CA         6.9110    3.1810    8.2050 C.3    99  ASP99       0.1674
     29  C          6.3570    2.7410    6.8570 C.2    99  ASP99       0.2266
     30  O          5.5230    3.4360    6.2710 O.2    99  ASP99      -0.2867
     31  CB         5.7460    3.3790    9.1780 C.3    99  ASP99       0.1410
     32  CG         6.2030    3.5530   10.6120 C.2    99  ASP99       0.3668
     33  OD1        7.3210    3.1030   10.9330 O.co2  99  ASP99      -0.2456
     34  OD2        5.4400    4.1290   11.4200 O.co2  99  ASP99      -0.2456
     35  N         17.1970    4.5290   18.2840 N.3   124  TYR124     -0.1241
     36  CA        16.4800    3.3940   18.8780 C.3   124  TYR124      0.1605
     37  C         17.2740    2.7490   20.0220 C.2   124  TYR124      0.2264
     38  O         18.1330    1.8940   19.7880 O.2   124  TYR124     -0.2867
     39  CB        16.1790    2.3490   17.7810 C.3   124  TYR124      0.0534
     40  CG        15.4000    2.9550   16.6360 C.ar  124  TYR124     -0.0201
     41  CD1       16.0580    3.5170   15.5450 C.ar  124  TYR124     -0.0009
     42  CD2       14.0130    3.0290   16.6750 C.ar  124  TYR124     -0.0009
     43  CE1       15.3520    4.1130   14.5170 C.ar  124  TYR124      0.0417
     44  CE2       13.2880    3.6220   15.6370 C.ar  124  TYR124      0.0417
     45  CZ        13.9770    4.1580   14.5600 C.ar  124  TYR124      0.1957
     46  OH        13.2920    4.7640   13.5400 O.3   124  TYR124     -0.2866
     47  N         13.0380    6.7200   19.9450 N.3   155  GLN155     -0.1231
     48  CA        11.8200    5.9600   20.1460 C.3   155  GLN155      0.1698
     49  C         11.5130    5.9930   21.6490 C.2   155  GLN155      0.2592
     50  O         12.4190    6.1280   22.4760 O.2   155  GLN155     -0.2718
     51  CB        12.0890    4.5250   19.6660 C.3   155  GLN155      0.0381
     52  CG        10.9280    3.5460   19.8200 C.3   155  GLN155      0.0905
     53  CD         9.7180    3.9870   19.0470 C.2   155  GLN155      0.2608
     54  OE1        9.0060    4.8840   19.4790 O.2   155  GLN155     -0.2717
     55  NE2        9.4830    3.3700   17.8850 N.am  155  GLN155     -0.0878
     56  N         10.2410    5.8960   22.0210 N.am  156  PHE156     -0.1976
     57  CA         9.9390    5.8840   23.4530 C.3   156  PHE156      0.1639
     58  C         10.4890    4.6160   24.0940 C.2   156  PHE156      0.2290
     59  O         10.7870    3.6250   23.4000 O.2   156  PHE156     -0.2864
     60  CB         8.4400    6.0300   23.7220 C.3   156  PHE156      0.0560
     61  CG         7.5940    4.9480   23.1220 C.ar  156  PHE156     -0.0200
     62  CD1        7.3630    3.7570   23.8130 C.ar  156  PHE156     -0.0042
     63  CD2        6.9960    5.1270   21.8830 C.ar  156  PHE156     -0.0042
     64  CE1        6.5680    2.7650   23.2610 C.ar  156  PHE156     -0.0003
     65  CE2        6.1960    4.1480   21.3350 C.ar  156  PHE156     -0.0003
     66  CZ         5.9850    2.9570   22.0220 C.ar  156  PHE156     -0.0000
     67  N          6.7350    8.9260   26.0080 N.3   184  LEU184     -0.1245
     68  CA         5.3280    8.6170   25.7560 C.3   184  LEU184      0.1561
     69  C          4.5720    8.5500   27.0840 C.2   184  LEU184      0.2260
     70  O          4.6470    7.5470   27.7860 O.2   184  LEU184     -0.2867
     71  CB         5.1960    7.2740   25.0320 C.3   184  LEU184      0.0270
     72  CG         3.7470    6.8510   24.7560 C.3   184  LEU184      0.0019
     73  CD1        3.1220    7.7650   23.7060 C.3   184  LEU184      0.0001
     74  CD2        3.6810    5.3900   24.3000 C.3   184  LEU184      0.0001
     75  N          1.7380   -0.4240   20.5560 N.3   195  LEU195     -0.1245
     76  CA         2.8200    0.3380   19.9390 C.3   195  LEU195      0.1561
     77  C          4.1790   -0.2340   20.3510 C.2   195  LEU195      0.2260
     78  O          5.0810   -0.3700   19.5260 O.2   195  LEU195     -0.2867
     79  CB         2.7310    1.8240   20.3210 C.3   195  LEU195      0.0270
     80  CG         1.4760    2.6060   19.9140 C.3   195  LEU195      0.0019
     81  CD1        1.4970    4.0070   20.5120 C.3   195  LEU195      0.0001
     82  CD2        1.3490    2.6860   18.3900 C.3   195  LEU195      0.0001
     83  N          7.5070   -2.4810   18.2340 N.3   199  THR199     -0.1218
     84  CA         8.7890   -1.8050   18.1020 C.3   199  THR199      0.1862
     85  C          9.8570   -2.3850   19.0290 C.2   199  THR199      0.2287
     86  O         10.9270   -1.8020   19.1910 O.2   199  THR199     -0.2866
     87  CB         8.6310   -0.2990   18.3740 C.3   199  THR199      0.1770
     88  OG1        7.9450   -0.1020   19.6210 O.3   199  THR199     -0.2211
     89  CG2        7.8240    0.3550   17.2650 C.3   199  THR199      0.0375
     90  N          5.6750   12.6550   23.0650 N.3   247  TYR247     -0.1241
     91  CA         4.7070   12.0690   22.1570 C.3   247  TYR247      0.1605
     92  C          3.3090   12.3080   22.7330 C.2   247  TYR247      0.2264
     93  O          2.7630   11.4810   23.4760 O.2   247  TYR247     -0.2867
     94  CB         4.9960   10.5770   21.9980 C.3   247  TYR247      0.0534
     95  CG         6.3460   10.2550   21.3900 C.ar  247  TYR247     -0.0201
     96  CD1        6.6830   10.7230   20.1310 C.ar  247  TYR247     -0.0009
     97  CD2        7.2620    9.4270   22.0550 C.ar  247  TYR247     -0.0009
     98  CE1        7.8970   10.4260   19.5440 C.ar  247  TYR247      0.0417
     99  CE2        8.4830    9.1060   21.4740 C.ar  247  TYR247      0.0417
    100  CZ         8.7930    9.6200   20.2120 C.ar  247  TYR247      0.1957
    101  OH         9.9840    9.3080   19.6100 O.3   247  TYR247     -0.2866
    102  N          0.3390   12.5550   21.3670 N.3   249  LEU249     -0.1245
    103  CA        -0.8390   12.0100   20.7010 C.3   249  LEU249      0.1561
    104  C         -1.9880   13.0290   20.7120 C.2   249  LEU249      0.2260
    105  O         -3.1590   12.6700   20.8550 O.2   249  LEU249     -0.2867
    106  CB        -1.2590   10.6600   21.3120 C.3   249  LEU249      0.0270
    107  CG        -0.1670    9.5790   21.2550 C.3   249  LEU249      0.0019
    108  CD1       -0.6570    8.2850   21.9020 C.3   249  LEU249      0.0001
    109  CD2        0.2880    9.3170   19.8310 C.3   249  LEU249      0.0001
@<TRIPOS>BOND
     1    30    29    2
     2    29    28    1
     3    20    19    2
     4    27    28    1
     5    19    18    1
     6    28    31    1
     7    31    32    1
     8    18    17    1
     9    18    21    1
    10    13    12    2
    11    21    22    1
    12    32    33   ar
    13    32    34   ar
    14    12    11    1
    15    22    24   ar
    16    22    23   ar
    17    11    10    1
    18    11    14    1
    19    24    26   ar
    20    14    15    1
    21    14    16    1
    22    23    25   ar
    23    46    45    1
    24    26    25   ar
    25    43    45   ar
    26    43    41   ar
    27    45    44   ar
    28    41    40   ar
    29    44    42   ar
    30    40    42   ar
    31    40    39    1
    32     8     7    2
    33     7     9   am
    34     7     6    1
    35     6     5    1
    36    89    87    1
    37    39    36    1
    38    55    53   am
    39    84    83    1
    40    84    87    1
    41    84    85    1
    42    35    36    1
    43    87    88    1
    44    82    80    1
    45     5     2    1
    46     3     2    1
    47     3     4    2
    48     2     1    1
    49    36    37    1
    50    85    86    2
    51    53    54    2
    52    53    52    1
    53    78    77    2
    54    98    96   ar
    55    98   100   ar
    56   101   100    1
    57    51    52    1
    58    51    48    1
    59    38    37    2
    60   109   107    1
    61    80    79    1
    62    80    81    1
    63    76    79    1
    64    76    77    1
    65    76    75    1
    66    47    48    1
    67    96    95   ar
    68    48    49    1
    69   100    99   ar
    70   103   104    1
    71   103   106    1
    72   103   102    1
    73   104   105    2
    74   107   106    1
    75   107   108    1
    76    65    63   ar
    77    65    66   ar
    78    95    94    1
    79    95    97   ar
    80    99    97   ar
    81    49    56   am
    82    49    50    2
    83    63    61   ar
    84    94    91    1
    85    56    57    1
    86    66    64   ar
    87    91    92    1
    88    91    90    1
    89    92    93    2
    90    61    60    1
    91    61    62   ar
    92    64    62   ar
    93    59    58    2
    94    57    60    1
    95    57    58    1
    96    73    72    1
    97    74    72    1
    98    72    71    1
    99    71    68    1
   100    68    67    1
   101    68    69    1
   102    69    70    2
