@<TRIPOS>MOLECULE
tmp/3fsyC00.pdb
 138 131 0 0 0
SMALL
GASTEIGER

@<TRIPOS>ATOM
      1  N         93.8040   26.7640   33.5140 N.3   180  GLU180     -0.1245
      2  CA        94.3470   28.0040   34.1450 C.3   180  GLU180      0.1567
      3  C         95.8580   27.8840   34.5050 C.2   180  GLU180      0.2260
      4  O         96.5180   28.8720   34.8470 O.2   180  GLU180     -0.2867
      5  CB        93.5080   28.2700   35.4090 C.3   180  GLU180      0.0388
      6  CG        93.7090   29.6250   36.0820 C.3   180  GLU180      0.1160
      7  CD        93.4170   30.7790   35.1650 C.2   180  GLU180      0.3649
      8  OE1       92.7540   30.6370   34.1040 O.co2 180  GLU180     -0.2457
      9  OE2       93.8710   31.8600   35.5070 O.co2 180  GLU180     -0.2457
     10  N         97.4780   24.2810   38.1780 N.3   196  GLU196     -0.1245
     11  CA        96.4040   25.1130   37.7590 C.3   196  GLU196      0.1567
     12  C         96.7370   26.5640   37.9630 C.2   196  GLU196      0.2260
     13  O         95.8890   27.4210   37.7690 O.2   196  GLU196     -0.2867
     14  CB        95.1260   24.7460   38.5140 C.3   196  GLU196      0.0388
     15  CG        95.0310   23.2770   38.7860 C.3   196  GLU196      0.1160
     16  CD        93.7760   22.9560   39.5810 C.2   196  GLU196      0.3649
     17  OE1       92.6740   23.1310   39.0420 O.co2 196  GLU196     -0.2457
     18  OE2       93.9100   22.5530   40.7300 O.co2 196  GLU196     -0.2457
     19  N         97.3320   25.5300   42.9800 N.3   212  GLY212     -0.1210
     20  CA        95.9190   25.8130   42.8280 C.3   212  GLY212      0.1956
     21  C         95.5420   26.7900   41.7350 C.2   212  GLY212      0.2612
     22  O         96.3660   27.5460   41.2110 O.2   212  GLY212     -0.2717
     23  N         94.2610   26.7820   41.3660 N.am  213  GLY213     -0.1956
     24  CA        93.8280   27.5680   40.2170 C.3   213  GLY213      0.1869
     25  C         94.0960   29.0470   40.4060 C.2   213  GLY213      0.2309
     26  O         93.7020   29.6230   41.4150 O.2   213  GLY213     -0.2863
     27  N        101.1810   22.6690   48.8120 N.3   233  LEU233     -0.1231
     28  CA        99.9560   23.0710   48.1620 C.3   233  LEU233      0.1693
     29  C         99.8650   24.5770   48.1390 C.2   233  LEU233      0.2592
     30  O         99.9510   25.2050   49.1930 O.2   233  LEU233     -0.2718
     31  CB        98.7480   22.5060   48.9230 C.3   233  LEU233      0.0284
     32  CG        97.4180   23.0480   48.3500 C.3   233  LEU233      0.0019
     33  CD1       97.1950   22.5260   46.9070 C.3   233  LEU233      0.0001
     34  CD2       96.2530   22.6870   49.2920 C.3   233  LEU233      0.0001
     35  N         99.7500   25.1710   46.9510 N.am  234  LEU234     -0.1966
     36  CA        99.4290   26.5930   46.8770 C.3   234  LEU234      0.1728
     37  C         97.9340   26.7510   46.6010 C.2   234  LEU234      0.2617
     38  O         97.4180   26.2650   45.5860 O.2   234  LEU234     -0.2715
     39  CB       100.2220   27.3270   45.7860 C.3   234  LEU234      0.0311
     40  CG       101.7070   27.0650   45.8560 C.3   234  LEU234      0.0022
     41  CD1      102.4040   27.6590   44.6460 C.3   234  LEU234      0.0001
     42  CD2      102.2510   27.6380   47.1590 C.3   234  LEU234      0.0001
     43  N         97.2530   27.4590   47.4950 N.am  235  GLY235     -0.1940
     44  CA        95.8330   27.5730   47.3920 C.3   235  GLY235      0.2014
     45  C         95.4260   28.3420   46.1430 C.2   235  GLY235      0.2639
     46  O         96.2450   29.0650   45.5570 O.2   235  GLY235     -0.2714
     47  N         94.1780   28.1640   45.7210 N.am  236  ALA236     -0.1963
     48  CA        93.6830   28.8820   44.5480 C.3   236  ALA236      0.1728
     49  C         93.7590   30.3980   44.7700 C.2   236  ALA236      0.2616
     50  O         93.5460   30.8860   45.9240 O.2   236  ALA236     -0.2715
     51  CB        92.2670   28.4480   44.2430 C.3   236  ALA236      0.0334
     52  N         94.1560   31.1260   43.7000 N.am  237  ASN237     -0.1972
     53  CA        94.3280   32.5820   43.7470 C.3   237  ASN237      0.1688
     54  C         95.3370   33.0490   44.8150 C.2   237  ASN237      0.2292
     55  O         95.3040   34.2100   45.2230 O.2   237  ASN237     -0.2864
     56  CB        92.9960   33.3180   43.9750 C.3   237  ASN237      0.1181
     57  CG        92.0870   33.2690   42.7500 C.2   237  ASN237      0.2629
     58  OD1       92.4520   32.6710   41.7380 O.2   237  ASN237     -0.2716
     59  ND2       90.8750   33.8470   42.8490 N.am  237  ASN237     -0.0877
     60  N        101.9850   24.7720   52.9460 N.3   249  VAL249     -0.1231
     61  CA       100.6920   25.1640   52.3630 C.3   249  VAL249      0.1692
     62  C        100.5220   26.6960   52.3880 C.2   249  VAL249      0.2592
     63  O        100.8130   27.3240   53.3960 O.2   249  VAL249     -0.2718
     64  CB        99.5230   24.5190   53.1560 C.3   249  VAL249      0.0266
     65  CG1       98.1510   25.0420   52.6920 C.3   249  VAL249      0.0020
     66  CG2       99.5920   23.0050   53.0480 C.3   249  VAL249      0.0020
     67  N        100.0380   27.2840   51.2760 N.am  250  VAL250     -0.1966
     68  CA        99.6550   28.6780   51.2900 C.3   250  VAL250      0.1727
     69  C         98.1240   28.7260   51.1230 C.2   250  VAL250      0.2616
     70  O         97.6010   28.1720   50.1600 O.2   250  VAL250     -0.2715
     71  CB       100.3430   29.5040   50.1390 C.3   250  VAL250      0.0290
     72  CG1       99.8680   30.9860   50.1880 C.3   250  VAL250      0.0023
     73  CG2      101.8360   29.4580   50.3090 C.3   250  VAL250      0.0023
     74  N         97.4260   29.3760   52.0650 N.am  251  GLU251     -0.1963
     75  CA        95.9740   29.5240   52.0020 C.3   251  GLU251      0.1733
     76  C         95.4620   30.1450   50.6870 C.2   251  GLU251      0.2616
     77  O         96.0620   31.0600   50.1380 O.2   251  GLU251     -0.2715
     78  CB        95.5090   30.3760   53.1930 C.3   251  GLU251      0.0429
     79  CG        94.1290   30.9470   53.1120 C.3   251  GLU251      0.1163
     80  CD        93.7910   31.9700   54.2230 C.2   251  GLU251      0.3649
     81  OE1       94.5090   33.0120   54.3920 O.co2 251  GLU251     -0.2457
     82  OE2       92.7610   31.7330   54.9160 O.co2 251  GLU251     -0.2457
     83  N         94.2880   29.6980   50.2530 N.am  252  ALA252     -0.1977
     84  CA        93.6550   30.2530   49.0700 C.3   252  ALA252      0.1597
     85  C         93.5080   31.7600   49.2210 C.2   252  ALA252      0.2287
     86  O         93.1590   32.2420   50.2890 O.2   252  ALA252     -0.2864
     87  CB        92.2810   29.5940   48.8480 C.3   252  ALA252      0.0319
     88  N        102.4320   26.3630   57.4030 N.3   282  LEU282     -0.1245
     89  CA       101.1650   26.8240   56.7850 C.3   282  LEU282      0.1561
     90  C        101.0440   28.3590   56.8620 C.2   282  LEU282      0.2260
     91  O        101.1220   28.9220   57.9510 O.2   282  LEU282     -0.2867
     92  CB        99.9420   26.1850   57.4720 C.3   282  LEU282      0.0270
     93  CG        98.6220   26.8490   57.0220 C.3   282  LEU282      0.0019
     94  CD1       98.0960   26.1850   55.7680 C.3   282  LEU282      0.0001
     95  CD2       97.5590   26.8530   58.1100 C.3   282  LEU282      0.0001
     96  N         98.7030   31.7380   56.3730 N.3   284  ARG284     -0.1231
     97  CA        97.3440   32.1860   56.1130 C.3   284  ARG284      0.1694
     98  C         97.1790   33.6230   56.6130 C.2   284  ARG284      0.2592
     99  O         97.9840   34.1000   57.4310 O.2   284  ARG284     -0.2718
    100  CB        96.3700   31.2310   56.8440 C.3   284  ARG284      0.0321
    101  CG        96.4080   31.4150   58.3590 C.3   284  ARG284      0.0489
    102  CD        95.3930   30.4770   59.1110 C.3   284  ARG284      0.2205
    103  NE        95.4050   30.7600   60.5340 N.pl3 284  ARG284     -0.0865
    104  CZ        94.8440   29.9740   61.4430 C.cat 284  ARG284      0.5346
    105  NH1       94.9260   30.3090   62.7130 N.pl3 284  ARG284      0.1354
    106  NH2       94.2290   28.8420   61.0660 N.pl3 284  ARG284      0.1354
    107  N         96.1560   34.3210   56.1450 N.am  285  ARG285     -0.1966
    108  CA        95.8150   35.5910   56.7610 C.3   285  ARG285      0.1729
    109  C         94.7190   35.2990   57.7860 C.2   285  ARG285      0.2616
    110  O         93.6530   34.7810   57.4390 O.2   285  ARG285     -0.2715
    111  CB        95.3510   36.6420   55.7400 C.3   285  ARG285      0.0348
    112  CG        95.0340   37.9960   56.5290 C.3   285  ARG285      0.0492
    113  CD        94.7420   39.1620   55.5760 C.3   285  ARG285      0.2205
    114  NE        95.8010   39.4470   54.5940 N.pl3 285  ARG285     -0.0865
    115  CZ        96.8080   40.3170   54.7630 C.cat 285  ARG285      0.5346
    116  NH1       96.9690   41.0230   55.9050 N.pl3 285  ARG285      0.1354
    117  NH2       97.6630   40.5010   53.7510 N.pl3 285  ARG285      0.1354
    118  N         94.9930   35.5670   59.0500 N.am  286  ASN286     -0.1958
    119  CA        94.0310   35.3350   60.0930 C.3   286  ASN286      0.1819
    120  C         92.7840   36.1390   59.7750 C.2   286  ASN286      0.2622
    121  O         92.8740   37.3480   59.5480 O.2   286  ASN286     -0.2715
    122  CB        94.5940   35.7460   61.4620 C.3   286  ASN286      0.1195
    123  CG        93.6820   35.3330   62.6130 C.2   286  ASN286      0.2630
    124  OD1       92.5890   35.8810   62.7790 O.2   286  ASN286     -0.2716
    125  ND2       94.1260   34.3570   63.4060 N.am  286  ASN286     -0.0877
    126  N         91.6220   35.4930   59.7780 N.am  287  SER287     -0.1936
    127  CA        90.4250   36.1700   59.2490 C.3   287  SER287      0.2055
    128  C         89.8060   37.0480   60.3040 C.2   287  SER287      0.2642
    129  O         88.8400   37.7940   60.0320 O.2   287  SER287     -0.2714
    130  CB        89.3970   35.1410   58.7950 C.3   287  SER287      0.2130
    131  OG        88.9450   34.3660   59.8770 O.3   287  SER287     -0.2179
    132  N         90.3200   36.9320   61.5290 N.am  288  VAL288     -0.1977
    133  CA        89.8270   37.7470   62.6360 C.3   288  VAL288      0.1596
    134  C         90.7170   38.9460   62.9160 C.2   288  VAL288      0.2287
    135  O         90.2210   40.0590   63.0950 O.2   288  VAL288     -0.2864
    136  CB        89.6340   36.9230   63.9480 C.3   288  VAL288      0.0276
    137  CG1       89.0970   37.8080   65.0900 C.3   288  VAL288      0.0022
    138  CG2       88.6730   35.7780   63.6870 C.3   288  VAL288      0.0022
@<TRIPOS>BOND
     1     1     2    1
     2     8     7   ar
     3     2     3    1
     4     2     5    1
     5     3     4    2
     6     7     9   ar
     7     7     6    1
     8     5     6    1
     9    11    12    1
    10    11    10    1
    11    11    14    1
    12    13    12    2
    13    14    15    1
    14    15    16    1
    15    17    16   ar
    16    16    18   ar
    17    24    25    1
    18    24    23    1
    19    25    26    2
    20    22    21    2
    21    23    21   am
    22    21    20    1
    23    58    57    2
    24    57    59   am
    25    57    56    1
    26    20    19    1
    27    52    53    1
    28    52    49   am
    29    53    56    1
    30    53    54    1
    31    51    48    1
    32    48    49    1
    33    48    47    1
    34    41    40    1
    35    49    50    2
    36    54    55    2
    37    46    45    2
    38    38    37    2
    39    47    45   am
    40    39    40    1
    41    39    36    1
    42    40    42    1
    43    45    44    1
    44    37    36    1
    45    37    43   am
    46    36    35    1
    47    33    32    1
    48    35    29   am
    49    44    43    1
    50    29    28    1
    51    29    30    2
    52    28    27    1
    53    28    31    1
    54    32    31    1
    55    32    34    1
    56    87    84    1
    57    84    85    1
    58    84    83    1
    59    85    86    2
    60    77    76    2
    61    71    72    1
    62    71    73    1
    63    71    68    1
    64    70    69    2
    65    83    76   am
    66    76    75    1
    67    69    68    1
    68    69    74   am
    69    67    68    1
    70    67    62   am
    71    75    74    1
    72    75    78    1
    73    61    62    1
    74    61    60    1
    75    61    64    1
    76    62    63    2
    77    65    64    1
    78    66    64    1
    79    79    78    1
    80    79    80    1
    81   117   115    1
    82    80    81   ar
    83    80    82   ar
    84   114   115    2
    85   114   113    1
    86   115   116    1
    87   113   112    1
    88   111   112    1
    89   111   108    1
    90    94    93    1
    91    97    96    1
    92    97    98    1
    93    97   100    1
    94   107    98   am
    95   107   108    1
    96    98    99    2
    97   108   109    1
    98    89    90    1
    99    89    88    1
   100    89    92    1
   101   100   101    1
   102    90    91    2
   103    93    92    1
   104    93    95    1
   105   110   109    2
   106   109   118   am
   107   101   102    1
   108   130   127    1
   109   130   131    1
   110   118   119    1
   111   102   103    1
   112   127   126    1
   113   127   128    1
   114   121   120    2
   115   120   126   am
   116   120   119    1
   117   129   128    2
   118   119   122    1
   119   128   132   am
   120   103   104    2
   121   106   104    1
   122   104   105    1
   123   122   123    1
   124   132   133    1
   125   123   124    2
   126   123   125   am
   127   133   134    1
   128   133   136    1
   129   134   135    2
   130   138   136    1
   131   136   137    1
