@<TRIPOS>MOLECULE
tmp/3fsyE00.pdb
 121 115 0 0 0
SMALL
GASTEIGER

@<TRIPOS>ATOM
      1  N         78.5410   89.9900   75.8320 N.3   195  GLU195     -0.1245
      2  CA        78.3530   89.1430   76.9920 C.3   195  GLU195      0.1567
      3  C         78.8720   87.7270   76.7050 C.2   195  GLU195      0.2260
      4  O         78.7330   86.8110   77.5310 O.2   195  GLU195     -0.2867
      5  CB        76.8640   89.0700   77.3510 C.3   195  GLU195      0.0388
      6  CG        76.1080   90.3890   77.1790 C.3   195  GLU195      0.1160
      7  CD        74.6520   90.2800   77.6300 C.2   195  GLU195      0.3649
      8  OE1       73.7400   90.0710   76.7770 O.co2 195  GLU195     -0.2457
      9  OE2       74.4340   90.3880   78.8550 O.co2 195  GLU195     -0.2457
     10  N         75.3430   87.5380   72.9260 N.3   211  GLY211     -0.1210
     11  CA        74.6080   87.1420   74.1160 C.3   211  GLY211      0.1956
     12  C         75.4660   86.4410   75.1340 C.2   211  GLY211      0.2612
     13  O         76.5530   85.9760   74.8240 O.2   211  GLY211     -0.2717
     14  N         74.9600   86.3440   76.3540 N.am  212  GLY212     -0.1956
     15  CA        75.7360   85.7930   77.4670 C.3   212  GLY212      0.1869
     16  C         76.2030   84.3760   77.2370 C.2   212  GLY212      0.2309
     17  O         75.4180   83.5030   76.8860 O.2   212  GLY212     -0.2863
     18  N         72.5530   89.4770   66.1350 N.3   230  LEU230     -0.1231
     19  CA        72.3420   89.0590   67.5040 C.3   230  LEU230      0.1693
     20  C         72.7240   87.5990   67.6470 C.2   230  LEU230      0.2592
     21  O         72.2160   86.7400   66.9160 O.2   230  LEU230     -0.2718
     22  CB        70.8840   89.2620   67.9160 C.3   230  LEU230      0.0284
     23  CG        70.6100   88.7230   69.3210 C.3   230  LEU230      0.0019
     24  CD1       71.2300   89.6700   70.3440 C.3   230  LEU230      0.0001
     25  CD2       69.1230   88.5240   69.5990 C.3   230  LEU230      0.0001
     26  N         73.6580   87.3110   68.5450 N.am  231  LEU231     -0.1966
     27  CA        73.9600   85.9260   68.8730 C.3   231  LEU231      0.1728
     28  C         73.3170   85.6660   70.2230 C.2   231  LEU231      0.2617
     29  O         73.6140   86.3920   71.1950 O.2   231  LEU231     -0.2715
     30  CB        75.4650   85.6950   68.9920 C.3   231  LEU231      0.0311
     31  CG        76.3000   86.1480   67.7970 C.3   231  LEU231      0.0022
     32  CD1       77.7860   85.9330   68.1190 C.3   231  LEU231      0.0001
     33  CD2       75.8830   85.3840   66.5600 C.3   231  LEU231      0.0001
     34  N         72.4750   84.6280   70.2930 N.am  232  GLY232     -0.1940
     35  CA        71.7550   84.3430   71.5130 C.3   232  GLY232      0.2014
     36  C         72.6770   83.8500   72.6210 C.2   232  GLY232      0.2638
     37  O         73.8080   83.4560   72.3850 O.2   232  GLY232     -0.2714
     38  N         72.1730   83.8440   73.8420 N.am  233  ALA233     -0.1977
     39  CA        72.9420   83.3270   74.9570 C.3   233  ALA233      0.1597
     40  C         73.2670   81.8520   74.7710 C.2   233  ALA233      0.2287
     41  O         72.4360   81.0620   74.2960 O.2   233  ALA233     -0.2864
     42  CB        72.1930   83.5660   76.2520 C.3   233  ALA233      0.0319
     43  N         70.9140   86.5090   62.8970 N.3   246  VAL246     -0.1231
     44  CA        70.5950   86.1240   64.2390 C.3   246  VAL246      0.1692
     45  C         70.8800   84.6530   64.4220 C.2   246  VAL246      0.2592
     46  O         70.5890   83.8360   63.5360 O.2   246  VAL246     -0.2718
     47  CB        69.1300   86.3930   64.5300 C.3   246  VAL246      0.0266
     48  CG1       68.7640   85.8200   65.8780 C.3   246  VAL246      0.0020
     49  CG2       68.8870   87.9080   64.4910 C.3   246  VAL246      0.0020
     50  N         71.4740   84.3070   65.5650 N.am  247  VAL247     -0.1966
     51  CA        71.6500   82.8990   65.9060 C.3   247  VAL247      0.1727
     52  C         70.8650   82.5820   67.1870 C.2   247  VAL247      0.2616
     53  O         71.0670   83.2230   68.2120 O.2   247  VAL247     -0.2715
     54  CB        73.1420   82.5230   66.0510 C.3   247  VAL247      0.0290
     55  CG1       73.2740   81.1150   66.6300 C.3   247  VAL247      0.0023
     56  CG2       73.8610   82.6250   64.6940 C.3   247  VAL247      0.0023
     57  N         69.9750   81.6010   67.1250 N.am  248  GLU248     -0.1963
     58  CA        69.1210   81.2410   68.2610 C.3   248  GLU248      0.1733
     59  C         69.9300   80.9740   69.5660 C.2   248  GLU248      0.2616
     60  O         71.0020   80.4010   69.4940 O.2   248  GLU248     -0.2715
     61  CB        68.2920   79.9840   67.8820 C.3   248  GLU248      0.0429
     62  CG        67.4700   79.4370   69.0630 C.3   248  GLU248      0.1163
     63  CD        66.7850   78.0790   68.7800 C.2   248  GLU248      0.3649
     64  OE1       67.4370   77.1420   68.2320 O.co2 248  GLU248     -0.2457
     65  OE2       65.5920   77.9500   69.1700 O.co2 248  GLU248     -0.2457
     66  N         69.4130   81.3560   70.7400 N.am  249  ALA249     -0.1977
     67  CA        70.0610   80.9590   71.9900 C.3   249  ALA249      0.1597
     68  C         70.2900   79.4630   72.0810 C.2   249  ALA249      0.2287
     69  O         69.3900   78.6680   71.7730 O.2   249  ALA249     -0.2864
     70  CB        69.2640   81.4400   73.2170 C.3   249  ALA249      0.0319
     71  N         68.4600   83.9230   59.8070 N.3   279  LEU279     -0.1245
     72  CA        68.2290   83.4590   61.1660 C.3   279  LEU279      0.1561
     73  C         68.6070   81.9870   61.2630 C.2   279  LEU279      0.2260
     74  O         68.0660   81.1710   60.5610 O.2   279  LEU279     -0.2867
     75  CB        66.7660   83.6620   61.5800 C.3   279  LEU279      0.0270
     76  CG        66.4000   82.9650   62.8920 C.3   279  LEU279      0.0019
     77  CD1       67.6670   82.6370   63.6570 C.3   279  LEU279      0.0001
     78  CD2       65.5110   83.8560   63.7520 C.3   279  LEU279      0.0001
     79  N         68.4710   78.6030   63.5180 N.3   281  ARG281     -0.1231
     80  CA        67.9190   78.0130   64.7400 C.3   281  ARG281      0.1694
     81  C         67.8570   76.4950   64.6360 C.2   281  ARG281      0.2592
     82  O         67.9660   75.9370   63.5590 O.2   281  ARG281     -0.2718
     83  CB        66.5390   78.6240   65.0670 C.3   281  ARG281      0.0321
     84  CG        65.4900   78.1360   64.0750 C.3   281  ARG281      0.0489
     85  CD        64.0890   78.5620   64.4040 C.3   281  ARG281      0.2205
     86  NE        63.1630   77.8010   63.5670 N.pl3 281  ARG281     -0.0865
     87  CZ        61.9850   78.2710   63.1850 C.cat 281  ARG281      0.5346
     88  NH1       61.1950   77.5310   62.4190 N.pl3 281  ARG281      0.1354
     89  NH2       61.6160   79.4930   63.5760 N.pl3 281  ARG281      0.1354
     90  N         67.7240   75.8220   65.7760 N.am  282  ARG282     -0.1966
     91  CA        67.4830   74.4090   65.7590 C.3   282  ARG282      0.1729
     92  C         66.0070   74.1720   65.9480 C.2   282  ARG282      0.2616
     93  O         65.4320   74.5500   66.9600 O.2   282  ARG282     -0.2715
     94  CB        68.2610   73.6710   66.8610 C.3   282  ARG282      0.0348
     95  CG        68.0440   72.1500   66.7740 C.3   282  ARG282      0.0492
     96  CD        68.7450   71.4320   67.9200 C.3   282  ARG282      0.2205
     97  NE        70.1880   71.6470   67.9160 N.pl3 282  ARG282     -0.0865
     98  CZ        71.0480   71.0010   67.1250 C.cat 282  ARG282      0.5346
     99  NH1       70.6320   70.1120   66.2340 N.pl3 282  ARG282      0.1354
    100  NH2       72.3380   71.2790   67.2190 N.pl3 282  ARG282      0.1354
    101  N         65.4030   73.5120   64.9850 N.am  283  ASN283     -0.1958
    102  CA        63.9960   73.2740   65.0470 C.3   283  ASN283      0.1819
    103  C         63.6500   72.4960   66.3030 C.2   283  ASN283      0.2622
    104  O         64.1860   71.4140   66.5260 O.2   283  ASN283     -0.2715
    105  CB        63.5190   72.5430   63.7950 C.3   283  ASN283      0.1195
    106  CG        62.0190   72.4640   63.7440 C.2   283  ASN283      0.2630
    107  OD1       61.4300   71.5950   64.3780 O.2   283  ASN283     -0.2716
    108  ND2       61.3780   73.4260   63.0530 N.am  283  ASN283     -0.0877
    109  N         62.7750   73.0300   67.1450 N.am  284  SER284     -0.1936
    110  CA        62.5650   72.3870   68.4220 C.3   284  SER284      0.2055
    111  C         61.6880   71.1340   68.3560 C.2   284  SER284      0.2642
    112  O         61.5300   70.4760   69.3680 O.2   284  SER284     -0.2714
    113  CB        62.0370   73.3730   69.4630 C.3   284  SER284      0.2130
    114  OG        60.7300   73.6710   69.1310 O.3   284  SER284     -0.2179
    115  N         61.1450   70.8150   67.1810 N.am  285  VAL285     -0.1977
    116  CA        60.3930   69.5700   66.9950 C.3   285  VAL285      0.1596
    117  C         61.2250   68.5060   66.2640 C.2   285  VAL285      0.2287
    118  O         61.2790   67.3720   66.7040 O.2   285  VAL285     -0.2864
    119  CB        59.1200   69.7780   66.1890 C.3   285  VAL285      0.0276
    120  CG1       58.3620   68.4460   66.0020 C.3   285  VAL285      0.0022
    121  CG2       58.2390   70.8120   66.8170 C.3   285  VAL285      0.0022
@<TRIPOS>BOND
     1    71    72    1
     2    74    73    2
     3    72    73    1
     4    72    75    1
     5    75    76    1
     6    88    87    1
     7    76    77    1
     8    76    78    1
     9    43    44    1
    10   108   106   am
    11    87    86    2
    12    87    89    1
    13    79    80    1
    14    46    45    2
    15    82    81    2
    16    86    85    1
    17   106   105    1
    18   106   107    2
    19   105   102    1
    20    84    85    1
    21    84    83    1
    22    44    45    1
    23    44    47    1
    24    45    50   am
    25    49    47    1
    26    47    48    1
    27    81    80    1
    28    81    90   am
    29    56    54    1
    30    80    83    1
    31   101   102    1
    32   101    92   am
    33   102   103    1
    34    50    51    1
    35    91    90    1
    36    91    92    1
    37    91    94    1
    38    51    54    1
    39    51    52    1
    40    92    93    2
    41   120   119    1
    42    54    55    1
    43    18    19    1
    44   119   121    1
    45   119   116    1
    46    99    98    1
    47   117   118    2
    48   117   116    1
    49   103   104    2
    50   103   109   am
    51    33    31    1
    52    95    94    1
    53    95    96    1
    54    21    20    2
    55   116   115    1
    56    98   100    1
    57    98    97    2
    58    57    52   am
    59    57    58    1
    60   109   110    1
    61   115   111   am
    62    52    53    2
    63    19    20    1
    64    19    22    1
    65    20    26   am
    66    31    32    1
    67    31    30    1
    68    61    58    1
    69    61    62    1
    70    22    23    1
    71    97    96    1
    72    64    63   ar
    73    58    59    1
    74   111   110    1
    75   111   112    2
    76   110   113    1
    77    26    27    1
    78    63    62    1
    79    63    65   ar
    80    27    30    1
    81    27    28    1
    82   114   113    1
    83    23    25    1
    84    23    24    1
    85    60    59    2
    86    59    66   am
    87    28    34   am
    88    28    29    2
    89    34    35    1
    90    66    67    1
    91    35    36    1
    92    69    68    2
    93    67    68    1
    94    67    70    1
    95    37    36    2
    96    36    38   am
    97    10    11    1
    98    38    39    1
    99    11    12    1
   100    41    40    2
   101    40    39    1
   102    13    12    2
   103    39    42    1
   104    12    14   am
   105     1     2    1
   106    14    15    1
   107     3     2    1
   108     3     4    2
   109     8     7   ar
   110    17    16    2
   111     2     5    1
   112     6     5    1
   113     6     7    1
   114    16    15    1
   115     7     9   ar
