@<TRIPOS>MOLECULE
tmp/3fsyA02.pdb
 117 109 0 0 0
SMALL
GASTEIGER

@<TRIPOS>ATOM
      1  N         85.9100   29.8390   32.8690 N.3   182  PHE182     -0.1241
      2  CA        86.2050   28.4310   32.6030 C.3   182  PHE182      0.1605
      3  C         84.9880   27.6320   33.0730 C.2   182  PHE182      0.2264
      4  O         84.4570   27.8720   34.1980 O.2   182  PHE182     -0.2867
      5  CB        87.4740   27.9250   33.3610 C.3   182  PHE182      0.0534
      6  CG        87.5570   26.4080   33.4110 C.ar  182  PHE182     -0.0203
      7  CD1       87.8200   25.6760   32.2400 C.ar  182  PHE182     -0.0042
      8  CD2       87.3660   25.7120   34.5920 C.ar  182  PHE182     -0.0042
      9  CE1       87.8440   24.2460   32.2780 C.ar  182  PHE182     -0.0003
     10  CE2       87.4060   24.2950   34.6350 C.ar  182  PHE182     -0.0003
     11  CZ        87.6400   23.5720   33.4990 C.ar  182  PHE182     -0.0000
     12  N         86.0140   30.7610   37.2740 N.3   198  ARG198     -0.1245
     13  CA        86.1210   29.3250   37.0820 C.3   198  ARG198      0.1563
     14  C         85.0940   28.5410   37.8260 C.2   198  ARG198      0.2260
     15  O         85.0570   28.5820   39.0410 O.2   198  ARG198     -0.2867
     16  CB        87.5060   28.8380   37.5020 C.3   198  ARG198      0.0307
     17  CG        88.6020   29.6580   36.7200 C.3   198  ARG198      0.0489
     18  CD        90.0400   29.1310   36.9590 C.3   198  ARG198      0.2205
     19  NE        90.4830   29.3120   38.3590 N.pl3 198  ARG198     -0.0865
     20  CZ        90.9210   30.4780   38.8480 C.cat 198  ARG198      0.5346
     21  NH1       91.0030   31.5810   38.0860 N.pl3 198  ARG198      0.1354
     22  NH2       91.2990   30.5520   40.1090 N.pl3 198  ARG198      0.1354
     23  N         84.0410   24.9370   38.7600 N.3   200  SER200     -0.1217
     24  CA        84.6090   23.5920   38.9010 C.3   200  SER200      0.1889
     25  C         83.5910   22.4980   38.5670 C.2   200  SER200      0.2288
     26  O         82.3800   22.7360   38.5480 O.2   200  SER200     -0.2866
     27  CB        85.0790   23.3760   40.3660 C.3   200  SER200      0.2089
     28  OG        86.0780   24.3430   40.6450 O.3   200  SER200     -0.2183
     29  N         87.2050   32.2490   41.6370 N.3   216  SER216     -0.1202
     30  CA        87.4990   30.8090   41.7840 C.3   216  SER216      0.2020
     31  C         86.3340   30.2040   42.5550 C.2   216  SER216      0.2619
     32  O         86.0080   30.6520   43.6610 O.2   216  SER216     -0.2717
     33  CB        88.8030   30.6480   42.5810 C.3   216  SER216      0.2103
     34  OG        89.0050   29.3280   43.0580 O.3   216  SER216     -0.2182
     35  N         85.6270   29.2480   41.9550 N.am  217  ILE217     -0.1965
     36  CA        84.6230   28.4990   42.7240 C.3   217  ILE217      0.1727
     37  C         85.0810   27.0560   42.9630 C.2   217  ILE217      0.2616
     38  O         85.2250   26.2920   42.0020 O.2   217  ILE217     -0.2715
     39  CB        83.2620   28.4430   42.0420 C.3   217  ILE217      0.0290
     40  CG1       82.8510   29.8460   41.5440 C.3   217  ILE217      0.0022
     41  CG2       82.2340   27.8820   43.0450 C.3   217  ILE217      0.0023
     42  CD1       81.5290   29.8480   40.7110 C.3   217  ILE217      0.0001
     43  N         85.3260   26.7070   44.2250 N.am  218  MET218     -0.1977
     44  CA        85.7010   25.3250   44.5750 C.3   218  MET218      0.1605
     45  C         84.5550   24.3660   44.2910 C.2   218  MET218      0.2287
     46  O         83.3790   24.7840   44.2230 O.2   218  MET218     -0.2864
     47  CB        86.0670   25.2420   46.0520 C.3   218  MET218      0.0413
     48  CG        87.4750   25.8140   46.2990 C.3   218  MET218      0.0598
     49  SD        87.7250   26.0160   48.0410 S.3   218  MET218     -0.1393
     50  CE        89.4510   26.5100   47.9850 C.3   218  MET218      0.0692
     51  N         84.8230   21.7120   51.7220 N.3   222  SER222     -0.1217
     52  CA        85.9000   20.8960   52.3290 C.3   222  SER222      0.1889
     53  C         85.5050   20.1050   53.6090 C.2   222  SER222      0.2288
     54  O         85.2130   20.6860   54.6720 O.2   222  SER222     -0.2866
     55  CB        87.1750   21.7470   52.5510 C.3   222  SER222      0.2089
     56  OG        86.9510   22.8350   53.4330 O.3   222  SER222     -0.2183
     57  N         88.7020   35.7480   49.2860 N.3   255  TYR255     -0.1241
     58  CA        88.5170   34.2860   49.0950 C.3   255  TYR255      0.1605
     59  C         87.8090   33.7800   50.3590 C.2   255  TYR255      0.2264
     60  O         88.3820   33.7950   51.4270 O.2   255  TYR255     -0.2867
     61  CB        89.8650   33.5330   48.9090 C.3   255  TYR255      0.0534
     62  CG        89.6440   32.2810   48.0920 C.ar  255  TYR255     -0.0201
     63  CD1       90.2150   32.1440   46.8150 C.ar  255  TYR255     -0.0009
     64  CD2       88.7990   31.2580   48.5610 C.ar  255  TYR255     -0.0009
     65  CE1       89.9790   31.0170   46.0370 C.ar  255  TYR255      0.0417
     66  CE2       88.5350   30.1340   47.7660 C.ar  255  TYR255      0.0417
     67  CZ        89.1230   30.0230   46.5070 C.ar  255  TYR255      0.1957
     68  OH        88.8470   28.9100   45.7100 O.3   255  TYR255     -0.2866
     69  N         86.9290   30.8050   52.3540 N.3   257  THR257     -0.1218
     70  CA        87.1030   29.3340   52.4590 C.3   257  THR257      0.1862
     71  C         86.1210   28.8420   53.5050 C.2   257  THR257      0.2287
     72  O         85.6710   29.6190   54.3510 O.2   257  THR257     -0.2866
     73  CB        88.5350   28.9270   52.8890 C.3   257  THR257      0.1770
     74  OG1       88.8270   29.4770   54.1760 O.3   257  THR257     -0.2211
     75  CG2       89.6090   29.4320   51.8440 C.3   257  THR257      0.0375
     76  N         86.6320   27.1650   56.1270 N.3   259  GLY259     -0.1210
     77  CA        87.1530   27.3830   57.4650 C.3   259  GLY259      0.1956
     78  C         87.3750   28.8330   57.9080 C.2   259  GLY259      0.2613
     79  O         87.7370   29.0980   59.0520 O.2   259  GLY259     -0.2717
     80  N         87.2710   29.7770   56.9820 N.am  260  THR260     -0.1938
     81  CA        87.4110   31.1790   57.3510 C.3   260  THR260      0.2028
     82  C         86.4160   31.5390   58.4860 C.2   260  THR260      0.2642
     83  O         85.2450   31.1910   58.4140 O.2   260  THR260     -0.2714
     84  CB        87.1340   32.0590   56.1200 C.3   260  THR260      0.1808
     85  OG1       88.0750   31.7360   55.0990 O.3   260  THR260     -0.2208
     86  CG2       87.2150   33.5590   56.4320 C.3   260  THR260      0.0379
     87  N         86.8800   32.2260   59.5250 N.am  261  ARG261     -0.1977
     88  CA        85.9880   32.6690   60.5590 C.3   261  ARG261      0.1597
     89  C         85.4590   34.0220   60.1680 C.2   261  ARG261      0.2287
     90  O         86.2480   34.9620   59.9690 O.2   261  ARG261     -0.2864
     91  CB        86.7210   32.7790   61.8940 C.3   261  ARG261      0.0334
     92  CG        87.3270   31.4610   62.3210 C.3   261  ARG261      0.0492
     93  CD        87.4470   31.4050   63.8340 C.3   261  ARG261      0.2205
     94  NE        86.2010   31.7400   64.5220 N.pl3 261  ARG261     -0.0865
     95  CZ        85.2660   30.8550   64.8790 C.cat 261  ARG261      0.5346
     96  NH1       85.4210   29.5650   64.6110 N.pl3 261  ARG261      0.1354
     97  NH2       84.1740   31.2600   65.5210 N.pl3 261  ARG261      0.1354
     98  N         82.4640   29.8760   61.4830 N.3   271  LYS271     -0.1245
     99  CA        83.1380   29.4420   60.2800 C.3   271  LYS271      0.1561
    100  C         82.1950   29.7110   59.1530 C.2   271  LYS271      0.2260
    101  O         80.9890   29.6220   59.3480 O.2   271  LYS271     -0.2867
    102  CB        83.4880   27.9560   60.3170 C.3   271  LYS271      0.0271
    103  CG        84.2510   27.6100   61.5620 C.3   271  LYS271      0.0035
    104  CD        84.8250   26.2270   61.4630 C.3   271  LYS271      0.0206
    105  CE        85.5420   25.8790   62.7610 C.3   271  LYS271      0.1093
    106  NZ        85.8440   24.4170   62.7950 N.3   271  LYS271     -0.1314
    107  N         81.4910   27.9680   56.6780 N.3   273  ARG273     -0.1245
    108  CA        80.6860   26.8140   56.3330 C.3   273  ARG273      0.1563
    109  C         79.3230   26.8500   56.9940 C.2   273  ARG273      0.2260
    110  O         78.3770   26.3190   56.4290 O.2   273  ARG273     -0.2867
    111  CB        81.3780   25.5370   56.7620 C.3   273  ARG273      0.0307
    112  CG        81.5670   25.4480   58.2750 C.3   273  ARG273      0.0489
    113  CD        82.1350   24.0750   58.6990 C.3   273  ARG273      0.2205
    114  NE        83.4100   23.8050   58.0370 N.pl3 273  ARG273     -0.0865
    115  CZ        83.5550   22.9720   57.0090 C.cat 273  ARG273      0.5346
    116  NH1       82.4960   22.3120   56.5320 N.pl3 273  ARG273      0.1354
    117  NH2       84.7580   22.7990   56.4630 N.pl3 273  ARG273      0.1354
@<TRIPOS>BOND
     1     7     9   ar
     2     7     6   ar
     3     9    11   ar
     4     2     1    1
     5     2     3    1
     6     2     5    1
     7     3     4    2
     8     5     6    1
     9     6     8   ar
    10    11    10   ar
    11     8    10   ar
    12    17    18    1
    13    17    16    1
    14    18    19    1
    15    13    12    1
    16    13    16    1
    17    13    14    1
    18    14    15    2
    19    21    20    1
    20    19    20    2
    21    26    25    2
    22    25    24    1
    23    23    24    1
    24    20    22    1
    25    24    27    1
    26    27    28    1
    27    42    40    1
    28    40    39    1
    29    29    30    1
    30    30    31    1
    31    30    33    1
    32    35    31   am
    33    35    36    1
    34    38    37    2
    35    39    36    1
    36    39    41    1
    37    31    32    2
    38    33    34    1
    39    36    37    1
    40    37    43   am
    41    46    45    2
    42    43    44    1
    43    45    44    1
    44    44    47    1
    45    68    67    1
    46    65    67   ar
    47    65    63   ar
    48    47    48    1
    49    48    49    1
    50    67    66   ar
    51    63    62   ar
    52    66    64   ar
    53    50    49    1
    54    62    64   ar
    55    62    61    1
    56    61    58    1
    57    58    57    1
    58    58    59    1
    59    59    60    2
    60    51    52    1
    61    75    73    1
    62    52    55    1
    63    52    53    1
    64    69    70    1
    65    70    73    1
    66    70    71    1
    67    55    56    1
    68    73    74    1
    69    71    72    2
    70    53    54    2
    71    85    84    1
    72    84    86    1
    73    84    81    1
    74    76    77    1
    75   108   107    1
    76   108   111    1
    77   108   109    1
    78   110   109    2
    79   117   115    1
    80   116   115    1
    81   111   112    1
    82    80    81    1
    83    80    78   am
    84   115   114    2
    85    81    82    1
    86    77    78    1
    87    78    79    2
    88   114   113    1
    89   112   113    1
    90    83    82    2
    91    82    87   am
    92   100   101    2
    93   100    99    1
    94    87    88    1
    95    90    89    2
    96    89    88    1
    97    99   102    1
    98    99    98    1
    99   102   103    1
   100    88    91    1
   101   104   103    1
   102   104   105    1
   103    91    92    1
   104    92    93    1
   105   105   106    1
   106    93    94    1
   107    94    95    2
   108    96    95    1
   109    95    97    1
