@<TRIPOS>MOLECULE
tmp/3ft5A00.pdb
 99 91 0 0 0
SMALL
GASTEIGER

@<TRIPOS>ATOM
      1  N         30.8340   11.2980   15.9370 N.3    33  LEU33      -0.1245
      2  CA        30.2270   11.7900   17.1870 C.3    33  LEU33       0.1561
      3  C         28.9040   11.1080   17.5480 C.2    33  LEU33       0.2260
      4  O         28.5950   10.8780   18.7340 O.2    33  LEU33      -0.2867
      5  CB        30.0360   13.3060   17.1300 C.3    33  LEU33       0.0270
      6  CG        31.3280   14.1320   17.0330 C.3    33  LEU33       0.0019
      7  CD1       30.9520   15.5870   16.9090 C.3    33  LEU33       0.0001
      8  CD2       32.2910   13.9310   18.2280 C.3    33  LEU33       0.0001
      9  N         29.8690    7.7740   18.8660 N.3    36  ASN36      -0.1225
     10  CA        30.2620    7.9430   20.2670 C.3    36  ASN36       0.1785
     11  C         29.0420    8.0310   21.1970 C.2    36  ASN36       0.2597
     12  O         29.0400    7.4690   22.2790 O.2    36  ASN36      -0.2718
     13  CB        31.0910    9.2160   20.4530 C.3    36  ASN36       0.1169
     14  CG        32.5070    9.0800   19.9290 C.2    36  ASN36       0.2627
     15  OD1       32.9440    8.0050   19.5260 O.2    36  ASN36      -0.2716
     16  ND2       33.2310   10.1750   19.9460 N.am   36  ASN36      -0.0877
     17  N         28.0390    8.7880   20.7850 N.am   37  SER37      -0.1952
     18  CA        26.8240    8.9530   21.5760 C.3    37  SER37       0.1924
     19  C         26.1030    7.6090   21.6360 C.2    37  SER37       0.2314
     20  O         25.6190    7.2050   22.6810 O.2    37  SER37      -0.2863
     21  CB        25.8970    9.9930   20.9310 C.3    37  SER37       0.2116
     22  OG        26.4030   11.3200   21.0910 O.3    37  SER37      -0.2180
     23  N         27.8040    5.4010   24.1880 N.3    40  ALA40      -0.1245
     24  CA        27.4850    5.9080   25.5360 C.3    40  ALA40       0.1562
     25  C         26.0500    5.5430   25.9860 C.2    40  ALA40       0.2260
     26  O         25.7730    5.3640   27.1700 O.2    40  ALA40      -0.2867
     27  CB        27.6620    7.4340   25.5550 C.3    40  ALA40       0.0290
     28  N         23.4790   13.6480   23.7250 N.3    78  ASP78      -0.1239
     29  CA        22.9520   12.3250   24.0340 C.3    78  ASP78       0.1674
     30  C         22.5970   12.2460   25.5180 C.2    78  ASP78       0.2266
     31  O         23.0230   13.1020   26.3570 O.2    78  ASP78      -0.2867
     32  CB        23.9350   11.1950   23.6500 C.3    78  ASP78       0.1410
     33  CG        25.2280   11.2230   24.4650 C.2    78  ASP78       0.3668
     34  OD1       25.2080   10.8850   25.6590 O.co2  78  ASP78      -0.2456
     35  OD2       26.2810   11.5730   23.8990 O.co2  78  ASP78      -0.2456
     36  N         25.8920    7.4750   28.9790 N.3    81  ILE81      -0.1231
     37  CA        26.4770    7.3320   30.3080 C.3    81  ILE81       0.1692
     38  C         27.1060    8.6110   30.8610 C.2    81  ILE81       0.2593
     39  O         27.2400    8.7770   32.0870 O.2    81  ILE81      -0.2718
     40  CB        27.4510    6.1620   30.3600 C.3    81  ILE81       0.0266
     41  CG1       27.8260    5.8370   31.8090 C.3    81  ILE81       0.0019
     42  CG2       28.6860    6.4090   29.5190 C.3    81  ILE81       0.0020
     43  CD1       27.0140    4.7300   32.3840 C.3    81  ILE81       0.0001
     44  N         27.4770    9.5280   29.9630 N.am   82  GLY82      -0.1942
     45  CA        28.1880   10.7320   30.3850 C.3    82  GLY82       0.2014
     46  C         29.5920   10.4020   30.8610 C.2    82  GLY82       0.2638
     47  O         30.0310    9.2510   30.7820 O.2    82  GLY82      -0.2714
     48  N         30.3040   11.4170   31.3340 N.am   83  MET83      -0.1976
     49  CA        31.6980   11.2450   31.7520 C.3    83  MET83       0.1605
     50  C         31.9190   11.8870   33.1170 C.2    83  MET83       0.2287
     51  O         31.3450   12.9340   33.4120 O.2    83  MET83      -0.2864
     52  CB        32.6420   11.8970   30.7230 C.3    83  MET83       0.0413
     53  CG        32.8760   11.0420   29.4840 C.3    83  MET83       0.0598
     54  SD        33.7550   11.9100   28.1840 S.3    83  MET83      -0.1393
     55  CE        32.5040   13.1000   27.6710 C.3    83  MET83       0.0692
     56  N         38.7800   12.3170   27.5230 N.3    92  LEU92      -0.1231
     57  CA        37.3320   12.0320   27.3590 C.3    92  LEU92       0.1693
     58  C         37.0210   10.5270   27.2900 C.2    92  LEU92       0.2593
     59  O         36.3260   10.0690   26.3790 O.2    92  LEU92      -0.2718
     60  CB        36.7700   12.7950   26.1370 C.3    92  LEU92       0.0284
     61  CG        37.1090   14.3090   26.1860 C.3    92  LEU92       0.0019
     62  CD1       38.3900   14.6370   25.4320 C.3    92  LEU92       0.0001
     63  CD2       36.0000   15.1750   25.6580 C.3    92  LEU92       0.0001
     64  N         37.5420    9.7600   28.2510 N.am   93  GLY93      -0.1942
     65  CA        37.2780    8.3090   28.3430 C.3    93  GLY93       0.2014
     66  C         37.7650    7.4300   27.1870 C.2    93  GLY93       0.2639
     67  O         37.3160    6.2830   27.0230 O.2    93  GLY93      -0.2714
     68  N         38.6820    7.9470   26.3740 N.am   94  THR94      -0.1950
     69  CA        39.1950    7.1760   25.2570 C.3    94  THR94       0.1897
     70  C         40.5860    6.6320   25.6160 C.2    94  THR94       0.2313
     71  O         41.2250    7.1120   26.5640 O.2    94  THR94      -0.2863
     72  CB        39.3010    8.0360   23.9850 C.3    94  THR94       0.1794
     73  OG1       40.3660    8.9870   24.1390 O.3    94  THR94      -0.2208
     74  CG2       37.9810    8.7840   23.7060 C.3    94  THR94       0.0378
     75  N         36.3460   11.0050   18.3530 N.3   123  PHE123     -0.1241
     76  CA        36.0310   12.3280   18.9340 C.3   123  PHE123      0.1605
     77  C         36.8260   13.4770   18.3080 C.2   123  PHE123      0.2264
     78  O         36.2770   14.5510   17.9720 O.2   123  PHE123     -0.2867
     79  CB        36.2210   12.3350   20.4700 C.3   123  PHE123      0.0534
     80  CG        36.0900   13.7120   21.0680 C.ar  123  PHE123     -0.0203
     81  CD1       34.8380   14.2740   21.2680 C.ar  123  PHE123     -0.0042
     82  CD2       37.2220   14.4790   21.3410 C.ar  123  PHE123     -0.0042
     83  CE1       34.7170   15.5850   21.7870 C.ar  123  PHE123     -0.0003
     84  CE2       37.1120   15.7830   21.8560 C.ar  123  PHE123     -0.0003
     85  CZ        35.8730   16.3210   22.0690 C.ar  123  PHE123     -0.0000
     86  N         25.9190   13.7600   27.6010 N.3   168  THR168     -0.1218
     87  CA        27.0090   14.5530   27.0790 C.3   168  THR168      0.1862
     88  C         26.4940   15.4330   25.9460 C.2   168  THR168      0.2287
     89  O         25.7070   14.9900   25.0730 O.2   168  THR168     -0.2866
     90  CB        28.1510   13.6350   26.5960 C.3   168  THR168      0.1770
     91  OG1       28.5890   12.8140   27.6860 O.3   168  THR168     -0.2211
     92  CG2       29.3430   14.4520   26.0230 C.3   168  THR168      0.0375
     93  N         28.1480   17.7880   22.9650 N.3   170  VAL170     -0.1245
     94  CA        29.3600   18.1980   22.2550 C.3   170  VAL170      0.1561
     95  C         29.0220   19.4300   21.4230 C.2   170  VAL170      0.2260
     96  O         28.2870   19.3610   20.4420 O.2   170  VAL170     -0.2867
     97  CB        29.9260   17.0740   21.3490 C.3   170  VAL170      0.0252
     98  CG1       31.1640   17.5830   20.5870 C.3   170  VAL170      0.0019
     99  CG2       30.2650   15.7660   22.1980 C.3   170  VAL170      0.0019
@<TRIPOS>BOND
     1     1     2    1
     2     7     6    1
     3     6     5    1
     4     6     8    1
     5     5     2    1
     6     2     3    1
     7     3     4    2
     8    78    77    2
     9    77    76    1
    10    75    76    1
    11     9    10    1
    12    76    79    1
    13    15    14    2
    14    14    16   am
    15    14    13    1
    16    10    13    1
    17    10    11    1
    18    96    95    2
    19    79    80    1
    20    98    97    1
    21    17    11   am
    22    17    18    1
    23    21    22    1
    24    21    18    1
    25    80    81   ar
    26    80    82   ar
    27    11    12    2
    28    81    83   ar
    29    82    84   ar
    30    97    99    1
    31    97    94    1
    32    95    94    1
    33    18    19    1
    34    19    20    2
    35    83    85   ar
    36    84    85   ar
    37    94    93    1
    38    32    29    1
    39    32    33    1
    40    74    72    1
    41    28    29    1
    42    35    33   ar
    43    72    73    1
    44    72    69    1
    45    29    30    1
    46    23    24    1
    47    33    34   ar
    48    89    88    2
    49    69    70    1
    50    69    68    1
    51    62    61    1
    52    30    31    2
    53    24    27    1
    54    24    25    1
    55    70    71    2
    56    63    61    1
    57    88    87    1
    58    25    26    2
    59    92    90    1
    60    60    61    1
    61    60    57    1
    62    68    66   am
    63    59    58    2
    64    90    87    1
    65    90    91    1
    66    67    66    2
    67    87    86    1
    68    66    65    1
    69    58    57    1
    70    58    64   am
    71    57    56    1
    72    55    54    1
    73    54    53    1
    74    64    65    1
    75    36    37    1
    76    53    52    1
    77    42    40    1
    78    44    45    1
    79    44    38   am
    80    37    40    1
    81    37    38    1
    82    40    41    1
    83    45    46    1
    84    52    49    1
    85    47    46    2
    86    46    48   am
    87    38    39    2
    88    48    49    1
    89    49    50    1
    90    41    43    1
    91    50    51    2
