@<TRIPOS>MOLECULE
tmp/3ft8A00.pdb
 173 162 0 0 0
SMALL
GASTEIGER

@<TRIPOS>ATOM
      1  N         15.8460   18.8220   26.3430 N.3     7  PHE7       -0.1241
      2  CA        15.6600   17.4940   25.7550 C.3     7  PHE7        0.1605
      3  C         16.9540   16.6980   25.7920 C.2     7  PHE7        0.2264
      4  O         18.0370   17.2820   25.7870 O.2     7  PHE7       -0.2867
      5  CB        15.1950   17.5860   24.2940 C.3     7  PHE7        0.0534
      6  CG        13.7770   18.0070   24.1430 C.ar    7  PHE7       -0.0203
      7  CD1       12.7380   17.1790   24.5880 C.ar    7  PHE7       -0.0042
      8  CD2       13.4700   19.2200   23.5640 C.ar    7  PHE7       -0.0042
      9  CE1       11.4100   17.5610   24.4440 C.ar    7  PHE7       -0.0003
     10  CE2       12.1430   19.6200   23.4170 C.ar    7  PHE7       -0.0003
     11  CZ        11.1160   18.7900   23.8520 C.ar    7  PHE7       -0.0000
     12  N         -1.1000   11.5850   16.3750 N.3    33  LEU33      -0.1245
     13  CA        -1.6250   12.1080   17.6480 C.3    33  LEU33       0.1561
     14  C         -2.9400   11.4390   18.0340 C.2    33  LEU33       0.2260
     15  O         -3.1920   11.2000   19.2170 O.2    33  LEU33      -0.2867
     16  CB        -1.7360   13.6400   17.6180 C.3    33  LEU33       0.0270
     17  CG        -0.4110   14.3890   17.3180 C.3    33  LEU33       0.0019
     18  CD1       -0.6880   15.8400   16.9780 C.3    33  LEU33       0.0001
     19  CD2        0.5800   14.3110   18.4870 C.3    33  LEU33       0.0001
     20  N         -1.8900    8.1050   19.3720 N.3    36  ASN36      -0.1225
     21  CA        -1.5000    8.3440   20.7620 C.3    36  ASN36       0.1785
     22  C         -2.7110    8.4740   21.6900 C.2    36  ASN36       0.2597
     23  O         -2.6890    8.0150   22.8310 O.2    36  ASN36      -0.2718
     24  CB        -0.6460    9.6070   20.8520 C.3    36  ASN36       0.1169
     25  CG         0.6930    9.4340   20.2180 C.2    36  ASN36       0.2627
     26  OD1        1.0760    8.3020   19.8260 O.2    36  ASN36      -0.2716
     27  ND2        1.4650   10.5320   20.1530 N.am   36  ASN36      -0.0877
     28  N         -3.7680    9.0980   21.1930 N.am   37  SER37      -0.1952
     29  CA        -4.9500    9.3520   22.0030 C.3    37  SER37       0.1924
     30  C         -5.6900    8.0400   22.3140 C.2    37  SER37       0.2314
     31  O         -5.9880    7.7560   23.4540 O.2    37  SER37      -0.2863
     32  CB        -5.8600   10.3340   21.2760 C.3    37  SER37       0.2116
     33  OG        -5.4190   11.6680   21.4560 O.3    37  SER37      -0.2180
     34  N         -3.6610    5.8460   24.8500 N.3    40  ALA40      -0.1245
     35  CA        -3.9400    6.3870   26.2080 C.3    40  ALA40       0.1562
     36  C         -5.3350    6.0190   26.7340 C.2    40  ALA40       0.2260
     37  O         -5.5080    5.7850   27.9320 O.2    40  ALA40      -0.2867
     38  CB        -3.7550    7.9150   26.1900 C.3    40  ALA40       0.0290
     39  N         -5.4070    2.3640   27.6590 N.3    43  LYS43      -0.1245
     40  CA        -4.7210    2.1860   28.9470 C.3    43  LYS43       0.1561
     41  C         -5.5800    2.4760   30.1530 C.2    43  LYS43       0.2260
     42  O         -5.5690    1.7170   31.1320 O.2    43  LYS43      -0.2867
     43  CB        -3.4650    3.0520   29.0210 C.3    43  LYS43       0.0271
     44  CG        -2.3270    2.4950   28.1930 C.3    43  LYS43       0.0035
     45  CD        -1.1370    3.4320   28.1370 C.3    43  LYS43       0.0206
     46  CE        -0.4160    3.1750   26.8190 C.3    43  LYS43       0.1093
     47  NZ         0.8380    3.9420   26.7610 N.3    43  LYS43      -0.1314
     48  N         -8.0380   14.2380   24.4090 N.3    78  ASP78      -0.1239
     49  CA        -8.5370   12.9380   24.8410 C.3    78  ASP78       0.1674
     50  C         -8.8280   12.8890   26.3440 C.2    78  ASP78       0.2266
     51  O         -8.3110   13.7080   27.1180 O.2    78  ASP78      -0.2867
     52  CB        -7.6290   11.7600   24.3830 C.3    78  ASP78       0.1410
     53  CG        -6.2140   11.8250   24.9260 C.2    78  ASP78       0.3668
     54  OD1       -6.0180   11.4800   26.1000 O.co2  78  ASP78      -0.2456
     55  OD2       -5.2680   12.1500   24.1550 O.co2  78  ASP78      -0.2456
     56  N         -5.4210    8.2410   29.7720 N.3    81  ILE81      -0.1231
     57  CA        -4.7150    8.1030   31.0360 C.3    81  ILE81       0.1692
     58  C         -4.0200    9.3960   31.5410 C.2    81  ILE81       0.2593
     59  O         -3.8020    9.5490   32.7420 O.2    81  ILE81      -0.2718
     60  CB        -3.7230    6.8770   30.9700 C.3    81  ILE81       0.0266
     61  CG1       -3.1560    6.5030   32.3390 C.3    81  ILE81       0.0019
     62  CG2       -2.5700    7.1000   29.9730 C.3    81  ILE81       0.0020
     63  CD1       -3.9410    5.4430   33.0570 C.3    81  ILE81       0.0001
     64  N         -3.6310   10.2980   30.6340 N.am   82  GLY82      -0.1942
     65  CA        -2.8470   11.4790   31.0480 C.3    82  GLY82       0.2014
     66  C         -1.3860   11.1260   31.2970 C.2    82  GLY82       0.2638
     67  O         -0.9800    9.9480   31.1490 O.2    82  GLY82      -0.2714
     68  N         -0.5950   12.1370   31.6740 N.am   83  MET83      -0.1976
     69  CA         0.8250   11.9340   31.9700 C.3    83  MET83       0.1605
     70  C          1.1860   12.5530   33.3140 C.2    83  MET83       0.2287
     71  O          0.7200   13.6580   33.6480 O.2    83  MET83      -0.2864
     72  CB         1.6960   12.5630   30.8560 C.3    83  MET83       0.0413
     73  CG         1.6010   11.8670   29.4900 C.3    83  MET83       0.0598
     74  SD         2.4300   12.7610   28.1400 S.3    83  MET83      -0.1393
     75  CE         1.0960   13.9010   27.7230 C.3    83  MET83       0.0692
     76  N          6.5870   11.1460   33.9670 N.3    87  ASP87      -0.1225
     77  CA         6.4380   10.9560   32.5260 C.3    87  ASP87       0.1805
     78  C          7.0700   12.1140   31.7810 C.2    87  ASP87       0.2597
     79  O          7.9770   11.9210   30.9650 O.2    87  ASP87      -0.2718
     80  CB         4.9630   10.8840   32.1170 C.3    87  ASP87       0.1424
     81  CG         4.3470    9.5100   32.3340 C.2    87  ASP87       0.3668
     82  OD1        5.1140    8.5100   32.4140 O.co2  87  ASP87      -0.2456
     83  OD2        3.0940    9.4450   32.4340 O.co2  87  ASP87      -0.2456
     84  N          6.5800   13.3270   32.0650 N.am   88  LEU88      -0.1979
     85  CA         6.9550   14.5340   31.3050 C.3    88  LEU88       0.1596
     86  C          8.4570   14.8850   31.3360 C.2    88  LEU88       0.2287
     87  O          9.0150   15.2950   30.3200 O.2    88  LEU88      -0.2864
     88  CB         6.1280   15.7400   31.7720 C.3    88  LEU88       0.0297
     89  CG         4.6400   15.7010   31.4560 C.3    88  LEU88       0.0022
     90  CD1        3.9500   16.8840   32.1710 C.3    88  LEU88       0.0001
     91  CD2        4.3830   15.6910   29.9380 C.3    88  LEU88       0.0001
     92  N          9.3270    9.5200   29.6710 N.3    92  LEU92      -0.1245
     93  CA         9.0890    9.5150   28.2040 C.3    92  LEU92       0.1561
     94  C         10.3220    9.8520   27.3770 C.2    92  LEU92       0.2260
     95  O         10.4590    9.4160   26.2410 O.2    92  LEU92      -0.2867
     96  CB         7.8880   10.4030   27.8120 C.3    92  LEU92       0.0270
     97  CG         6.5970   10.0360   28.5600 C.3    92  LEU92       0.0019
     98  CD1        5.5380   11.0950   28.4070 C.3    92  LEU92       0.0001
     99  CD2        6.0950    8.6400   28.1040 C.3    92  LEU92       0.0001
    100  N         11.9370    7.5860   24.4770 N.3    96  ALA96      -0.1245
    101  CA        12.1110    8.2420   23.1670 C.3    96  ALA96       0.1562
    102  C         13.5420    8.2410   22.6300 C.2    96  ALA96       0.2260
    103  O         13.7640    8.3920   21.4260 O.2    96  ALA96      -0.2867
    104  CB        11.5340    9.6400   23.1800 C.3    96  ALA96       0.0290
    105  N          7.6270    4.6670   17.9250 N.3   120  GLY120     -0.1210
    106  CA         7.0330    5.0880   19.1890 C.3   120  GLY120      0.1956
    107  C          7.3230    6.5180   19.6110 C.2   120  GLY120      0.2611
    108  O          7.1380    6.9030   20.7930 O.2   120  GLY120     -0.2717
    109  N          7.7720    7.2990   18.6390 N.am  121  VAL121     -0.1979
    110  CA         8.0780    8.7000   18.8060 C.3   121  VAL121      0.1595
    111  C          7.2330    9.5770   17.8570 C.2   121  VAL121      0.2287
    112  O          7.6730   10.6480   17.4900 O.2   121  VAL121     -0.2864
    113  CB         9.5960    8.9690   18.5710 C.3   121  VAL121      0.0276
    114  CG1       10.4290    8.3380   19.6640 C.3   121  VAL121      0.0022
    115  CG2       10.0610    8.4620   17.1940 C.3   121  VAL121      0.0022
    116  N          4.5780   11.3600   18.4450 N.3   123  PHE123     -0.1227
    117  CA         4.2080   12.6670   19.0240 C.3   123  PHE123      0.1736
    118  C          4.9960   13.8050   18.3640 C.2   123  PHE123      0.2595
    119  O          4.4590   14.8800   18.0980 O.2   123  PHE123     -0.2718
    120  CB         4.4270   12.6700   20.5400 C.3   123  PHE123      0.0547
    121  CG         4.3970   14.0510   21.1670 C.ar  123  PHE123     -0.0202
    122  CD1        3.1920   14.6750   21.4580 C.ar  123  PHE123     -0.0042
    123  CD2        5.5890   14.7060   21.5040 C.ar  123  PHE123     -0.0042
    124  CE1        3.1530   15.9370   22.0480 C.ar  123  PHE123     -0.0003
    125  CE2        5.5570   15.9830   22.0960 C.ar  123  PHE123     -0.0003
    126  CZ         4.3230   16.5920   22.3580 C.ar  123  PHE123     -0.0000
    127  N          6.2650   13.5550   18.0700 N.am  124  TYR124     -0.1976
    128  CA         7.1350   14.6130   17.5630 C.3   124  TYR124      0.1639
    129  C          6.8380   15.0340   16.1320 C.2   124  TYR124      0.2290
    130  O          7.2890   16.0790   15.7140 O.2   124  TYR124     -0.2864
    131  CB         8.6030   14.2610   17.7590 C.3   124  TYR124      0.0560
    132  CG         8.9580   14.2800   19.2180 C.ar  124  TYR124     -0.0198
    133  CD1        9.0390   15.4960   19.9210 C.ar  124  TYR124     -0.0009
    134  CD2        9.1610   13.0930   19.9160 C.ar  124  TYR124     -0.0009
    135  CE1        9.3310   15.5160   21.2910 C.ar  124  TYR124      0.0417
    136  CE2        9.4520   13.1090   21.2980 C.ar  124  TYR124      0.0417
    137  CZ         9.5400   14.3220   21.9610 C.ar  124  TYR124      0.1957
    138  OH         9.8240   14.3400   23.3070 O.3   124  TYR124     -0.2866
    139  N          1.0900   21.1990   25.6520 N.3   135  VAL135     -0.1245
    140  CA         0.3710   19.9800   26.0990 C.3   135  VAL135      0.1561
    141  C         -0.1710   20.1700   27.5160 C.2   135  VAL135      0.2260
    142  O          0.6150   20.3900   28.4480 O.2   135  VAL135     -0.2867
    143  CB         1.2680   18.7010   25.9760 C.3   135  VAL135      0.0252
    144  CG1        0.5950   17.4680   26.5880 C.3   135  VAL135      0.0019
    145  CG2        1.6560   18.4510   24.5190 C.3   135  VAL135      0.0019
    146  N          2.9210   21.4680   29.6540 N.3   147  TRP147     -0.1241
    147  CA         4.2170   21.2240   28.9710 C.3   147  TRP147      0.1605
    148  C          4.2310   22.0640   27.7000 C.2   147  TRP147      0.2264
    149  O          3.1940   22.2160   27.0420 O.2   147  TRP147     -0.2867
    150  CB         4.3140   19.6980   28.6310 C.3   147  TRP147      0.0550
    151  CG         5.5260   19.2170   27.8410 C.ar  147  TRP147      0.0003
    152  CD1        6.6210   18.5540   28.3450 C.ar  147  TRP147      0.0946
    153  CD2        5.7390   19.3150   26.4000 C.ar  147  TRP147      0.0152
    154  NE1        7.5040   18.2580   27.3130 N.ar  147  TRP147     -0.2442
    155  CE2        6.9810   18.7070   26.1190 C.ar  147  TRP147      0.0810
    156  CE3        4.9760   19.8380   25.3270 C.ar  147  TRP147      0.0012
    157  CZ2        7.5110   18.6100   24.7990 C.ar  147  TRP147      0.0191
    158  CZ3        5.5150   19.7650   23.9970 C.ar  147  TRP147      0.0001
    159  CH2        6.7630   19.1480   23.7600 C.ar  147  TRP147      0.0015
    160  N         -5.4690   14.4110   28.1580 N.3   167  THR167     -0.1218
    161  CA        -4.4130   15.1770   27.4920 C.3   167  THR167      0.1862
    162  C         -5.0140   16.0620   26.4180 C.2   167  THR167      0.2287
    163  O         -5.9080   15.6510   25.6570 O.2   167  THR167     -0.2866
    164  CB        -3.3620   14.2550   26.8790 C.3   167  THR167      0.1770
    165  OG1       -2.8240   13.4100   27.9040 O.3   167  THR167     -0.2211
    166  CG2       -2.1870   15.0330   26.1920 C.3   167  THR167      0.0375
    167  N         -3.3500   18.2160   23.3310 N.3   169  VAL169     -0.1245
    168  CA        -2.2000   18.6480   22.5150 C.3   169  VAL169      0.1561
    169  C         -2.6100   19.8540   21.6600 C.2   169  VAL169      0.2260
    170  O         -3.4360   19.7350   20.7550 O.2   169  VAL169     -0.2867
    171  CB        -1.6480   17.5040   21.5810 C.3   169  VAL169      0.0252
    172  CG1       -0.5290   18.0310   20.6120 C.3   169  VAL169      0.0019
    173  CG2       -1.1500   16.3130   22.4420 C.3   169  VAL169      0.0019
@<TRIPOS>BOND
     1   130   129    2
     2   129   128    1
     3    12    13    1
     4    18    17    1
     5   115   113    1
     6    17    16    1
     7    17    19    1
     8   112   111    2
     9   128   131    1
    10   128   127    1
    11    16    13    1
    12    13    14    1
    13   131   132    1
    14   111   110    1
    15   105   106    1
    16    14    15    2
    17   127   118   am
    18   119   118    2
    19   118   117    1
    20   116   117    1
    21   113   110    1
    22   113   114    1
    23   109   110    1
    24   109   107   am
    25   117   120    1
    26   106   107    1
    27   132   134   ar
    28   132   133   ar
    29    20    21    1
    30   107   108    2
    31    26    25    2
    32   134   136   ar
    33   133   135   ar
    34    27    25   am
    35    25    24    1
    36   120   121    1
    37   172   171    1
    38   170   169    2
    39    21    24    1
    40    21    22    1
    41   121   122   ar
    42   121   123   ar
    43    28    22   am
    44    28    29    1
    45    32    33    1
    46    32    29    1
    47   135   137   ar
    48   136   137   ar
    49   103   102    2
    50   122   124   ar
    51   123   125   ar
    52   171   173    1
    53   171   168    1
    54   169   168    1
    55    22    23    2
    56   137   138    1
    57    29    30    1
    58   124   126   ar
    59   125   126   ar
    60    30    31    2
    61   168   167    1
    62   102   101    1
    63   101   104    1
    64   101   100    1
    65    10     8   ar
    66    10    11   ar
    67     8     6   ar
    68   159   158   ar
    69   159   157   ar
    70    11     9   ar
    71   158   156   ar
    72     6     5    1
    73     6     7   ar
    74    55    53   ar
    75     5     2    1
    76    52    49    1
    77    52    53    1
    78    48    49    1
    79     9     7   ar
    80   145   143    1
    81   157   155   ar
    82    49    50    1
    83    34    35    1
    84    53    54   ar
    85   156   153   ar
    86   139   140    1
    87   163   162    2
    88     2     3    1
    89     2     1    1
    90     4     3    2
    91   143   140    1
    92   143   144    1
    93   140   141    1
    94   155   153   ar
    95   155   154   ar
    96    38    35    1
    97   166   164    1
    98    35    36    1
    99    95    94    2
   100    50    51    2
   101   153   151   ar
   102   162   161    1
   103    36    37    2
   104    47    46    1
   105    46    45    1
   106   164   161    1
   107   164   165    1
   108   149   148    2
   109   154   152   ar
   110    94    93    1
   111   161   160    1
   112   141   142    2
   113    39    40    1
   114   148   147    1
   115    75    74    1
   116    96    93    1
   117    96    97    1
   118   151   152   ar
   119   151   150    1
   120    99    97    1
   121    45    44    1
   122    74    73    1
   123    44    43    1
   124    93    92    1
   125    98    97    1
   126   150   147    1
   127    40    43    1
   128    40    41    1
   129   147   146    1
   130    73    72    1
   131    56    57    1
   132    91    89    1
   133    62    60    1
   134    41    42    2
   135    87    86    2
   136    64    65    1
   137    64    58   am
   138    72    69    1
   139    79    78    2
   140    60    57    1
   141    60    61    1
   142    57    58    1
   143    65    66    1
   144    67    66    2
   145    66    68   am
   146    85    86    1
   147    85    88    1
   148    85    84    1
   149    89    88    1
   150    89    90    1
   151    58    59    2
   152    68    69    1
   153    78    84   am
   154    78    77    1
   155    69    70    1
   156    80    81    1
   157    80    77    1
   158    81    82   ar
   159    81    83   ar
   160    61    63    1
   161    77    76    1
   162    70    71    2
