@<TRIPOS>MOLECULE
tmp/3ftqA00.pdb
 156 148 0 0 0
SMALL
GASTEIGER

@<TRIPOS>ATOM
      1  N         32.0850   14.9220    8.2720 N.3    13  SER13      -0.1202
      2  CA        33.2030   14.4610    7.4650 C.3    13  SER13       0.2020
      3  C         33.5030   12.9870    7.7370 C.2    13  SER13       0.2619
      4  O         33.2820   12.5020    8.8480 O.2    13  SER13      -0.2717
      5  CB        34.4300   15.3120    7.7580 C.3    13  SER13       0.2103
      6  OG        35.5210   14.9110    6.9420 O.3    13  SER13      -0.2182
      7  N         33.9900   12.2770    6.7150 N.am   14  GLY14      -0.1942
      8  CA        34.3540   10.8640    6.8390 C.3    14  GLY14       0.2014
      9  C         33.1950    9.8880    6.9800 C.2    14  GLY14       0.2639
     10  O         33.3670    8.7870    7.5110 O.2    14  GLY14      -0.2714
     11  N         32.0110   10.2770    6.5160 N.am   15  LEU15      -0.1963
     12  CA        30.8560    9.3910    6.5550 C.3    15  LEU15       0.1728
     13  C         30.5710    8.6990    5.2160 C.2    15  LEU15       0.2617
     14  O         29.5330    8.0650    5.0490 O.2    15  LEU15      -0.2715
     15  CB        29.6180   10.1340    7.0520 C.3    15  LEU15       0.0311
     16  CG        29.5810   10.5520    8.5220 C.3    15  LEU15       0.0022
     17  CD1       28.2390   11.1740    8.8320 C.3    15  LEU15       0.0001
     18  CD2       29.8650    9.3650    9.4700 C.3    15  LEU15       0.0001
     19  N         31.4970    8.8120    4.2700 N.am   16  GLY16      -0.1940
     20  CA        31.3750    8.1080    3.0000 C.3    16  GLY16       0.2014
     21  C         30.4700    8.8010    2.0000 C.2    16  GLY16       0.2639
     22  O         29.9210    8.1660    1.1010 O.2    16  GLY16      -0.2714
     23  N         30.3210   10.1140    2.1490 N.am   17  LYS17      -0.1963
     24  CA        29.4120   10.9050    1.3070 C.3    17  LYS17       0.1728
     25  C         29.8420   10.8800   -0.1570 C.2    17  LYS17       0.2617
     26  O         29.0550   10.5010   -1.0220 O.2    17  LYS17      -0.2715
     27  CB        29.3470   12.3420    1.7920 C.3    17  LYS17       0.0311
     28  CG        28.6920   12.5190    3.1310 C.3    17  LYS17       0.0038
     29  CD        28.4240   14.0030    3.4150 C.3    17  LYS17       0.0206
     30  CE        29.7020   14.8210    3.5630 C.3    17  LYS17       0.1093
     31  NZ        30.4810   14.4850    4.7880 N.3    17  LYS17      -0.1314
     32  N         31.0890   11.2740   -0.4290 N.am   18  SER18      -0.1936
     33  CA        31.6130   11.2750   -1.7920 C.3    18  SER18       0.2055
     34  C         31.5820    9.8820   -2.3900 C.2    18  SER18       0.2643
     35  O         31.2810    9.7350   -3.5630 O.2    18  SER18      -0.2714
     36  CB        33.0310   11.8190   -1.8380 C.3    18  SER18       0.2130
     37  OG        33.0990   13.0920   -1.2200 O.3    18  SER18      -0.2179
     38  N         31.8720    8.8630   -1.5840 N.am   19  THR19      -0.1950
     39  CA        31.9130    7.4960   -2.0810 C.3    19  THR19       0.1897
     40  C         30.5290    7.0890   -2.5650 C.2    19  THR19       0.2313
     41  O         30.4050    6.4560   -3.6130 O.2    19  THR19      -0.2863
     42  CB        32.4230    6.4810   -1.0100 C.3    19  THR19       0.1794
     43  OG1       33.7280    6.8570   -0.5480 O.3    19  THR19      -0.2208
     44  CG2       32.4960    5.0700   -1.5790 C.3    19  THR19       0.0378
     45  N         39.7800    9.1430   -5.2370 N.3    27  ILE27      -0.1231
     46  CA        38.7480    9.6660   -4.3490 C.3    27  ILE27       0.1692
     47  C         39.0060   10.4360   -3.0570 C.2    27  ILE27       0.2592
     48  O         38.5140   10.0610   -1.9920 O.2    27  ILE27      -0.2718
     49  CB        37.7940    8.5220   -3.9510 C.3    27  ILE27       0.0266
     50  CG1       36.4160    9.0790   -3.5900 C.3    27  ILE27       0.0019
     51  CG2       38.3730    7.7250   -2.7920 C.3    27  ILE27       0.0020
     52  CD1       35.8520    8.5230   -2.3000 C.3    27  ILE27       0.0001
     53  N         39.7740   11.5170   -3.1560 N.am   28  GLU28      -0.1966
     54  CA        40.0200   12.3870   -2.0050 C.3    28  GLU28       0.1733
     55  C         38.9900   13.1340   -1.1540 C.2    28  GLU28       0.2616
     56  O         37.8300   13.3050   -1.5390 O.2    28  GLU28      -0.2715
     57  CB        41.0250   13.4280   -2.5140 C.3    28  GLU28       0.0429
     58  CG        42.1430   12.8540   -3.3670 C.3    28  GLU28       0.1163
     59  CD        42.6070   13.8130   -4.4590 C.2    28  GLU28       0.3649
     60  OE1       41.7860   14.6390   -4.9350 O.co2  28  GLU28      -0.2457
     61  OE2       43.7970   13.7290   -4.8480 O.co2  28  GLU28      -0.2457
     62  N         39.4440   13.5720    0.0120 N.am   29  ARG29      -0.1963
     63  CA        38.6690   14.4180    0.8880 C.3    29  ARG29       0.1729
     64  C         38.1030   15.6360    0.1480 C.2    29  ARG29       0.2616
     65  O         38.8440   16.3410   -0.5420 O.2    29  ARG29      -0.2715
     66  CB        39.5470   14.8590    2.0540 C.3    29  ARG29       0.0348
     67  CG        39.0890   16.1290    2.6990 C.3    29  ARG29       0.0492
     68  CD        40.0550   16.5970    3.7280 C.3    29  ARG29       0.2205
     69  NE        39.3240   17.0320    4.9070 N.pl3  29  ARG29      -0.0865
     70  CZ        39.8550   17.1350    6.1170 C.cat  29  ARG29       0.5346
     71  NH1       41.1440   16.8450    6.3140 N.pl3  29  ARG29       0.1354
     72  NH2       39.0900   17.5250    7.1290 N.pl3  29  ARG29       0.1354
     73  N         36.8010   15.8770    0.2980 N.am   30  THR30      -0.1951
     74  CA        36.1280   16.9910   -0.3680 C.3    30  THR30       0.1897
     75  C         36.4000   18.3040    0.3570 C.2    30  THR30       0.2313
     76  O         36.0480   18.4480    1.5150 O.2    30  THR30      -0.2863
     77  CB        34.6110   16.7560   -0.4320 C.3    30  THR30       0.1794
     78  OG1       34.3530   15.3850   -0.7580 O.3    30  THR30      -0.2208
     79  CG2       33.9650   17.6460   -1.4760 C.3    30  THR30       0.0378
     80  N         28.3130   17.7020   -4.0590 N.3    53  ASP53      -0.1225
     81  CA        29.0930   17.1930   -2.9580 C.3    53  ASP53       0.1805
     82  C         29.5470   18.3610   -2.0930 C.2    53  ASP53       0.2598
     83  O         29.9130   19.4260   -2.5940 O.2    53  ASP53      -0.2718
     84  CB        30.2980   16.4280   -3.4910 C.3    53  ASP53       0.1424
     85  CG        30.8690   15.4430   -2.4830 C.2    53  ASP53       0.3668
     86  OD1       30.4930   15.4840   -1.2900 O.co2  53  ASP53      -0.2456
     87  OD2       31.7130   14.6220   -2.8950 O.co2  53  ASP53      -0.2456
     88  N         29.5080   18.1570   -0.7850 N.am   54  THR54      -0.1953
     89  CA        29.8910   19.1930    0.1600 C.3    54  THR54       0.1897
     90  C         30.9660   18.6590    1.1020 C.2    54  THR54       0.2313
     91  O         30.9930   17.4610    1.3810 O.2    54  THR54      -0.2863
     92  CB        28.6860   19.6780    0.9690 C.3    54  THR54       0.1794
     93  OG1       28.2220   18.6230    1.8170 O.3    54  THR54      -0.2208
     94  CG2       27.5540   20.1060    0.0410 C.3    54  THR54       0.0378
     95  N         32.3300   17.8290    4.6120 N.3    56  GLY56      -0.1225
     96  CA        31.7260   17.5130    5.9080 C.3    56  GLY56       0.1811
     97  C         32.3640   18.2670    7.0560 C.2    56  GLY56       0.2280
     98  O         33.4960   18.7460    6.9370 O.2    56  GLY56      -0.2866
     99  N         27.6970    4.5190    6.3000 N.3   134  LYS134     -0.1245
    100  CA        28.5650    3.3740    6.5810 C.3   134  LYS134      0.1561
    101  C         27.8570    2.2880    7.3950 C.2   134  LYS134      0.2260
    102  O         28.3180    1.8860    8.4640 O.2   134  LYS134     -0.2867
    103  CB        29.8520    3.8590    7.2720 C.3   134  LYS134      0.0271
    104  CG        30.6620    4.8360    6.4210 C.3   134  LYS134      0.0035
    105  CD        32.0330    5.0720    6.9860 C.3   134  LYS134      0.0206
    106  CE        32.8180    6.0340    6.1360 C.3   134  LYS134      0.1093
    107  NZ        34.1940    6.2760    6.6550 N.3   134  LYS134     -0.1314
    108  N         27.6080   -0.7760    7.0950 N.3   136  ASP136     -0.1225
    109  CA        28.3500   -2.0220    7.3130 C.3   136  ASP136      0.1805
    110  C         29.0740   -2.0570    8.6700 C.2   136  ASP136      0.2598
    111  O         29.7370   -3.0380    9.0130 O.2   136  ASP136     -0.2718
    112  CB        29.3200   -2.2980    6.1610 C.3   136  ASP136      0.1424
    113  CG        30.2460   -1.1320    5.8760 C.2   136  ASP136      0.3668
    114  OD1       29.9880    0.0040    6.3340 O.co2 136  ASP136     -0.2456
    115  OD2       31.2470   -1.3530    5.1750 O.co2 136  ASP136     -0.2456
    116  N         28.9400   -0.9780    9.4340 N.am  137  THR137     -0.1953
    117  CA        29.4710   -0.9130   10.7870 C.3   137  THR137      0.1897
    118  C         28.3690   -1.3050   11.7720 C.2   137  THR137      0.2313
    119  O         28.5890   -1.3720   12.9840 O.2   137  THR137     -0.2863
    120  CB        30.0060    0.5100   11.1160 C.3   137  THR137      0.1794
    121  OG1       28.9350    1.3610   11.5450 O.3   137  THR137     -0.2208
    122  CG2       30.6590    1.1280    9.8930 C.3   137  THR137      0.0378
    123  N         25.5920    1.7650    2.3130 N.3   189  VAL189     -0.1231
    124  CA        26.9970    1.4330    2.1790 C.3   189  VAL189      0.1692
    125  C         27.4330    1.8720    0.7790 C.2   189  VAL189      0.2592
    126  O         26.7310    1.6180   -0.2010 O.2   189  VAL189     -0.2718
    127  CB        27.2320   -0.0900    2.3380 C.3   189  VAL189      0.0266
    128  CG1       28.7000   -0.4440    2.1290 C.3   189  VAL189      0.0020
    129  CG2       26.7770   -0.5610    3.6960 C.3   189  VAL189      0.0020
    130  N         28.5820    2.5330    0.6800 N.am  190  GLY190     -0.1957
    131  CA        29.1090    2.9430   -0.6140 C.3   190  GLY190      0.1869
    132  C         30.4570    2.3190   -0.8890 C.2   190  GLY190      0.2309
    133  O         31.2190    2.0430    0.0390 O.2   190  GLY190     -0.2863
    134  N         32.9150   -4.3550   -0.8430 N.3   205  ARG205     -0.1245
    135  CA        33.6400   -4.1330    0.4150 C.3   205  ARG205      0.1563
    136  C         34.2240   -5.4600    0.8910 C.2   205  ARG205      0.2260
    137  O         33.5100   -6.3300    1.4080 O.2   205  ARG205     -0.2867
    138  CB        32.8800   -3.4340    1.5440 C.3   205  ARG205      0.0307
    139  CG        32.9000   -1.9280    1.4300 C.3   205  ARG205      0.0489
    140  CD        32.8200   -1.2470    2.7810 C.3   205  ARG205      0.2205
    141  NE        33.7210   -0.1060    2.7990 N.pl3 205  ARG205     -0.0865
    142  CZ        34.8040    0.0060    3.5590 C.cat 205  ARG205      0.5346
    143  NH1       35.1380   -0.9240    4.4430 N.pl3 205  ARG205      0.1354
    144  NH2       35.5480    1.0860    3.4530 N.pl3 205  ARG205      0.1354
    145  N         36.1940   -7.5160    3.3270 N.3   207  TYR207     -0.1241
    146  CA        36.7350   -7.8010    4.6610 C.3   207  TYR207      0.1605
    147  C         37.1840   -9.2690    4.7510 C.2   207  TYR207      0.2264
    148  O         36.6390  -10.1200    4.0540 O.2   207  TYR207     -0.2867
    149  CB        35.6710   -7.5580    5.7350 C.3   207  TYR207      0.0534
    150  CG        35.1630   -6.1370    5.8570 C.ar  207  TYR207     -0.0201
    151  CD1       36.0240   -5.0870    6.1820 C.ar  207  TYR207     -0.0009
    152  CD2       33.8130   -5.8510    5.6910 C.ar  207  TYR207     -0.0009
    153  CE1       35.5520   -3.7850    6.3080 C.ar  207  TYR207      0.0417
    154  CE2       33.3360   -4.5560    5.8100 C.ar  207  TYR207      0.0417
    155  CZ        34.2060   -3.5290    6.1190 C.ar  207  TYR207      0.1957
    156  OH        33.7280   -2.2510    6.2410 O.3   207  TYR207     -0.2866
@<TRIPOS>BOND
     1    45    46    1
     2    60    59   ar
     3    61    59   ar
     4    59    58    1
     5    46    49    1
     6    46    47    1
     7    80    81    1
     8    49    50    1
     9    49    51    1
    10    41    40    2
    11    50    52    1
    12    35    34    2
    13    84    81    1
    14    84    85    1
    15    58    57    1
    16    53    47   am
    17    53    54    1
    18    47    48    2
    19    81    82    1
    20    87    85   ar
    21    83    82    2
    22    40    39    1
    23    57    54    1
    24    85    86   ar
    25    34    33    1
    26    34    38   am
    27    82    88   am
    28    39    38    1
    29    39    42    1
    30    54    55    1
    31    36    33    1
    32    36    37    1
    33    33    32    1
    34    44    42    1
    35    56    55    2
    36    79    77    1
    37    55    62   am
    38    26    25    2
    39    42    43    1
    40   132   131    1
    41   132   133    2
    42   134   135    1
    43    88    89    1
    44    78    77    1
    45   131   130    1
    46    65    64    2
    47    77    74    1
    48    32    25   am
    49    74    73    1
    50    74    75    1
    51   126   125    2
    52    25    24    1
    53    62    63    1
    54    94    92    1
    55    64    73   am
    56    64    63    1
    57    89    92    1
    58    89    90    1
    59    75    76    2
    60   135   136    1
    61   135   138    1
    62   130   125   am
    63   125   124    1
    64    63    66    1
    65   136   137    2
    66    92    93    1
    67    22    21    2
    68    90    91    2
    69    24    27    1
    70    24    23    1
    71   139   138    1
    72   139   140    1
    73    27    28    1
    74    21    23   am
    75    21    20    1
    76    66    67    1
    77   128   127    1
    78   124   123    1
    79   124   127    1
    80   127   129    1
    81    67    68    1
    82   140   141    1
    83   141   142    2
    84    20    19    1
    85    28    29    1
    86   145   146    1
    87    29    30    1
    88   144   142    1
    89   142   143    1
    90    30    31    1
    91    68    69    1
    92   148   147    2
    93    19    13   am
    94    95    96    1
    95   146   147    1
    96   146   149    1
    97    69    70    2
    98    14    13    2
    99   115   113   ar
   100    13    12    1
   101   152   154   ar
   102   152   150   ar
   103   149   150    1
   104   154   155   ar
   105   150   151   ar
   106   113   112    1
   107   113   114   ar
   108    96    97    1
   109    70    71    1
   110    70    72    1
   111   155   156    1
   112   155   153   ar
   113   106   107    1
   114   106   105    1
   115   112   109    1
   116   151   153   ar
   117    99   100    1
   118   104   105    1
   119   104   103    1
   120    11    12    1
   121    11     9   am
   122    12    15    1
   123   100   103    1
   124   100   101    1
   125     7     8    1
   126     7     3   am
   127     8     9    1
   128    98    97    2
   129     6     5    1
   130     9    10    2
   131    15    16    1
   132   108   109    1
   133   109   110    1
   134   101   102    2
   135     2     3    1
   136     2     5    1
   137     2     1    1
   138     3     4    2
   139    16    17    1
   140    16    18    1
   141   110   111    2
   142   110   116   am
   143   116   117    1
   144   122   120    1
   145   117   120    1
   146   117   118    1
   147   120   121    1
   148   118   119    2
