@<TRIPOS>MOLECULE
tmp/3ftvA00.pdb
 160 158 0 0 0
SMALL
GASTEIGER

@<TRIPOS>ATOM
      1  N        -32.5450    3.2070   -3.7790 N.3   133  GLN133     -0.1231
      2  CA       -31.6490    2.8650   -2.6950 C.3   133  GLN133      0.1698
      3  C        -30.4340    2.1390   -3.2960 C.2   133  GLN133      0.2592
      4  O        -30.6220    1.2250   -4.1010 O.2   133  GLN133     -0.2718
      5  CB       -32.3730    2.0080   -1.6460 C.3   133  GLN133      0.0381
      6  CG       -31.7500    2.1440   -0.2750 C.3   133  GLN133      0.0905
      7  CD       -32.4030    1.2570    0.7870 C.2   133  GLN133      0.2608
      8  OE1      -32.7180    0.1040    0.5400 O.2   133  GLN133     -0.2717
      9  NE2      -32.5170    1.7750    1.9830 N.am  133  GLN133     -0.0878
     10  N        -29.2050    2.5220   -2.9260 N.am  134  ALA134     -0.1980
     11  CA       -28.9090    3.5600   -1.9210 C.3   134  ALA134      0.1597
     12  C        -28.7580    4.9290   -2.5700 C.2   134  ALA134      0.2287
     13  O        -29.3180    5.9180   -2.0860 O.2   134  ALA134     -0.2864
     14  CB       -27.5950    3.2130   -1.1930 C.3   134  ALA134      0.0319
     15  N        -34.9160   -6.5750   -5.6500 N.3   264  TYR264     -0.1241
     16  CA       -34.9040   -6.9240   -4.2210 C.3   264  TYR264      0.1605
     17  C        -36.2430   -7.5650   -3.8030 C.2   264  TYR264      0.2264
     18  O        -37.2370   -7.4870   -4.5400 O.2   264  TYR264     -0.2867
     19  CB       -34.6320   -5.6770   -3.3740 C.3   264  TYR264      0.0534
     20  CG       -33.2690   -5.0560   -3.6340 C.ar  264  TYR264     -0.0201
     21  CD1      -32.1260   -5.5810   -3.0340 C.ar  264  TYR264     -0.0009
     22  CD2      -33.1240   -3.9610   -4.4820 C.ar  264  TYR264     -0.0009
     23  CE1      -30.8730   -5.0380   -3.2740 C.ar  264  TYR264      0.0417
     24  CE2      -31.8520   -3.3970   -4.7160 C.ar  264  TYR264      0.0417
     25  CZ       -30.7460   -3.9340   -4.1050 C.ar  264  TYR264      0.1957
     26  OH       -29.4770   -3.3910   -4.3180 O.3   264  TYR264     -0.2866
     27  N        -38.9870   -3.0490   -1.1680 N.3   267  MET267     -0.1245
     28  CA       -38.4000   -1.7500   -0.9350 C.3   267  MET267      0.1570
     29  C        -39.4860   -0.9020   -0.2880 C.2   267  MET267      0.2261
     30  O        -40.6120   -0.8170   -0.7840 O.2   267  MET267     -0.2867
     31  CB       -37.8810   -1.1320   -2.2480 C.3   267  MET267      0.0387
     32  CG       -37.2940    0.2440   -2.1010 C.3   267  MET267      0.0595
     33  SD       -35.8030    0.1510   -1.0950 S.3   267  MET267     -0.1393
     34  CE       -34.9600   -1.2740   -1.7510 C.3   267  MET267      0.0692
     35  N        -24.6460    5.9380    4.6500 N.3   308  TRP308     -0.1227
     36  CA       -24.8290    4.5090    4.3750 C.3   308  TRP308      0.1737
     37  C        -23.8990    3.6290    5.2180 C.2   308  TRP308      0.2595
     38  O        -24.0980    2.4190    5.3030 O.2   308  TRP308     -0.2718
     39  CB       -24.6960    4.2580    2.8590 C.3   308  TRP308      0.0564
     40  CG       -25.8380    4.9370    2.1250 C.ar  308  TRP308      0.0003
     41  CD1      -25.7650    6.0450    1.3030 C.ar  308  TRP308      0.0946
     42  CD2      -27.2220    4.6010    2.2200 C.ar  308  TRP308      0.0152
     43  NE1      -27.0300    6.3830    0.8650 N.ar  308  TRP308     -0.2442
     44  CE2      -27.9370    5.5110    1.4050 C.ar  308  TRP308      0.0810
     45  CE3      -27.9270    3.5980    2.8900 C.ar  308  TRP308      0.0012
     46  CZ2      -29.3180    5.4620    1.2630 C.ar  308  TRP308      0.0191
     47  CZ3      -29.3120    3.5280    2.7320 C.ar  308  TRP308      0.0001
     48  CH2      -29.9970    4.4700    1.9220 C.ar  308  TRP308      0.0015
     49  N        -22.9090    4.2360    5.8690 N.am  309  ASP309     -0.1974
     50  CA       -22.0270    3.4770    6.7540 C.3   309  ASP309      0.1709
     51  C        -22.8720    2.9440    7.9230 C.2   309  ASP309      0.2293
     52  O        -22.5090    1.9590    8.5710 O.2   309  ASP309     -0.2864
     53  CB       -20.9110    4.3640    7.3280 C.3   309  ASP309      0.1436
     54  CG       -19.8900    4.8010    6.2970 C.2   309  ASP309      0.3671
     55  OD1      -19.8730    4.3180    5.1400 O.co2 309  ASP309     -0.2456
     56  OD2      -19.0680    5.6590    6.6740 O.co2 309  ASP309     -0.2456
     57  N        -26.1040    1.9170    7.7680 N.3   311  PHE311     -0.1227
     58  CA       -27.2440    1.1960    7.1800 C.3   311  PHE311      0.1736
     59  C        -27.8200    0.1330    8.1150 C.2   311  PHE311      0.2595
     60  O        -29.0380   -0.0770    8.1600 O.2   311  PHE311     -0.2718
     61  CB       -26.7930    0.5860    5.8580 C.3   311  PHE311      0.0547
     62  CG       -27.8440   -0.2160    5.1430 C.ar  311  PHE311     -0.0202
     63  CD1      -29.0670    0.3510    4.7960 C.ar  311  PHE311     -0.0042
     64  CD2      -27.5760   -1.5300    4.7770 C.ar  311  PHE311     -0.0042
     65  CE1      -30.0270   -0.3890    4.1030 C.ar  311  PHE311     -0.0003
     66  CE2      -28.5160   -2.2830    4.0780 C.ar  311  PHE311     -0.0003
     67  CZ       -29.7350   -1.7270    3.7530 C.ar  311  PHE311     -0.0000
     68  N        -26.9570   -0.5340    8.8820 N.am  312  TRP312     -0.1976
     69  CA       -27.4270   -1.5220    9.8710 C.3   312  TRP312      0.1640
     70  C        -28.4980   -0.9650   10.8230 C.2   312  TRP312      0.2290
     71  O        -29.3750   -1.6990   11.2990 O.2   312  TRP312     -0.2864
     72  CB       -26.2520   -2.0940   10.6770 C.3   312  TRP312      0.0576
     73  CG       -25.8730   -1.2820   11.8920 C.ar  312  TRP312      0.0006
     74  CD1      -24.9510   -0.2660   11.9630 C.ar  312  TRP312      0.0946
     75  CD2      -26.4080   -1.4270   13.2200 C.ar  312  TRP312      0.0152
     76  NE1      -24.8910    0.2250   13.2460 N.ar  312  TRP312     -0.2442
     77  CE2      -25.7670   -0.4700   14.0370 C.ar  312  TRP312      0.0810
     78  CE3      -27.3750   -2.2640   13.7930 C.ar  312  TRP312      0.0012
     79  CZ2      -26.0720   -0.3240   15.3920 C.ar  312  TRP312      0.0191
     80  CZ3      -27.6570   -2.1360   15.1350 C.ar  312  TRP312      0.0001
     81  CH2      -27.0090   -1.1830   15.9260 C.ar  312  TRP312      0.0015
     82  N        -16.4820   -5.8300    4.7140 N.3   359  PHE359     -0.1241
     83  CA       -17.9380   -5.7900    4.4880 C.3   359  PHE359      0.1605
     84  C        -18.6900   -6.6680    5.5070 C.2   359  PHE359      0.2264
     85  O        -19.9350   -6.7270    5.4890 O.2   359  PHE359     -0.2867
     86  CB       -18.3350   -6.2270    3.0720 C.3   359  PHE359      0.0534
     87  CG       -17.8020   -5.3450    1.9650 C.ar  359  PHE359     -0.0203
     88  CD1      -17.2240   -4.1110    2.2450 C.ar  359  PHE359     -0.0042
     89  CD2      -17.8910   -5.7590    0.6380 C.ar  359  PHE359     -0.0042
     90  CE1      -16.7510   -3.3020    1.2090 C.ar  359  PHE359     -0.0003
     91  CE2      -17.4100   -4.9650   -0.3960 C.ar  359  PHE359     -0.0003
     92  CZ       -16.8400   -3.7340   -0.1070 C.ar  359  PHE359     -0.0000
     93  N        -20.1630   -4.4040   11.0980 N.3   362  LEU362     -0.1245
     94  CA       -21.5140   -3.8660   11.2260 C.3   362  LEU362      0.1561
     95  C        -21.5640   -2.4320   10.7330 C.2   362  LEU362      0.2260
     96  O        -22.4130   -2.0820    9.8920 O.2   362  LEU362     -0.2867
     97  CB       -21.9680   -3.9090   12.6790 C.3   362  LEU362      0.0270
     98  CG       -23.4490   -3.6830   12.9670 C.3   362  LEU362      0.0019
     99  CD1      -24.3790   -4.6240   12.1790 C.3   362  LEU362      0.0001
    100  CD2      -23.6740   -3.7990   14.4860 C.3   362  LEU362      0.0001
    101  N        -19.7410    0.0610    8.4750 N.3   364  VAL364     -0.1245
    102  CA       -18.7860   -0.0800    7.3780 C.3   364  VAL364      0.1561
    103  C        -18.2120    1.2810    6.9940 C.2   364  VAL364      0.2260
    104  O        -18.7300    2.3140    7.4010 O.2   364  VAL364     -0.2867
    105  CB       -19.4060   -0.7950    6.1560 C.3   364  VAL364      0.0252
    106  CG1      -19.8670   -2.2280    6.5450 C.3   364  VAL364      0.0019
    107  CG2      -20.5630    0.0070    5.5940 C.3   364  VAL364      0.0019
    108  N        -17.6220    3.2170    3.7000 N.3   366  LEU366     -0.1245
    109  CA       -17.9380    3.1500    2.2890 C.3   366  LEU366      0.1561
    110  C        -17.1140    4.1060    1.3950 C.2   366  LEU366      0.2260
    111  O        -17.4120    4.2520    0.2140 O.2   366  LEU366     -0.2867
    112  CB       -19.4440    3.3220    2.0690 C.3   366  LEU366      0.0270
    113  CG       -20.2780    2.0970    2.5100 C.3   366  LEU366      0.0019
    114  CD1      -21.7890    2.4090    2.5180 C.3   366  LEU366      0.0001
    115  CD2      -19.9640    0.8170    1.6900 C.3   366  LEU366      0.0001
    116  N        -21.8690    1.3310   -2.8830 N.3   371  PRO371     -0.2102
    117  CA       -22.7790    0.6670   -1.9320 C.3   371  PRO371      0.1504
    118  C        -23.4360   -0.6180   -2.4930 C.2   371  PRO371      0.2575
    119  O        -23.7310   -1.5430   -1.7130 O.2   371  PRO371     -0.2718
    120  CB       -23.8550    1.7300   -1.6790 C.3   371  PRO371      0.0282
    121  CG       -23.1270    3.0490   -1.8760 C.3   371  PRO371      0.0208
    122  CD       -22.1210    2.7810   -2.9950 C.3   371  PRO371      0.0893
    123  N        -23.6840   -0.6710   -3.8090 N.am  372  ASP372     -0.1974
    124  CA       -24.2920   -1.8650   -4.4250 C.3   372  ASP372      0.1708
    125  C        -23.4010   -3.1070   -4.3130 C.2   372  ASP372      0.2293
    126  O        -23.8930   -4.2420   -4.2290 O.2   372  ASP372     -0.2864
    127  CB       -24.6780   -1.6140   -5.8830 C.3   372  ASP372      0.1436
    128  CG       -25.9080   -0.7130   -6.0140 C.2   372  ASP372      0.3671
    129  OD1      -26.6940   -0.6180   -5.0230 O.co2 372  ASP372     -0.2456
    130  OD2      -26.0880   -0.1120   -7.0960 O.co2 372  ASP372     -0.2456
    131  N        -21.1120   -3.5380   -1.7840 N.3   374  ALA374     -0.1231
    132  CA       -21.0170   -3.8520   -0.3600 C.3   374  ALA374      0.1694
    133  C        -22.2890   -4.5350    0.1750 C.2   374  ALA374      0.2592
    134  O        -22.2340   -5.2220    1.1900 O.2   374  ALA374     -0.2718
    135  CB       -20.7480   -2.5800    0.4450 C.3   374  ALA374      0.0304
    136  N        -23.4250   -4.3030   -0.4780 N.am  375  TYR375     -0.1962
    137  CA       -24.7020   -4.8480   -0.0290 C.3   375  TYR375      0.1771
    138  C        -24.6690   -6.3760    0.2330 C.2   375  TYR375      0.2620
    139  O        -24.1690   -7.1320   -0.5800 O.2   375  TYR375     -0.2715
    140  CB       -25.8400   -4.4890   -0.9960 C.3   375  TYR375      0.0574
    141  CG       -27.1880   -4.9890   -0.5150 C.ar  375  TYR375     -0.0198
    142  CD1      -27.9740   -4.2430    0.3720 C.ar  375  TYR375     -0.0009
    143  CD2      -27.6730   -6.2240   -0.9350 C.ar  375  TYR375     -0.0009
    144  CE1      -29.2150   -4.7170    0.8180 C.ar  375  TYR375      0.0417
    145  CE2      -28.8960   -6.6880   -0.5110 C.ar  375  TYR375      0.0417
    146  CZ       -29.6570   -5.9530    0.3730 C.ar  375  TYR375      0.1957
    147  OH       -30.8680   -6.4720    0.7820 O.3   375  TYR375     -0.2866
    148  N        -25.1840   -6.7830    1.3970 N.am  376  SER376     -0.1950
    149  CA       -25.3100   -8.2050    1.7970 C.3   376  SER376      0.1924
    150  C        -26.2380   -8.3480    2.9900 C.2   376  SER376      0.2314
    151  O        -26.7620   -7.3550    3.5040 O.2   376  SER376     -0.2863
    152  CB       -23.9510   -8.7750    2.2110 C.3   376  SER376      0.2116
    153  OG       -23.5770   -8.3020    3.5180 O.3   376  SER376     -0.2180
    154  N        -25.5720   -6.3580    7.3540 N.3   379  PRO379     -0.2116
    155  CA       -26.2640   -5.3480    8.1980 C.3   379  PRO379      0.1372
    156  C        -27.6060   -5.8550    8.7350 C.2   379  PRO379      0.2244
    157  O        -28.0090   -5.4690    9.8520 O.2   379  PRO379     -0.2868
    158  CB       -26.4840   -4.1570    7.2270 C.3   379  PRO379      0.0268
    159  CG       -26.3220   -4.7650    5.8280 C.3   379  PRO379      0.0207
    160  CD       -25.2770   -5.8420    6.0050 C.3   379  PRO379      0.0892
@<TRIPOS>BOND
     1   130   128   ar
     2   128   127    1
     3   128   129   ar
     4   127   124    1
     5    15    16    1
     6    24    22   ar
     7    24    25   ar
     8    18    17    2
     9    22    20   ar
    10   124   125    1
    11   124   123    1
    12    26    25    1
    13   125   126    2
    14    16    17    1
    15    16    19    1
    16    25    23   ar
    17     4     3    2
    18   123   118   am
    19     1     2    1
    20    20    19    1
    21    20    21   ar
    22     3    10   am
    23     3     2    1
    24    23    21   ar
    25   122   116    1
    26   122   121    1
    27    10    11    1
    28   116   117    1
    29     2     5    1
    30    12    13    2
    31    12    11    1
    32   118   117    1
    33   118   119    2
    34    31    32    1
    35    31    28    1
    36    32    33    1
    37   117   120    1
    38    11    14    1
    39   121   120    1
    40   131   132    1
    41    34    33    1
    42     5     6    1
    43    27    28    1
    44   140   141    1
    45   140   137    1
    46   143   141   ar
    47   143   145   ar
    48    28    29    1
    49    30    29    2
    50   139   138    2
    51   141   142   ar
    52   145   146   ar
    53   136   137    1
    54   136   133   am
    55    91    92   ar
    56    91    89   ar
    57   132   133    1
    58   132   135    1
    59     6     7    1
    60    92    90   ar
    61   137   138    1
    62   133   134    2
    63   111   110    2
    64   138   148   am
    65   142   144   ar
    66   146   147    1
    67   146   144   ar
    68     8     7    2
    69    89    87   ar
    70     7     9   am
    71    43    41   ar
    72    43    44   ar
    73    90    88   ar
    74    46    44   ar
    75    46    48   ar
    76    41    40   ar
    77   110   109    1
    78   148   149    1
    79    44    42   ar
    80   115   113    1
    81   149   152    1
    82   149   150    1
    83    48    47   ar
    84    87    88   ar
    85    87    86    1
    86   112   109    1
    87   112   113    1
    88    40    42   ar
    89    40    39    1
    90   152   153    1
    91    42    45   ar
    92   109   108    1
    93   113   114    1
    94    47    45   ar
    95    39    36    1
    96   150   151    2
    97    86    83    1
    98    67    66   ar
    99    67    65   ar
   100    66    64   ar
   101    65    63   ar
   102    36    35    1
   103    36    37    1
   104    83    82    1
   105    83    84    1
   106    64    62   ar
   107    63    62   ar
   108    55    54   ar
   109    62    61    1
   110    37    38    2
   111    37    49   am
   112    85    84    2
   113   107   105    1
   114   159   160    1
   115   159   158    1
   116    61    58    1
   117    49    50    1
   118   160   154    1
   119   105   106    1
   120   105   102    1
   121    54    56   ar
   122    54    53    1
   123    50    53    1
   124    50    51    1
   125   103   102    1
   126   103   104    2
   127    58    57    1
   128    58    59    1
   129   158   155    1
   130   154   155    1
   131   102   101    1
   132    51    52    2
   133    59    60    2
   134    59    68   am
   135   155   156    1
   136   156   157    2
   137    68    69    1
   138    69    72    1
   139    69    70    1
   140    96    95    2
   141    72    73    1
   142    95    94    1
   143    70    71    2
   144    93    94    1
   145    94    97    1
   146    73    74   ar
   147    73    75   ar
   148    74    76   ar
   149    99    98    1
   150    97    98    1
   151    98   100    1
   152    75    78   ar
   153    75    77   ar
   154    76    77   ar
   155    78    80   ar
   156    77    79   ar
   157    80    81   ar
   158    79    81   ar
