@<TRIPOS>MOLECULE
tmp/3ftxA00.pdb
 179 178 0 0 0
SMALL
GASTEIGER

@<TRIPOS>ATOM
      1  N          6.5570    3.4670   -3.7750 N.3   133  GLN133     -0.1231
      2  CA         7.5010    3.0770   -2.7040 C.3   133  GLN133      0.1698
      3  C          8.6540    2.2700   -3.3100 C.2   133  GLN133      0.2592
      4  O          8.3810    1.3510   -4.0830 O.2   133  GLN133     -0.2718
      5  CB         6.8000    2.2220   -1.6210 C.3   133  GLN133      0.0381
      6  CG         7.5710    2.2400   -0.2670 C.3   133  GLN133      0.0905
      7  CD         6.8980    1.4320    0.8300 C.2   133  GLN133      0.2608
      8  OE1        5.9480    0.7060    0.5740 O.2   133  GLN133     -0.2717
      9  NE2        7.4160    1.5450    2.0730 N.am  133  GLN133     -0.0878
     10  N          9.9150    2.5660   -2.9320 N.am  134  ALA134     -0.1980
     11  CA        10.2590    3.6560   -1.9820 C.3   134  ALA134      0.1597
     12  C         10.4730    5.0040   -2.6590 C.2   134  ALA134      0.2287
     13  O          9.9890    6.0400   -2.1700 O.2   134  ALA134     -0.2864
     14  CB        11.5550    3.2920   -1.2130 C.3   134  ALA134      0.0319
     15  N          4.2760   -6.6270   -5.8330 N.3   264  TYR264     -0.1241
     16  CA         4.2060   -6.8730   -4.4050 C.3   264  TYR264      0.1605
     17  C          2.9360   -7.6720   -3.9810 C.2   264  TYR264      0.2264
     18  O          1.9480   -7.7210   -4.7270 O.2   264  TYR264     -0.2867
     19  CB         4.2890   -5.5140   -3.6600 C.3   264  TYR264      0.0534
     20  CG         5.6490   -4.8550   -3.8360 C.ar  264  TYR264     -0.0201
     21  CD1        6.7480   -5.3140   -3.1130 C.ar  264  TYR264     -0.0009
     22  CD2        5.8350   -3.8080   -4.7390 C.ar  264  TYR264     -0.0009
     23  CE1        8.0110   -4.7680   -3.2880 C.ar  264  TYR264      0.0417
     24  CE2        7.1030   -3.2240   -4.9190 C.ar  264  TYR264      0.0417
     25  CZ         8.1800   -3.7120   -4.1810 C.ar  264  TYR264      0.1957
     26  OH         9.4340   -3.1570   -4.3210 O.3   264  TYR264     -0.2866
     27  N         14.6590    5.9210    4.7180 N.3   308  TRP308     -0.1227
     28  CA        14.5020    4.5020    4.4630 C.3   308  TRP308      0.1737
     29  C         15.4910    3.6420    5.2690 C.2   308  TRP308      0.2595
     30  O         15.3770    2.4350    5.3150 O.2   308  TRP308     -0.2718
     31  CB        14.5780    4.2270    2.9550 C.3   308  TRP308      0.0564
     32  CG        13.4600    4.9230    2.1990 C.ar  308  TRP308      0.0003
     33  CD1       13.5850    5.9530    1.2980 C.ar  308  TRP308      0.0946
     34  CD2       12.0520    4.6600    2.3240 C.ar  308  TRP308      0.0152
     35  NE1       12.3240    6.3380    0.8510 N.ar  308  TRP308     -0.2442
     36  CE2       11.3760    5.5590    1.4690 C.ar  308  TRP308      0.0810
     37  CE3       11.3010    3.7530    3.0800 C.ar  308  TRP308      0.0012
     38  CZ2        9.9780    5.5620    1.3330 C.ar  308  TRP308      0.0191
     39  CZ3        9.9100    3.7610    2.9560 C.ar  308  TRP308      0.0001
     40  CH2        9.2640    4.6660    2.0900 C.ar  308  TRP308      0.0015
     41  N         16.4480    4.2810    5.9290 N.am  309  ASP309     -0.1974
     42  CA        17.3460    3.5680    6.8070 C.3   309  ASP309      0.1709
     43  C         16.5390    3.0290    7.9820 C.2   309  ASP309      0.2293
     44  O         16.9310    2.0490    8.6200 O.2   309  ASP309     -0.2864
     45  CB        18.4240    4.5170    7.3520 C.3   309  ASP309      0.1436
     46  CG        19.4370    4.9250    6.3100 C.2   309  ASP309      0.3671
     47  OD1       19.5170    4.3090    5.2210 O.co2 309  ASP309     -0.2456
     48  OD2       20.1810    5.8780    6.6040 O.co2 309  ASP309     -0.2456
     49  N         13.3090    1.9720    7.9030 N.3   311  PHE311     -0.1227
     50  CA        12.1800    1.2220    7.3610 C.3   311  PHE311      0.1736
     51  C         11.6260    0.1760    8.3220 C.2   311  PHE311      0.2595
     52  O         10.4150   -0.0430    8.3500 O.2   311  PHE311     -0.2718
     53  CB        12.6420    0.5660    6.0510 C.3   311  PHE311      0.0547
     54  CG        11.5610   -0.1410    5.2620 C.ar  311  PHE311     -0.0202
     55  CD1       10.3940    0.5150    4.8770 C.ar  311  PHE311     -0.0042
     56  CD2       11.7640   -1.4570    4.8140 C.ar  311  PHE311     -0.0042
     57  CE1        9.4140   -0.1580    4.0860 C.ar  311  PHE311     -0.0003
     58  CE2       10.7910   -2.1350    4.0260 C.ar  311  PHE311     -0.0003
     59  CZ         9.6080   -1.4640    3.6690 C.ar  311  PHE311     -0.0000
     60  N         12.4920   -0.4940    9.1010 N.am  312  TRP312     -0.1976
     61  CA        12.0040   -1.4430   10.1170 C.3   312  TRP312      0.1640
     62  C         10.8910   -0.8400   11.0190 C.2   312  TRP312      0.2290
     63  O         10.0210   -1.5720   11.4820 O.2   312  TRP312     -0.2864
     64  CB        13.1540   -2.0020   10.9940 C.3   312  TRP312      0.0576
     65  CG        13.5050   -1.1440   12.2380 C.ar  312  TRP312      0.0006
     66  CD1       14.4420   -0.1300   12.3060 C.ar  312  TRP312      0.0946
     67  CD2       12.9430   -1.2500   13.5690 C.ar  312  TRP312      0.0152
     68  NE1       14.4810    0.3980   13.5710 N.ar  312  TRP312     -0.2442
     69  CE2       13.5880   -0.2710   14.3710 C.ar  312  TRP312      0.0810
     70  CE3       11.9620   -2.0650   14.1530 C.ar  312  TRP312      0.0012
     71  CZ2       13.2810   -0.0820   15.7180 C.ar  312  TRP312      0.0191
     72  CZ3       11.6620   -1.8850   15.5210 C.ar  312  TRP312      0.0001
     73  CH2       12.3220   -0.8890   16.2760 C.ar  312  TRP312      0.0015
     74  N         22.0800  -13.8060    2.7980 N.3   353  PHE353     -0.1241
     75  CA        22.9570  -12.6520    2.8330 C.3   353  PHE353      0.1605
     76  C         24.3180  -13.0370    3.3560 C.2   353  PHE353      0.2264
     77  O         25.3270  -12.5700    2.8480 O.2   353  PHE353     -0.2867
     78  CB        22.4160  -11.6020    3.8000 C.3   353  PHE353      0.0534
     79  CG        21.4710  -10.6120    3.1890 C.ar  353  PHE353     -0.0203
     80  CD1       21.8900   -9.7580    2.1830 C.ar  353  PHE353     -0.0042
     81  CD2       20.1770  -10.4720    3.6900 C.ar  353  PHE353     -0.0042
     82  CE1       21.0100   -8.8160    1.6430 C.ar  353  PHE353     -0.0003
     83  CE2       19.2920   -9.5340    3.1560 C.ar  353  PHE353     -0.0003
     84  CZ        19.7040   -8.7040    2.1430 C.ar  353  PHE353     -0.0000
     85  N         23.3080   -5.6980    5.3760 N.3   359  PHE359     -0.1241
     86  CA        21.8770   -5.6470    5.2570 C.3   359  PHE359      0.1605
     87  C         21.1120   -6.6720    6.0900 C.2   359  PHE359      0.2264
     88  O         19.9240   -6.8570    5.9370 O.2   359  PHE359     -0.2867
     89  CB        21.4620   -5.5230    3.8190 C.3   359  PHE359      0.0534
     90  CG        21.6230   -4.1330    3.3480 C.ar  359  PHE359     -0.0203
     91  CD1       22.8380   -3.6880    2.8890 C.ar  359  PHE359     -0.0042
     92  CD2       20.5990   -3.2270    3.5180 C.ar  359  PHE359     -0.0042
     93  CE1       23.0050   -2.3700    2.4980 C.ar  359  PHE359     -0.0003
     94  CE2       20.7390   -1.9110    3.1310 C.ar  359  PHE359     -0.0003
     95  CZ        21.9500   -1.4760    2.6200 C.ar  359  PHE359     -0.0000
     96  N         21.6040   -5.9820    9.3160 N.3   361  LYS361     -0.1231
     97  CA        21.3270   -5.0470   10.3930 C.3   361  LYS361      0.1693
     98  C         19.8600   -4.5660   10.3540 C.2   361  LYS361      0.2591
     99  O         19.2660   -4.4550    9.2850 O.2   361  LYS361     -0.2718
    100  CB        22.2830   -3.8410   10.3300 C.3   361  LYS361      0.0285
    101  CG        23.7780   -4.2310   10.3370 C.3   361  LYS361      0.0035
    102  CD        24.6470   -2.9900   10.2150 C.3   361  LYS361      0.0206
    103  CE        26.1040   -3.2600   10.6150 C.3   361  LYS361      0.1093
    104  NZ        26.9460   -2.1270   10.1530 N.3   361  LYS361     -0.1314
    105  N         19.3100   -4.2470   11.5210 N.am  362  LEU362     -0.1980
    106  CA        17.9690   -3.6640   11.6190 C.3   362  LEU362      0.1596
    107  C         17.9120   -2.2140   11.1010 C.2   362  LEU362      0.2287
    108  O         16.9860   -1.8460   10.3430 O.2   362  LEU362     -0.2864
    109  CB        17.4640   -3.7580   13.0630 C.3   362  LEU362      0.0297
    110  CG        15.9540   -3.5570   13.2970 C.3   362  LEU362      0.0022
    111  CD1       15.1410   -4.5210   12.4410 C.3   362  LEU362      0.0001
    112  CD2       15.6240   -3.6860   14.7970 C.3   362  LEU362      0.0001
    113  N         19.9950    0.2730    8.7150 N.3   364  VAL364     -0.1245
    114  CA        20.9910    0.1910    7.6700 C.3   364  VAL364      0.1561
    115  C         21.3620    1.5570    7.1370 C.2   364  VAL364      0.2260
    116  O         20.7680    2.5690    7.4900 O.2   364  VAL364     -0.2867
    117  CB        20.4870   -0.6690    6.5130 C.3   364  VAL364      0.0252
    118  CG1       20.1370   -2.0100    7.0190 C.3   364  VAL364      0.0019
    119  CG2       19.3310    0.0080    5.8250 C.3   364  VAL364      0.0019
    120  N         21.6380    3.2870    3.6080 N.3   366  LEU366     -0.1245
    121  CA        21.3360    3.1420    2.1940 C.3   366  LEU366      0.1561
    122  C         22.1130    4.1210    1.2790 C.2   366  LEU366      0.2260
    123  O         21.7740    4.2280    0.1060 O.2   366  LEU366     -0.2867
    124  CB        19.8250    3.3150    1.9580 C.3   366  LEU366      0.0270
    125  CG        18.9550    2.1020    2.3470 C.3   366  LEU366      0.0019
    126  CD1       17.4910    2.4710    2.4340 C.3   366  LEU366      0.0001
    127  CD2       19.1710    0.9370    1.3660 C.3   366  LEU366      0.0001
    128  N         17.3480    1.2950   -2.8780 N.3   371  PRO371     -0.2102
    129  CA        16.4860    0.5390   -1.9660 C.3   371  PRO371      0.1504
    130  C         15.8790   -0.7340   -2.5970 C.2   371  PRO371      0.2575
    131  O         15.6800   -1.7140   -1.8890 O.2   371  PRO371     -0.2718
    132  CB        15.3860    1.5450   -1.6070 C.3   371  PRO371      0.0282
    133  CG        16.0240    2.8850   -1.8070 C.3   371  PRO371      0.0208
    134  CD        16.8750    2.6760   -3.0510 C.3   371  PRO371      0.0893
    135  N         15.5800   -0.7390   -3.8990 N.am  372  ASP372     -0.1974
    136  CA        14.9370   -1.9240   -4.4920 C.3   372  ASP372      0.1708
    137  C         15.8550   -3.1210   -4.4470 C.2   372  ASP372      0.2293
    138  O         15.3770   -4.2630   -4.4150 O.2   372  ASP372     -0.2864
    139  CB        14.5270   -1.6930   -5.9450 C.3   372  ASP372      0.1436
    140  CG        13.3310   -0.7890   -6.0700 C.2   372  ASP372      0.3671
    141  OD1       12.5620   -0.7040   -5.1150 O.co2 372  ASP372     -0.2456
    142  OD2       13.1710   -0.1400   -7.1020 O.co2 372  ASP372     -0.2456
    143  N         18.4030   -3.4340   -1.9910 N.3   374  ALA374     -0.1231
    144  CA        18.5700   -3.7810   -0.5790 C.3   374  ALA374      0.1694
    145  C         17.3250   -4.4580    0.0380 C.2   374  ALA374      0.2592
    146  O         17.4310   -5.1530    1.0240 O.2   374  ALA374     -0.2718
    147  CB        18.9480   -2.5430    0.2200 C.3   374  ALA374      0.0304
    148  N         16.1480   -4.2570   -0.5520 N.am  375  TYR375     -0.1962
    149  CA        14.8970   -4.8040   -0.0250 C.3   375  TYR375      0.1771
    150  C         14.9610   -6.2820    0.3810 C.2   375  TYR375      0.2620
    151  O         15.4080   -7.1330   -0.4010 O.2   375  TYR375     -0.2715
    152  CB        13.7530   -4.5840   -1.0320 C.3   375  TYR375      0.0574
    153  CG        12.3910   -5.0350   -0.5160 C.ar  375  TYR375     -0.0198
    154  CD1       11.7210   -4.2980    0.4560 C.ar  375  TYR375     -0.0009
    155  CD2       11.7690   -6.1850   -1.0200 C.ar  375  TYR375     -0.0009
    156  CE1       10.4830   -4.6770    0.9070 C.ar  375  TYR375      0.0417
    157  CE2       10.5320   -6.5750   -0.5720 C.ar  375  TYR375      0.0417
    158  CZ         9.9010   -5.8310    0.4070 C.ar  375  TYR375      0.1957
    159  OH         8.6710   -6.2280    0.8650 O.3   375  TYR375     -0.2866
    160  N         14.5280   -6.5890    1.6120 N.am  376  SER376     -0.1950
    161  CA        14.4510   -8.0090    2.0610 C.3   376  SER376      0.1924
    162  C         13.4790   -8.1800    3.2010 C.2   376  SER376      0.2314
    163  O         12.8740   -7.2110    3.6920 O.2   376  SER376     -0.2863
    164  CB        15.8310   -8.4800    2.5640 C.3   376  SER376      0.2116
    165  OG        16.1060   -7.9180    3.8540 O.3   376  SER376     -0.2180
    166  N         14.4860   -8.7770    6.2310 N.3   378  VAL378     -0.1231
    167  CA        15.1350   -8.4350    7.4900 C.3   378  VAL378      0.1678
    168  C         14.3640   -7.3660    8.3030 C.2   378  VAL378      0.2434
    169  O         14.0450   -7.5790    9.4880 O.2   378  VAL378     -0.2733
    170  CB        16.6490   -8.0770    7.3070 C.3   378  VAL378      0.0265
    171  CG1       17.2290   -7.4640    8.6040 C.3   378  VAL378      0.0020
    172  CG2       17.4960   -9.3130    6.8030 C.3   378  VAL378      0.0020
    173  N         14.0560   -6.2080    7.6870 N.am  379  PRO379     -0.2729
    174  CA        13.3470   -5.1830    8.4600 C.3   379  PRO379      0.1401
    175  C         12.0210   -5.6870    9.0260 C.2   379  PRO379      0.2269
    176  O         11.6150   -5.2810   10.1160 O.2   379  PRO379     -0.2865
    177  CB        13.0740   -4.0630    7.4240 C.3   379  PRO379      0.0296
    178  CG        13.3190   -4.6810    6.0750 C.3   379  PRO379      0.0237
    179  CD        14.3750   -5.7430    6.3260 C.3   379  PRO379      0.0939
@<TRIPOS>BOND
     1   142   140   ar
     2   140   139    1
     3   140   141   ar
     4   139   136    1
     5    15    16    1
     6    24    22   ar
     7    24    25   ar
     8    22    20   ar
     9    18    17    2
    10   136   137    1
    11   136   135    1
    12   137   138    2
    13    16    17    1
    14    16    19    1
    15    26    25    1
    16    25    23   ar
    17     4     3    2
    18   135   130   am
    19    20    19    1
    20    20    21   ar
    21     1     2    1
    22     3    10   am
    23     3     2    1
    24    23    21   ar
    25   134   128    1
    26   134   133    1
    27    10    11    1
    28   128   129    1
    29     2     5    1
    30    12    13    2
    31    12    11    1
    32   130   129    1
    33   130   131    2
    34   143   144    1
    35    11    14    1
    36   129   132    1
    37   133   132    1
    38     5     6    1
    39   152   153    1
    40   152   149    1
    41   155   157   ar
    42   155   153   ar
    43   144   145    1
    44   144   147    1
    45   157   158   ar
    46   148   149    1
    47   148   145   am
    48   153   154   ar
    49   151   150    2
    50     6     7    1
    51   149   150    1
    52   145   146    2
    53   123   122    2
    54   150   160   am
    55   158   159    1
    56   158   156   ar
    57   154   156   ar
    58     8     7    2
    59     7     9   am
    60    35    33   ar
    61    35    36   ar
    62   122   121    1
    63    33    32   ar
    64    38    36   ar
    65    38    40   ar
    66   127   125    1
    67    36    34   ar
    68   160   161    1
    69    82    84   ar
    70    82    80   ar
    71   124   121    1
    72   124   125    1
    73   161   164    1
    74   161   162    1
    75    40    39   ar
    76    84    83   ar
    77    80    79   ar
    78   121   120    1
    79    32    34   ar
    80    32    31    1
    81    34    37   ar
    82   125   126    1
    83    93    95   ar
    84    93    91   ar
    85   164   165    1
    86    95    94   ar
    87    74    75    1
    88    75    76    1
    89    75    78    1
    90    77    76    2
    91    91    90   ar
    92    31    28    1
    93    39    37   ar
    94    94    92   ar
    95    83    81   ar
    96    79    81   ar
    97    79    78    1
    98   162   163    2
    99    90    92   ar
   100    90    89    1
   101    59    58   ar
   102    59    57   ar
   103    89    86    1
   104    58    56   ar
   105    57    55   ar
   106    28    27    1
   107    28    29    1
   108    56    54   ar
   109    55    54   ar
   110    47    46   ar
   111    86    85    1
   112    86    87    1
   113    54    53    1
   114    29    30    2
   115    29    41   am
   116   119   117    1
   117    41    42    1
   118    88    87    2
   119    53    50    1
   120   178   179    1
   121   178   177    1
   122   166   167    1
   123    46    48   ar
   124    46    45    1
   125   179   173    1
   126   117   118    1
   127   117   114    1
   128   172   170    1
   129    42    45    1
   130    42    43    1
   131   115   116    2
   132   115   114    1
   133   170   167    1
   134   170   171    1
   135    50    49    1
   136    50    51    1
   137   177   174    1
   138   167   168    1
   139   114   113    1
   140   173   168   am
   141   173   174    1
   142    43    44    2
   143   168   169    2
   144    51    52    2
   145    51    60   am
   146   174   175    1
   147   175   176    2
   148    60    61    1
   149    99    98    2
   150    96    97    1
   151    61    64    1
   152    61    62    1
   153   104   103    1
   154   102   101    1
   155   102   103    1
   156   100   101    1
   157   100    97    1
   158   108   107    2
   159    98    97    1
   160    98   105   am
   161    64    65    1
   162    62    63    2
   163   107   106    1
   164   105   106    1
   165   106   109    1
   166    65    66   ar
   167    65    67   ar
   168    66    68   ar
   169   111   110    1
   170   109   110    1
   171   110   112    1
   172    67    70   ar
   173    67    69   ar
   174    68    69   ar
   175    70    72   ar
   176    69    71   ar
   177    72    73   ar
   178    71    73   ar
