@<TRIPOS>MOLECULE
tmp/3ftyA00.pdb
 154 152 0 0 0
SMALL
GASTEIGER

@<TRIPOS>ATOM
      1  N         32.2710   -3.4020   -3.7690 N.3   133  GLN133     -0.1231
      2  CA        31.3960   -3.0600   -2.6580 C.3   133  GLN133      0.1698
      3  C         30.2260   -2.2850   -3.2570 C.2   133  GLN133      0.2592
      4  O         30.4480   -1.4040   -4.0850 O.2   133  GLN133     -0.2718
      5  CB        32.1470   -2.2510   -1.5720 C.3   133  GLN133      0.0381
      6  CG        31.5600   -2.4170   -0.1540 C.3   133  GLN133      0.0905
      7  CD        32.1520   -1.4640    0.9000 C.2   133  GLN133      0.2608
      8  OE1       32.5280   -0.3390    0.5990 O.2   133  GLN133     -0.2717
      9  NE2       32.2140   -1.9240    2.1490 N.am  133  GLN133     -0.0878
     10  N         28.9850   -2.6050   -2.8840 N.am  134  ALA134     -0.1980
     11  CA        28.6350   -3.6630   -1.9270 C.3   134  ALA134      0.1597
     12  C         28.4380   -5.0450   -2.5420 C.2   134  ALA134      0.2287
     13  O         28.9920   -6.0370   -2.0430 O.2   134  ALA134     -0.2864
     14  CB        27.3850   -3.2530   -1.1430 C.3   134  ALA134      0.0319
     15  N         34.6520    6.6340   -5.5740 N.3   264  TYR264     -0.1241
     16  CA        34.7280    6.9850   -4.1420 C.3   264  TYR264      0.1605
     17  C         36.0660    7.5920   -3.7360 C.2   264  TYR264      0.2264
     18  O         37.0570    7.4680   -4.4530 O.2   264  TYR264     -0.2867
     19  CB        34.4270    5.7690   -3.2650 C.3   264  TYR264      0.0534
     20  CG        33.1040    5.0900   -3.5580 C.ar  264  TYR264     -0.0201
     21  CD1       31.8980    5.6320   -3.0980 C.ar  264  TYR264     -0.0009
     22  CD2       33.0550    3.9190   -4.2980 C.ar  264  TYR264     -0.0009
     23  CE1       30.6750    5.0150   -3.3790 C.ar  264  TYR264      0.0417
     24  CE2       31.8440    3.2950   -4.5800 C.ar  264  TYR264      0.0417
     25  CZ        30.6660    3.8420   -4.1040 C.ar  264  TYR264      0.1957
     26  OH        29.4810    3.2250   -4.3740 O.3   264  TYR264     -0.2866
     27  N         38.6840    3.0450   -1.1900 N.3   267  MET267     -0.1245
     28  CA        38.1100    1.7280   -1.0450 C.3   267  MET267      0.1570
     29  C         39.1530    0.8540   -0.3570 C.2   267  MET267      0.2261
     30  O         40.2410    0.6530   -0.8910 O.2   267  MET267     -0.2867
     31  CB        37.7140    1.1810   -2.4310 C.3   267  MET267      0.0387
     32  CG        36.8320   -0.0630   -2.4200 C.3   267  MET267      0.0595
     33  SD        35.6090   -0.0680   -1.0830 S.3   267  MET267     -0.1393
     34  CE        34.4620    1.2570   -1.5500 C.3   267  MET267      0.0692
     35  N         24.4610   -5.9410    4.7570 N.3   308  TRP308     -0.1227
     36  CA        24.5960   -4.5380    4.4690 C.3   308  TRP308      0.1737
     37  C         23.6260   -3.6810    5.2890 C.2   308  TRP308      0.2595
     38  O         23.7290   -2.4530    5.2960 O.2   308  TRP308     -0.2718
     39  CB        24.4600   -4.3130    2.9580 C.3   308  TRP308      0.0564
     40  CG        25.5500   -5.0320    2.2300 C.ar  308  TRP308      0.0003
     41  CD1       25.4180   -6.1110    1.3980 C.ar  308  TRP308      0.0946
     42  CD2       26.9530   -4.7570    2.3170 C.ar  308  TRP308      0.0152
     43  NE1       26.6500   -6.5030    0.9380 N.ar  308  TRP308     -0.2442
     44  CE2       27.6120   -5.6950    1.4900 C.ar  308  TRP308      0.0810
     45  CE3       27.7160   -3.7920    3.0000 C.ar  308  TRP308      0.0012
     46  CZ2       29.0060   -5.7140    1.3350 C.ar  308  TRP308      0.0191
     47  CZ3       29.1070   -3.8110    2.8550 C.ar  308  TRP308      0.0001
     48  CH2       29.7370   -4.7700    2.0250 C.ar  308  TRP308      0.0015
     49  N         22.7000   -4.3310    5.9850 N.am  309  ASP309     -0.1974
     50  CA        21.8140   -3.6580    6.9260 C.3   309  ASP309      0.1709
     51  C         22.5890   -3.0390    8.0690 C.2   309  ASP309      0.2293
     52  O         22.1320   -2.0490    8.6450 O.2   309  ASP309     -0.2864
     53  CB        20.7990   -4.6470    7.5090 C.3   309  ASP309      0.1436
     54  CG        19.7200   -5.0510    6.5160 C.2   309  ASP309      0.3671
     55  OD1       19.7400   -4.5930    5.3620 O.co2 309  ASP309     -0.2456
     56  OD2       18.8320   -5.8420    6.8980 O.co2 309  ASP309     -0.2456
     57  N         25.9160   -2.0020    7.8330 N.3   311  PHE311     -0.1227
     58  CA        27.0160   -1.2210    7.2420 C.3   311  PHE311      0.1736
     59  C         27.5490   -0.1750    8.2170 C.2   311  PHE311      0.2595
     60  O         28.7650    0.0650    8.2530 O.2   311  PHE311     -0.2718
     61  CB        26.5000   -0.5820    5.9440 C.3   311  PHE311      0.0547
     62  CG        27.5350    0.1490    5.1250 C.ar  311  PHE311     -0.0202
     63  CD1       28.7350   -0.4640    4.7400 C.ar  311  PHE311     -0.0042
     64  CD2       27.2740    1.4480    4.6740 C.ar  311  PHE311     -0.0042
     65  CE1       29.6710    0.2140    3.9510 C.ar  311  PHE311     -0.0003
     66  CE2       28.2190    2.1470    3.8810 C.ar  311  PHE311     -0.0003
     67  CZ        29.4160    1.5270    3.5210 C.ar  311  PHE311     -0.0000
     68  N         26.6680    0.4370    9.0200 N.am  312  TRP312     -0.1976
     69  CA        27.1240    1.4080   10.0440 C.3   312  TRP312      0.1640
     70  C         28.2480    0.8540   10.9090 C.2   312  TRP312      0.2290
     71  O         29.1470    1.5910   11.3100 O.2   312  TRP312     -0.2864
     72  CB        25.9900    1.9570   10.9390 C.3   312  TRP312      0.0576
     73  CG        25.6700    1.1270   12.1950 C.ar  312  TRP312      0.0006
     74  CD1       24.7910    0.0830   12.2820 C.ar  312  TRP312      0.0946
     75  CD2       26.2400    1.2750   13.5140 C.ar  312  TRP312      0.0152
     76  NE1       24.7680   -0.4180   13.5580 N.ar  312  TRP312     -0.2442
     77  CE2       25.6470    0.2940   14.3360 C.ar  312  TRP312      0.0810
     78  CE3       27.1840    2.1440   14.0740 C.ar  312  TRP312      0.0012
     79  CZ2       25.9640    0.1550   15.6960 C.ar  312  TRP312      0.0191
     80  CZ3       27.5140    2.0030   15.4330 C.ar  312  TRP312      0.0001
     81  CH2       26.9060    1.0070   16.2240 C.ar  312  TRP312      0.0015
     82  N         16.1510    5.6100    4.8320 N.3   359  PHE359     -0.1241
     83  CA        17.6330    5.6250    4.7160 C.3   359  PHE359      0.1605
     84  C         18.3220    6.5050    5.7860 C.2   359  PHE359      0.2264
     85  O         19.5440    6.6030    5.7870 O.2   359  PHE359     -0.2867
     86  CB        18.1430    6.0780    3.3300 C.3   359  PHE359      0.0534
     87  CG        17.6050    5.2850    2.1330 C.ar  359  PHE359     -0.0203
     88  CD1       16.9610    4.0470    2.2800 C.ar  359  PHE359     -0.0042
     89  CD2       17.7790    5.7970    0.8350 C.ar  359  PHE359     -0.0042
     90  CE1       16.4900    3.3470    1.1540 C.ar  359  PHE359     -0.0003
     91  CE2       17.3180    5.1160   -0.2880 C.ar  359  PHE359     -0.0003
     92  CZ        16.6780    3.8860   -0.1320 C.ar  359  PHE359     -0.0000
     93  N         19.8680    4.3330   11.3640 N.3   362  LEU362     -0.1245
     94  CA        21.2180    3.8320   11.4800 C.3   362  LEU362      0.1561
     95  C         21.3040    2.3990   10.9380 C.2   362  LEU362      0.2260
     96  O         22.1870    2.0700   10.1360 O.2   362  LEU362     -0.2867
     97  CB        21.6900    3.9040   12.9270 C.3   362  LEU362      0.0270
     98  CG        23.1680    3.6220   13.1630 C.3   362  LEU362      0.0019
     99  CD1       24.1040    4.5820   12.3770 C.3   362  LEU362      0.0001
    100  CD2       23.4060    3.6940   14.6510 C.3   362  LEU362      0.0001
    101  N         19.4460   -0.0470    8.6290 N.3   364  VAL364     -0.1245
    102  CA        18.4470    0.0190    7.5680 C.3   364  VAL364      0.1561
    103  C         17.9590   -1.3770    7.1950 C.2   364  VAL364      0.2260
    104  O         18.5690   -2.3780    7.5720 O.2   364  VAL364     -0.2867
    105  CB        18.9880    0.7460    6.3080 C.3   364  VAL364      0.0252
    106  CG1       19.6660    2.0430    6.7000 C.3   364  VAL364      0.0019
    107  CG2       19.9340   -0.1370    5.5420 C.3   364  VAL364      0.0019
    108  N         17.4730   -3.4130    3.8530 N.3   366  LEU366     -0.1245
    109  CA        17.7680   -3.3430    2.4190 C.3   366  LEU366      0.1561
    110  C         16.9380   -4.2830    1.5270 C.2   366  LEU366      0.2260
    111  O         17.2290   -4.4280    0.3340 O.2   366  LEU366     -0.2867
    112  CB        19.2720   -3.4960    2.1650 C.3   366  LEU366      0.0270
    113  CG        20.1050   -2.2310    2.4450 C.3   366  LEU366      0.0019
    114  CD1       21.5740   -2.5620    2.5770 C.3   366  LEU366      0.0001
    115  CD2       19.9090   -1.1380    1.3950 C.3   366  LEU366      0.0001
    116  N         21.6590   -1.2750   -2.7130 N.3   371  PRO371     -0.2102
    117  CA        22.5990   -0.6400   -1.7770 C.3   371  PRO371      0.1504
    118  C         23.2600    0.6480   -2.3040 C.2   371  PRO371      0.2575
    119  O         23.5460    1.5750   -1.5180 O.2   371  PRO371     -0.2718
    120  CB        23.6640   -1.7210   -1.5880 C.3   371  PRO371      0.0282
    121  CG        22.9520   -2.9860   -1.8400 C.3   371  PRO371      0.0208
    122  CD        22.0040   -2.6870   -2.9470 C.3   371  PRO371      0.0893
    123  N         23.5200    0.6840   -3.6140 N.am  372  ASP372     -0.1974
    124  CA        24.0990    1.8520   -4.2610 C.3   372  ASP372      0.1708
    125  C         23.1530    3.0360   -4.2210 C.2   372  ASP372      0.2293
    126  O         23.5890    4.1850   -4.1760 O.2   372  ASP372     -0.2864
    127  CB        24.4750    1.5530   -5.7170 C.3   372  ASP372      0.1436
    128  CG        25.6210    0.5620   -5.8420 C.2   372  ASP372      0.3671
    129  OD1       26.3860    0.3600   -4.8530 O.co2 372  ASP372     -0.2456
    130  OD2       25.7510   -0.0120   -6.9500 O.co2 372  ASP372     -0.2456
    131  N         20.7200    3.3520   -1.7790 N.3   374  ALA374     -0.1231
    132  CA        20.6120    3.6770   -0.3500 C.3   374  ALA374      0.1694
    133  C         21.8610    4.3290    0.2540 C.2   374  ALA374      0.2592
    134  O         21.7760    4.9380    1.2970 O.2   374  ALA374     -0.2718
    135  CB        20.2600    2.4240    0.4410 C.3   374  ALA374      0.0304
    136  N         23.0120    4.1730   -0.3970 N.am  375  TYR375     -0.1976
    137  CA        24.2950    4.6430    0.1070 C.3   375  TYR375      0.1639
    138  C         24.3080    6.1550    0.3860 C.2   375  TYR375      0.2290
    139  O         23.8220    6.9460   -0.4340 O.2   375  TYR375     -0.2864
    140  CB        25.4210    4.2710   -0.8760 C.3   375  TYR375      0.0560
    141  CG        26.7650    4.8100   -0.4470 C.ar  375  TYR375     -0.0198
    142  CD1       27.5780    4.0870    0.4350 C.ar  375  TYR375     -0.0009
    143  CD2       27.2120    6.0570   -0.8930 C.ar  375  TYR375     -0.0009
    144  CE1       28.7960    4.5880    0.8520 C.ar  375  TYR375      0.0417
    145  CE2       28.4260    6.5680   -0.4890 C.ar  375  TYR375      0.0417
    146  CZ        29.2130    5.8300    0.3880 C.ar  375  TYR375      0.1957
    147  OH        30.4210    6.3360    0.7950 O.3   375  TYR375     -0.2866
    148  N         25.1900    6.2540    7.4960 N.3   379  PRO379     -0.2116
    149  CA        25.8990    5.2390    8.2970 C.3   379  PRO379      0.1372
    150  C         27.2480    5.6960    8.8510 C.2   379  PRO379      0.2244
    151  O         27.6280    5.2470    9.9350 O.2   379  PRO379     -0.2868
    152  CB        26.0810    4.0540    7.3200 C.3   379  PRO379      0.0268
    153  CG        25.7620    4.6010    5.9610 C.3   379  PRO379      0.0207
    154  CD        24.7990    5.7340    6.1720 C.3   379  PRO379      0.0892
@<TRIPOS>BOND
     1   130   128   ar
     2   128   127    1
     3   128   129   ar
     4   127   124    1
     5    15    16    1
     6    24    22   ar
     7    24    25   ar
     8    18    17    2
     9    26    25    1
    10    22    20   ar
    11   124   125    1
    12   124   123    1
    13   125   126    2
    14    16    17    1
    15    16    19    1
    16    25    23   ar
    17     4     3    2
    18     1     2    1
    19   123   118   am
    20    20    19    1
    21    20    21   ar
    22    23    21   ar
    23     3    10   am
    24     3     2    1
    25   122   116    1
    26   122   121    1
    27    10    11    1
    28   116   117    1
    29     2     5    1
    30    12    13    2
    31    12    11    1
    32    31    32    1
    33    31    28    1
    34    32    33    1
    35   118   117    1
    36   118   119    2
    37    11    14    1
    38   121   120    1
    39   131   132    1
    40   117   120    1
    41     5     6    1
    42    34    33    1
    43    27    28    1
    44    28    29    1
    45   143   145   ar
    46   143   141   ar
    47    30    29    2
    48   140   141    1
    49   140   137    1
    50   145   146   ar
    51   141   142   ar
    52   139   138    2
    53   136   137    1
    54   136   133   am
    55   132   133    1
    56   132   135    1
    57    91    92   ar
    58    91    89   ar
    59     6     7    1
    60    92    90   ar
    61   137   138    1
    62   133   134    2
    63   111   110    2
    64   146   147    1
    65   146   144   ar
    66   142   144   ar
    67     8     7    2
    68    89    87   ar
    69     7     9   am
    70    43    41   ar
    71    43    44   ar
    72    90    88   ar
    73    46    44   ar
    74    46    48   ar
    75   115   113    1
    76    41    40   ar
    77    44    42   ar
    78   110   109    1
    79    48    47   ar
    80    87    88   ar
    81    87    86    1
    82   112   109    1
    83   112   113    1
    84    40    42   ar
    85    40    39    1
    86    42    45   ar
    87   109   108    1
    88   113   114    1
    89    47    45   ar
    90    39    36    1
    91    86    83    1
    92    67    66   ar
    93    67    65   ar
    94    66    64   ar
    95    65    63   ar
    96    36    35    1
    97    36    37    1
    98    64    62   ar
    99    83    82    1
   100    83    84    1
   101    63    62   ar
   102    62    61    1
   103    37    38    2
   104    37    49   am
   105    55    54   ar
   106   107   105    1
   107    84    85    2
   108    61    58    1
   109   153   154    1
   110   153   152    1
   111    49    50    1
   112   154   148    1
   113   105   106    1
   114   105   102    1
   115    54    56   ar
   116    54    53    1
   117    50    53    1
   118    50    51    1
   119   103   102    1
   120   103   104    2
   121    58    57    1
   122    58    59    1
   123   152   149    1
   124   148   149    1
   125   102   101    1
   126    51    52    2
   127    59    60    2
   128    59    68   am
   129   149   150    1
   130   150   151    2
   131    68    69    1
   132    69    70    1
   133    69    72    1
   134    96    95    2
   135    70    71    2
   136    95    94    1
   137    72    73    1
   138    93    94    1
   139    94    97    1
   140    73    74   ar
   141    73    75   ar
   142    74    76   ar
   143    99    98    1
   144    97    98    1
   145    98   100    1
   146    75    78   ar
   147    75    77   ar
   148    76    77   ar
   149    78    80   ar
   150    77    79   ar
   151    80    81   ar
   152    79    81   ar
