@<TRIPOS>MOLECULE
tmp/3ftzA00.pdb
 152 151 0 0 0
SMALL
GASTEIGER

@<TRIPOS>ATOM
      1  N         32.4010   -3.3740   -3.7650 N.3   133  GLN133     -0.1231
      2  CA        31.5080   -3.0010   -2.6610 C.3   133  GLN133      0.1698
      3  C         30.3010   -2.2310   -3.2330 C.2   133  GLN133      0.2592
      4  O         30.4920   -1.3450   -4.0560 O.2   133  GLN133     -0.2718
      5  CB        32.2410   -2.2280   -1.5450 C.3   133  GLN133      0.0381
      6  CG        31.4770   -2.2660   -0.1930 C.3   133  GLN133      0.0905
      7  CD        32.1290   -1.4450    0.9250 C.2   133  GLN133      0.2608
      8  OE1       32.6030   -0.3500    0.6990 O.2   133  GLN133     -0.2717
      9  NE2       32.1150   -1.9740    2.1390 N.am  133  GLN133     -0.0878
     10  N         29.0700   -2.5970   -2.8630 N.am  134  ALA134     -0.1980
     11  CA        28.7540   -3.6790   -1.9120 C.3   134  ALA134      0.1597
     12  C         28.5430   -5.0590   -2.5510 C.2   134  ALA134      0.2287
     13  O         29.0470   -6.0690   -2.0480 O.2   134  ALA134     -0.2864
     14  CB        27.4810   -3.2930   -1.1190 C.3   134  ALA134      0.0319
     15  N         34.6700    6.5830   -5.5300 N.3   264  TYR264     -0.1241
     16  CA        34.7250    6.9530   -4.1170 C.3   264  TYR264      0.1605
     17  C         36.0550    7.6240   -3.7450 C.2   264  TYR264      0.2264
     18  O         37.0370    7.5770   -4.5110 O.2   264  TYR264     -0.2867
     19  CB        34.4530    5.7320   -3.2160 C.3   264  TYR264      0.0534
     20  CG        33.1310    5.0380   -3.4890 C.ar  264  TYR264     -0.0201
     21  CD1       31.9380    5.5280   -2.9400 C.ar  264  TYR264     -0.0009
     22  CD2       33.0630    3.9160   -4.3070 C.ar  264  TYR264     -0.0009
     23  CE1       30.7170    4.9040   -3.1930 C.ar  264  TYR264      0.0417
     24  CE2       31.8370    3.2840   -4.5650 C.ar  264  TYR264      0.0417
     25  CZ        30.6810    3.7800   -3.9940 C.ar  264  TYR264      0.1957
     26  OH        29.4740    3.1790   -4.2490 O.3   264  TYR264     -0.2866
     27  N         24.5080   -5.9860    4.7960 N.3   308  TRP308     -0.1227
     28  CA        24.6590   -4.5680    4.5020 C.3   308  TRP308      0.1737
     29  C         23.6930   -3.7070    5.3200 C.2   308  TRP308      0.2595
     30  O         23.8430   -2.4990    5.3790 O.2   308  TRP308     -0.2718
     31  CB        24.5200   -4.3560    2.9980 C.3   308  TRP308      0.0564
     32  CG        25.6210   -5.0420    2.2670 C.ar  308  TRP308      0.0003
     33  CD1       25.5140   -6.1220    1.4120 C.ar  308  TRP308      0.0946
     34  CD2       27.0140   -4.7250    2.3490 C.ar  308  TRP308      0.0152
     35  NE1       26.7650   -6.4680    0.9510 N.ar  308  TRP308     -0.2442
     36  CE2       27.6980   -5.6300    1.5100 C.ar  308  TRP308      0.0810
     37  CE3       27.7510   -3.7450    3.0470 C.ar  308  TRP308      0.0012
     38  CZ2       29.0910   -5.6010    1.3550 C.ar  308  TRP308      0.0191
     39  CZ3       29.1300   -3.7110    2.8940 C.ar  308  TRP308      0.0001
     40  CH2       29.7880   -4.6350    2.0460 C.ar  308  TRP308      0.0015
     41  N         22.7070   -4.3460    5.9590 N.am  309  ASP309     -0.1974
     42  CA        21.8010   -3.6620    6.8710 C.3   309  ASP309      0.1709
     43  C         22.5950   -3.0770    8.0430 C.2   309  ASP309      0.2293
     44  O         22.1550   -2.1190    8.6770 O.2   309  ASP309     -0.2864
     45  CB        20.7740   -4.6470    7.4300 C.3   309  ASP309      0.1436
     46  CG        19.6770   -5.0250    6.4320 C.2   309  ASP309      0.3671
     47  OD1       19.6180   -4.5060    5.2820 O.co2 309  ASP309     -0.2456
     48  OD2       18.8320   -5.8600    6.8330 O.co2 309  ASP309     -0.2456
     49  N         25.8620   -1.9590    7.8910 N.3   311  PHE311     -0.1227
     50  CA        26.9660   -1.1910    7.2820 C.3   311  PHE311      0.1736
     51  C         27.5140   -0.1160    8.1960 C.2   311  PHE311      0.2595
     52  O         28.7140    0.1640    8.1560 O.2   311  PHE311     -0.2718
     53  CB        26.4610   -0.5960    5.9460 C.3   311  PHE311      0.0547
     54  CG        27.4970    0.1650    5.1340 C.ar  311  PHE311     -0.0202
     55  CD1       28.6770   -0.4520    4.6850 C.ar  311  PHE311     -0.0042
     56  CD2       27.2430    1.4850    4.7430 C.ar  311  PHE311     -0.0042
     57  CE1       29.6080    0.2560    3.9010 C.ar  311  PHE311     -0.0003
     58  CE2       28.1680    2.2000    3.9600 C.ar  311  PHE311     -0.0003
     59  CZ        29.3450    1.5900    3.5420 C.ar  311  PHE311     -0.0000
     60  N         26.6670    0.4670    9.0570 N.am  312  TRP312     -0.1976
     61  CA        27.1710    1.4310   10.0560 C.3   312  TRP312      0.1640
     62  C         28.3210    0.8680   10.9090 C.2   312  TRP312      0.2290
     63  O         29.2340    1.6020   11.3050 O.2   312  TRP312     -0.2864
     64  CB        26.0310    1.9940   10.9260 C.3   312  TRP312      0.0576
     65  CG        25.6900    1.1640   12.1340 C.ar  312  TRP312      0.0006
     66  CD1       24.7940    0.1340   12.2000 C.ar  312  TRP312      0.0946
     67  CD2       26.2370    1.3070   13.4610 C.ar  312  TRP312      0.0152
     68  NE1       24.7630   -0.3830   13.4740 N.ar  312  TRP312     -0.2442
     69  CE2       25.6360    0.3220   14.2660 C.ar  312  TRP312      0.0810
     70  CE3       27.1990    2.1540   14.0300 C.ar  312  TRP312      0.0012
     71  CZ2       25.9610    0.1600   15.6260 C.ar  312  TRP312      0.0191
     72  CZ3       27.5100    2.0130   15.3780 C.ar  312  TRP312      0.0001
     73  CH2       26.8950    1.0090   16.1580 C.ar  312  TRP312      0.0015
     74  N         16.2270    5.6610    4.9120 N.3   359  PHE359     -0.1241
     75  CA        17.6890    5.6810    4.7650 C.3   359  PHE359      0.1605
     76  C         18.4080    6.5630    5.7880 C.2   359  PHE359      0.2264
     77  O         19.6240    6.6900    5.7150 O.2   359  PHE359     -0.2867
     78  CB        18.1400    6.1100    3.3560 C.3   359  PHE359      0.0534
     79  CG        17.6190    5.2470    2.2260 C.ar  359  PHE359     -0.0203
     80  CD1       17.0350    3.9940    2.4610 C.ar  359  PHE359     -0.0042
     81  CD2       17.7410    5.6960    0.9000 C.ar  359  PHE359     -0.0042
     82  CE1       16.5710    3.2140    1.4030 C.ar  359  PHE359     -0.0003
     83  CE2       17.2780    4.9230   -0.1650 C.ar  359  PHE359     -0.0003
     84  CZ        16.6920    3.6810    0.0860 C.ar  359  PHE359     -0.0000
     85  N         19.9560    4.3340   11.3990 N.3   362  LEU362     -0.1245
     86  CA        21.3010    3.8080   11.5020 C.3   362  LEU362      0.1561
     87  C         21.3840    2.3920   10.9310 C.2   362  LEU362      0.2260
     88  O         22.2740    2.0760   10.1240 O.2   362  LEU362     -0.2867
     89  CB        21.7660    3.8350   12.9600 C.3   362  LEU362      0.0270
     90  CG        23.2360    3.4770   13.2070 C.3   362  LEU362      0.0019
     91  CD1       24.2070    4.4140   12.4630 C.3   362  LEU362      0.0001
     92  CD2       23.4900    3.5080   14.7090 C.3   362  LEU362      0.0001
     93  N         19.4590   -0.1750    8.6390 N.3   364  VAL364     -0.1245
     94  CA        18.4800   -0.0610    7.5610 C.3   364  VAL364      0.1561
     95  C         17.9720   -1.4370    7.1250 C.2   364  VAL364      0.2260
     96  O         18.5710   -2.4620    7.4260 O.2   364  VAL364     -0.2867
     97  CB        19.0740    0.6690    6.3350 C.3   364  VAL364      0.0252
     98  CG1       19.5160    2.0950    6.7050 C.3   364  VAL364      0.0019
     99  CG2       20.2250   -0.1290    5.7550 C.3   364  VAL364      0.0019
    100  N         17.4150   -3.3080    3.8110 N.3   366  LEU366     -0.1245
    101  CA        17.7280   -3.2090    2.3940 C.3   366  LEU366      0.1561
    102  C         16.9180   -4.1550    1.4860 C.2   366  LEU366      0.2260
    103  O         17.2330   -4.2860    0.3050 O.2   366  LEU366     -0.2867
    104  CB        19.2340   -3.3960    2.1640 C.3   366  LEU366      0.0270
    105  CG        20.0990   -2.2120    2.6180 C.3   366  LEU366      0.0019
    106  CD1       21.5640   -2.5410    2.4820 C.3   366  LEU366      0.0001
    107  CD2       19.7540   -0.9110    1.8830 C.3   366  LEU366      0.0001
    108  N         21.7300   -1.3210   -2.7580 N.3   371  PRO371     -0.2102
    109  CA        22.6420   -0.6720   -1.8090 C.3   371  PRO371      0.1504
    110  C         23.2840    0.6140   -2.3570 C.2   371  PRO371      0.2575
    111  O         23.5740    1.5240   -1.5730 O.2   371  PRO371     -0.2718
    112  CB        23.7110   -1.7360   -1.5780 C.3   371  PRO371      0.0282
    113  CG        22.9730   -3.0250   -1.7900 C.3   371  PRO371      0.0208
    114  CD        22.0840   -2.7410   -2.9550 C.3   371  PRO371      0.0893
    115  N         23.5080    0.6840   -3.6740 N.am  372  ASP372     -0.1974
    116  CA        24.1360    1.8600   -4.2740 C.3   372  ASP372      0.1708
    117  C         23.2150    3.0690   -4.2040 C.2   372  ASP372      0.2293
    118  O         23.6830    4.2070   -4.1620 O.2   372  ASP372     -0.2864
    119  CB        24.5090    1.6090   -5.7430 C.3   372  ASP372      0.1436
    120  CG        25.6570    0.6160   -5.9030 C.2   372  ASP372      0.3671
    121  OD1       26.4530    0.4540   -4.9570 O.co2 372  ASP372     -0.2456
    122  OD2       25.7690   -0.0020   -6.9910 O.co2 372  ASP372     -0.2456
    123  N         20.8240    3.4370   -1.8100 N.3   374  ALA374     -0.1231
    124  CA        20.7140    3.7490   -0.3720 C.3   374  ALA374      0.1694
    125  C         21.9620    4.4070    0.2480 C.2   374  ALA374      0.2592
    126  O         21.8570    5.0970    1.2580 O.2   374  ALA374     -0.2718
    127  CB        20.3650    2.4680    0.4180 C.3   374  ALA374      0.0304
    128  N         23.1350    4.1350   -0.3260 N.am  375  TYR375     -0.1962
    129  CA        24.4040    4.6950    0.1300 C.3   375  TYR375      0.1771
    130  C         24.3450    6.2100    0.3920 C.2   375  TYR375      0.2620
    131  O         23.8410    6.9680   -0.4340 O.2   375  TYR375     -0.2715
    132  CB        25.4980    4.4010   -0.9050 C.3   375  TYR375      0.0574
    133  CG        26.8430    4.9190   -0.4710 C.ar  375  TYR375     -0.0198
    134  CD1       27.6400    4.1860    0.4180 C.ar  375  TYR375     -0.0009
    135  CD2       27.3080    6.1590   -0.9150 C.ar  375  TYR375     -0.0009
    136  CE1       28.8670    4.6690    0.8320 C.ar  375  TYR375      0.0417
    137  CE2       28.5300    6.6530   -0.5000 C.ar  375  TYR375      0.0417
    138  CZ        29.3030    5.9070    0.3690 C.ar  375  TYR375      0.1957
    139  OH        30.5150    6.3960    0.7790 O.3   375  TYR375     -0.2866
    140  N         24.8490    6.6320    1.5550 N.am  376  SER376     -0.1950
    141  CA        24.9220    8.0620    1.9300 C.3   376  SER376      0.1924
    142  C         25.8840    8.2290    3.0870 C.2   376  SER376      0.2314
    143  O         26.4920    7.2630    3.5430 O.2   376  SER376     -0.2863
    144  CB        23.5610    8.5850    2.4020 C.3   376  SER376      0.2116
    145  OG        23.2810    8.1750    3.7490 O.3   376  SER376     -0.2180
    146  N         25.3000    6.2120    7.5380 N.3   379  PRO379     -0.2116
    147  CA        25.9910    5.2080    8.3630 C.3   379  PRO379      0.1372
    148  C         27.3270    5.7110    8.9040 C.2   379  PRO379      0.2244
    149  O         27.7130    5.3420   10.0250 O.2   379  PRO379     -0.2868
    150  CB        26.2050    4.0280    7.3960 C.3   379  PRO379      0.0268
    151  CG        25.9290    4.5830    6.0210 C.3   379  PRO379      0.0207
    152  CD        24.9110    5.6600    6.2290 C.3   379  PRO379      0.0892
@<TRIPOS>BOND
     1   122   120   ar
     2   120   119    1
     3   120   121   ar
     4   119   116    1
     5    15    16    1
     6    24    22   ar
     7    24    25   ar
     8    18    17    2
     9    22    20   ar
    10   116   117    1
    11   116   115    1
    12    26    25    1
    13   117   118    2
    14    16    17    1
    15    16    19    1
    16     4     3    2
    17    25    23   ar
    18     1     2    1
    19   115   110   am
    20    20    19    1
    21    20    21   ar
    22     3    10   am
    23     3     2    1
    24    23    21   ar
    25   114   108    1
    26   114   113    1
    27    10    11    1
    28   108   109    1
    29     2     5    1
    30    12    13    2
    31    12    11    1
    32   110   109    1
    33   110   111    2
    34    11    14    1
    35   123   124    1
    36   109   112    1
    37   113   112    1
    38     5     6    1
    39   135   137   ar
    40   135   133   ar
    41   132   133    1
    42   132   129    1
    43   137   138   ar
    44   133   134   ar
    45   131   130    2
    46   124   125    1
    47   124   127    1
    48   128   129    1
    49   128   125   am
    50     6     7    1
    51    83    84   ar
    52    83    81   ar
    53    84    82   ar
    54   129   130    1
    55   125   126    2
    56   103   102    2
    57   138   139    1
    58   138   136   ar
    59   130   140   am
    60   134   136   ar
    61     8     7    2
    62    81    79   ar
    63     7     9   am
    64    35    33   ar
    65    35    36   ar
    66    38    36   ar
    67    38    40   ar
    68    82    80   ar
    69    33    32   ar
    70   102   101    1
    71    36    34   ar
    72   140   141    1
    73   107   105    1
    74   141   144    1
    75   141   142    1
    76    40    39   ar
    77   104   101    1
    78   104   105    1
    79    79    80   ar
    80    79    78    1
    81    32    34   ar
    82    32    31    1
    83    34    37   ar
    84   101   100    1
    85   144   145    1
    86   106   105    1
    87    39    37   ar
    88    31    28    1
    89   142   143    2
    90    78    75    1
    91    59    57   ar
    92    59    58   ar
    93    57    55   ar
    94    58    56   ar
    95    28    27    1
    96    28    29    1
    97    55    54   ar
    98    56    54   ar
    99    75    74    1
   100    75    76    1
   101    54    53    1
   102    47    46   ar
   103    29    30    2
   104    29    41   am
   105    77    76    2
   106    99    97    1
   107    53    50    1
   108    41    42    1
   109   151   152    1
   110   151   150    1
   111   152   146    1
   112    97    98    1
   113    97    94    1
   114    46    48   ar
   115    46    45    1
   116    42    45    1
   117    42    43    1
   118    95    96    2
   119    95    94    1
   120    50    49    1
   121    50    51    1
   122   150   147    1
   123   146   147    1
   124    94    93    1
   125    43    44    2
   126    52    51    2
   127    51    60   am
   128   147   148    1
   129   148   149    2
   130    60    61    1
   131    61    62    1
   132    61    64    1
   133    88    87    2
   134    62    63    2
   135    64    65    1
   136    87    86    1
   137    85    86    1
   138    86    89    1
   139    65    66   ar
   140    65    67   ar
   141    66    68   ar
   142    91    90    1
   143    89    90    1
   144    90    92    1
   145    67    70   ar
   146    67    69   ar
   147    68    69   ar
   148    70    72   ar
   149    69    71   ar
   150    72    73   ar
   151    71    73   ar
