@<TRIPOS>MOLECULE
tmp/3fu0A00.pdb
 152 151 0 0 0
SMALL
GASTEIGER

@<TRIPOS>ATOM
      1  N         32.7080    3.3230    3.7530 N.3   133  GLN133     -0.1231
      2  CA        31.8060    3.0110    2.6650 C.3   133  GLN133      0.1698
      3  C         30.6240    2.2500    3.2720 C.2   133  GLN133      0.2592
      4  O         30.8460    1.3720    4.1310 O.2   133  GLN133     -0.2718
      5  CB        32.5240    2.1960    1.5670 C.3   133  GLN133      0.0381
      6  CG        31.7520    2.1820    0.2560 C.3   133  GLN133      0.0905
      7  CD        32.4290    1.4000   -0.8300 C.2   133  GLN133      0.2608
      8  OE1       32.8990    0.2940   -0.6060 O.2   133  GLN133     -0.2717
      9  NE2       32.4200    1.9350   -2.0300 N.am  133  GLN133     -0.0878
     10  N         29.3740    2.5470    2.8810 N.am  134  ALA134     -0.1980
     11  CA        28.9610    3.5930    1.9280 C.3   134  ALA134      0.1597
     12  C         28.8620    4.9540    2.5830 C.2   134  ALA134      0.2287
     13  O         29.4550    5.9310    2.0740 O.2   134  ALA134     -0.2864
     14  CB        27.5760    3.2300    1.3360 C.3   134  ALA134      0.0319
     15  N         35.1150   -6.6640    5.5240 N.3   264  TYR264     -0.1241
     16  CA        35.1460   -6.9910    4.0820 C.3   264  TYR264      0.1605
     17  C         36.4500   -7.6770    3.7310 C.2   264  TYR264      0.2264
     18  O         37.4120   -7.6150    4.5110 O.2   264  TYR264     -0.2867
     19  CB        35.0040   -5.7250    3.2280 C.3   264  TYR264      0.0534
     20  CG        33.6830   -5.0290    3.4620 C.ar  264  TYR264     -0.0201
     21  CD1       32.5430   -5.4010    2.7440 C.ar  264  TYR264     -0.0009
     22  CD2       33.5630   -4.0360    4.4330 C.ar  264  TYR264     -0.0009
     23  CE1       31.3140   -4.7820    2.9950 C.ar  264  TYR264      0.0417
     24  CE2       32.3480   -3.4100    4.6820 C.ar  264  TYR264      0.0417
     25  CZ        31.2350   -3.7730    3.9680 C.ar  264  TYR264      0.1957
     26  OH        30.0310   -3.1350    4.1980 O.3   264  TYR264     -0.2866
     27  N         24.6580    5.8960   -4.5950 N.3   308  TRP308     -0.1227
     28  CA        24.8230    4.4760   -4.3020 C.3   308  TRP308      0.1737
     29  C         23.9030    3.5820   -5.1480 C.2   308  TRP308      0.2595
     30  O         24.1290    2.3750   -5.2240 O.2   308  TRP308     -0.2718
     31  CB        24.6920    4.2370   -2.7930 C.3   308  TRP308      0.0564
     32  CG        25.8050    4.9410   -2.0530 C.ar  308  TRP308      0.0003
     33  CD1       25.7030    6.0480   -1.2170 C.ar  308  TRP308      0.0946
     34  CD2       27.2010    4.6590   -2.1820 C.ar  308  TRP308      0.0152
     35  NE1       26.9650    6.4040   -0.7850 N.ar  308  TRP308     -0.2442
     36  CE2       27.8940    5.5740   -1.3650 C.ar  308  TRP308      0.0810
     37  CE3       27.9330    3.6960   -2.8990 C.ar  308  TRP308      0.0012
     38  CZ2       29.2920    5.5650   -1.2530 C.ar  308  TRP308      0.0191
     39  CZ3       29.3270    3.6910   -2.7950 C.ar  308  TRP308      0.0001
     40  CH2       29.9850    4.6070   -1.9640 C.ar  308  TRP308      0.0015
     41  N         22.8930    4.1820   -5.7890 N.am  309  ASP309     -0.1974
     42  CA        22.0190    3.4620   -6.7240 C.3   309  ASP309      0.1709
     43  C         22.8380    2.8770   -7.8670 C.2   309  ASP309      0.2293
     44  O         22.4380    1.8830   -8.5200 O.2   309  ASP309     -0.2864
     45  CB        20.9570    4.3960   -7.3390 C.3   309  ASP309      0.1436
     46  CG        19.8850    4.8300   -6.3420 C.2   309  ASP309      0.3671
     47  OD1       19.9150    4.4310   -5.1640 O.co2 309  ASP309     -0.2456
     48  OD2       18.9950    5.6050   -6.7480 O.co2 309  ASP309     -0.2456
     49  N         26.0490    1.8010   -7.7130 N.3   311  PHE311     -0.1227
     50  CA        27.1670    1.0420   -7.1340 C.3   311  PHE311      0.1736
     51  C         27.7260    0.0160   -8.1060 C.2   311  PHE311      0.2595
     52  O         28.9430   -0.2110   -8.1550 O.2   311  PHE311     -0.2718
     53  CB        26.7010    0.3920   -5.8250 C.3   311  PHE311      0.0547
     54  CG        27.7950   -0.3150   -5.0120 C.ar  311  PHE311     -0.0202
     55  CD1       28.9080    0.3650   -4.5330 C.ar  311  PHE311     -0.0042
     56  CD2       27.6250   -1.6580   -4.6500 C.ar  311  PHE311     -0.0042
     57  CE1       29.8920   -0.3140   -3.7560 C.ar  311  PHE311     -0.0003
     58  CE2       28.5930   -2.3380   -3.8700 C.ar  311  PHE311     -0.0003
     59  CZ        29.7150   -1.6700   -3.4360 C.ar  311  PHE311     -0.0000
     60  N         26.8680   -0.6080   -8.9080 N.am  312  TRP312     -0.1976
     61  CA        27.3930   -1.5590   -9.8940 C.3   312  TRP312      0.1640
     62  C         28.4590   -0.9720  -10.8460 C.2   312  TRP312      0.2290
     63  O         29.3050   -1.7050  -11.3620 O.2   312  TRP312     -0.2864
     64  CB        26.2430   -2.1820  -10.7020 C.3   312  TRP312      0.0576
     65  CG        25.8610   -1.3310  -11.8930 C.ar  312  TRP312      0.0006
     66  CD1       24.9900   -0.2930  -11.9030 C.ar  312  TRP312      0.0946
     67  CD2       26.3680   -1.4480  -13.2330 C.ar  312  TRP312      0.0152
     68  NE1       24.9100    0.2480  -13.1590 N.ar  312  TRP312     -0.2442
     69  CE2       25.7440   -0.4470  -13.9990 C.ar  312  TRP312      0.0810
     70  CE3       27.2970   -2.2920  -13.8520 C.ar  312  TRP312      0.0012
     71  CZ2       26.0150   -0.2650  -15.3590 C.ar  312  TRP312      0.0191
     72  CZ3       27.5530   -2.1290  -15.2260 C.ar  312  TRP312      0.0001
     73  CH2       26.9080   -1.1270  -15.9560 C.ar  312  TRP312      0.0015
     74  N         16.4990   -5.8950   -4.6400 N.3   359  PHE359     -0.1241
     75  CA        17.9630   -5.8640   -4.4580 C.3   359  PHE359      0.1605
     76  C         18.6900   -6.7300   -5.4930 C.2   359  PHE359      0.2264
     77  O         19.9140   -6.7160   -5.5430 O.2   359  PHE359     -0.2867
     78  CB        18.3940   -6.3210   -3.0560 C.3   359  PHE359      0.0534
     79  CG        17.8570   -5.4660   -1.9220 C.ar  359  PHE359     -0.0203
     80  CD1       17.2670   -4.2240   -2.1690 C.ar  359  PHE359     -0.0042
     81  CD2       17.9580   -5.9150   -0.5960 C.ar  359  PHE359     -0.0042
     82  CE1       16.7660   -3.4530   -1.0990 C.ar  359  PHE359     -0.0003
     83  CE2       17.4710   -5.1520    0.4700 C.ar  359  PHE359     -0.0003
     84  CZ        16.8770   -3.9220    0.2180 C.ar  359  PHE359     -0.0000
     85  N         20.0680   -4.4960  -11.0940 N.3   362  LEU362     -0.1245
     86  CA        21.4170   -3.9890  -11.2190 C.3   362  LEU362      0.1561
     87  C         21.4880   -2.5590  -10.6940 C.2   362  LEU362      0.2260
     88  O         22.3780   -2.2230   -9.9020 O.2   362  LEU362     -0.2867
     89  CB        21.9030   -4.0370  -12.6540 C.3   362  LEU362      0.0270
     90  CG        23.3650   -3.7150  -12.9100 C.3   362  LEU362      0.0019
     91  CD1       24.3640   -4.6640  -12.1630 C.3   362  LEU362      0.0001
     92  CD2       23.6220   -3.6930  -14.4220 C.3   362  LEU362      0.0001
     93  N         19.6280    0.0100   -8.3810 N.3   364  VAL364     -0.1245
     94  CA        18.7240   -0.1640   -7.2680 C.3   364  VAL364      0.1561
     95  C         18.2610    1.1890   -6.7460 C.2   364  VAL364      0.2260
     96  O         19.0120    2.1500   -6.7400 O.2   364  VAL364     -0.2867
     97  CB        19.4340   -0.9140   -6.1530 C.3   364  VAL364      0.0252
     98  CG1       18.5570   -0.9740   -4.8990 C.3   364  VAL364      0.0019
     99  CG2       19.8180   -2.3360   -6.6270 C.3   364  VAL364      0.0019
    100  N         17.6800    3.2520   -3.7080 N.3   366  LEU366     -0.1245
    101  CA        17.9940    3.1500   -2.2760 C.3   366  LEU366      0.1561
    102  C         17.2190    4.1010   -1.3540 C.2   366  LEU366      0.2260
    103  O         17.5390    4.2390   -0.1760 O.2   366  LEU366     -0.2867
    104  CB        19.4900    3.2680   -2.0490 C.3   366  LEU366      0.0270
    105  CG        20.2290    2.0090   -2.5220 C.3   366  LEU366      0.0019
    106  CD1       21.7120    2.2200   -2.4010 C.3   366  LEU366      0.0001
    107  CD2       19.7740    0.7490   -1.7450 C.3   366  LEU366      0.0001
    108  N         22.0580    1.2930    2.8270 N.3   371  PRO371     -0.2102
    109  CA        22.9460    0.6330    1.8760 C.3   371  PRO371      0.1504
    110  C         23.5830   -0.6620    2.4240 C.2   371  PRO371      0.2575
    111  O         23.8150   -1.5900    1.6470 O.2   371  PRO371     -0.2718
    112  CB        24.0100    1.7060    1.5880 C.3   371  PRO371      0.0282
    113  CG        23.2960    2.9970    1.8390 C.3   371  PRO371      0.0208
    114  CD        22.3810    2.7200    3.0010 C.3   371  PRO371      0.0893
    115  N         23.8240   -0.7310    3.7370 N.am  372  ASP372     -0.1974
    116  CA        24.4180   -1.9240    4.3430 C.3   372  ASP372      0.1708
    117  C         23.4940   -3.1450    4.2740 C.2   372  ASP372      0.2293
    118  O         23.9660   -4.2920    4.2060 O.2   372  ASP372     -0.2864
    119  CB        24.7980   -1.6540    5.7910 C.3   372  ASP372      0.1436
    120  CG        26.0270   -0.7600    5.9270 C.2   372  ASP372      0.3671
    121  OD1       26.8630   -0.7030    4.9810 O.co2 372  ASP372     -0.2456
    122  OD2       26.1620   -0.1210    6.9980 O.co2 372  ASP372     -0.2456
    123  N         21.1840   -3.5430    1.8370 N.3   374  ALA374     -0.1231
    124  CA        21.0470   -3.8570    0.4170 C.3   374  ALA374      0.1694
    125  C         22.3080   -4.5100   -0.1680 C.2   374  ALA374      0.2592
    126  O         22.2480   -5.1300   -1.2250 O.2   374  ALA374     -0.2718
    127  CB        20.7200   -2.5980   -0.3670 C.3   374  ALA374      0.0304
    128  N         23.4420   -4.3500    0.4990 N.am  375  TYR375     -0.1962
    129  CA        24.7340   -4.8750    0.0140 C.3   375  TYR375      0.1771
    130  C         24.7250   -6.3890   -0.2680 C.2   375  TYR375      0.2620
    131  O         24.2880   -7.1760    0.5560 O.2   375  TYR375     -0.2715
    132  CB        25.8850   -4.5280    0.9870 C.3   375  TYR375      0.0574
    133  CG        27.2630   -5.0220    0.5210 C.ar  375  TYR375     -0.0198
    134  CD1       28.0310   -4.2820   -0.3850 C.ar  375  TYR375     -0.0009
    135  CD2       27.7910   -6.2250    1.0000 C.ar  375  TYR375     -0.0009
    136  CE1       29.2700   -4.7250   -0.8210 C.ar  375  TYR375      0.0417
    137  CE2       29.0260   -6.6630    0.5960 C.ar  375  TYR375      0.0417
    138  CZ        29.7640   -5.9320   -0.3280 C.ar  375  TYR375      0.1957
    139  OH        31.0040   -6.4010   -0.7370 O.3   375  TYR375     -0.2866
    140  N         25.2120   -6.7740   -1.4410 N.am  376  SER376     -0.1950
    141  CA        25.3310   -8.1890   -1.8150 C.3   376  SER376      0.1924
    142  C         26.2500   -8.3410   -3.0220 C.2   376  SER376      0.2314
    143  O         26.7700   -7.3580   -3.5320 O.2   376  SER376     -0.2863
    144  CB        23.9630   -8.7280   -2.1910 C.3   376  SER376      0.2116
    145  OG        23.5770   -8.2940   -3.4890 O.3   376  SER376     -0.2180
    146  N         25.5960   -6.4050   -7.4070 N.3   379  PRO379     -0.2116
    147  CA        26.2310   -5.3880   -8.2430 C.3   379  PRO379      0.1372
    148  C         27.5690   -5.8720   -8.8010 C.2   379  PRO379      0.2244
    149  O         27.9830   -5.4360   -9.8850 O.2   379  PRO379     -0.2868
    150  CB        26.4260   -4.1970   -7.2760 C.3   379  PRO379      0.0268
    151  CG        26.1650   -4.7700   -5.8610 C.3   379  PRO379      0.0207
    152  CD        25.2120   -5.8940   -6.0830 C.3   379  PRO379      0.0892
@<TRIPOS>BOND
     1    73    71   ar
     2    73    72   ar
     3    71    69   ar
     4    72    70   ar
     5    92    90    1
     6    69    67   ar
     7    69    68   ar
     8    70    67   ar
     9    67    65   ar
    10    68    66   ar
    11    90    89    1
    12    90    91    1
    13    89    86    1
    14    66    65   ar
    15    65    64    1
    16    63    62    2
    17    86    85    1
    18    86    87    1
    19    62    61    1
    20    64    61    1
    21    87    88    2
    22    61    60    1
    23   149   148    2
    24    60    51   am
    25   148   147    1
    26    44    43    2
    27    93    94    1
    28   147   146    1
    29   147   150    1
    30    52    51    2
    31    51    50    1
    32    43    42    1
    33    49    50    1
    34   146   152    1
    35    45    42    1
    36    45    46    1
    37   150   151    1
    38    94    95    1
    39    94    97    1
    40    50    53    1
    41    48    46   ar
    42    95    96    2
    43    42    41    1
    44    99    97    1
    45    46    47   ar
    46    97    98    1
    47   152   151    1
    48    53    54    1
    49    41    29   am
    50    77    76    2
    51    76    75    1
    52    30    29    2
    53    29    28    1
    54    54    56   ar
    55    54    55   ar
    56    56    58   ar
    57    74    75    1
    58    27    28    1
    59    55    57   ar
    60    75    78    1
    61    28    31    1
    62    58    59   ar
    63    57    59   ar
    64   100   101    1
    65   143   142    2
    66   145   144    1
    67    78    79    1
    68   142   141    1
    69    37    39   ar
    70    37    34   ar
    71    39    40   ar
    72    31    32    1
    73   105   106    1
    74   105   104    1
    75   105   107    1
    76   101   104    1
    77   101   102    1
    78   144   141    1
    79    34    32   ar
    80    34    36   ar
    81    80    79   ar
    82    80    82   ar
    83    32    33   ar
    84     9     7   am
    85    40    38   ar
    86    79    81   ar
    87   141   140    1
    88   140   130   am
    89    36    38   ar
    90    36    35   ar
    91   102   103    2
    92   126   125    2
    93    33    35   ar
    94    82    84   ar
    95     7     8    2
    96     7     6    1
    97   136   134   ar
    98   136   138   ar
    99   139   138    1
   100    81    83   ar
   101   134   133   ar
   102   127   124    1
   103   138   137   ar
   104   130   129    1
   105   130   131    2
   106   125   124    1
   107   125   128   am
   108   129   128    1
   109   129   132    1
   110    84    83   ar
   111     6     5    1
   112   124   123    1
   113   133   132    1
   114   133   135   ar
   115   137   135   ar
   116    14    11    1
   117     5     2    1
   118   112   113    1
   119   112   109    1
   120   111   110    2
   121   113   114    1
   122   109   110    1
   123   109   108    1
   124    11    12    1
   125    11    10    1
   126    13    12    2
   127   110   115   am
   128     2     3    1
   129     2     1    1
   130    21    23   ar
   131    21    20   ar
   132   108   114    1
   133    10     3   am
   134    23    25   ar
   135    19    20    1
   136    19    16    1
   137     3     4    2
   138    20    22   ar
   139    17    16    1
   140    17    18    2
   141   115   116    1
   142    25    26    1
   143    25    24   ar
   144    16    15    1
   145   118   117    2
   146   117   116    1
   147   116   119    1
   148    22    24   ar
   149   121   120   ar
   150   119   120    1
   151   120   122   ar
