@<TRIPOS>MOLECULE
tmp/3fu3A00.pdb
 98 90 0 0 0
SMALL
GASTEIGER

@<TRIPOS>ATOM
      1  N         -6.0690   17.7380   14.4600 N.3   340  LEU340     -0.1231
      2  CA        -7.1170   18.7420   14.2740 C.3   340  LEU340      0.1693
      3  C         -7.3860   18.9600   12.7920 C.2   340  LEU340      0.2592
      4  O         -8.5300   19.1790   12.3920 O.2   340  LEU340     -0.2718
      5  CB        -6.7400   20.0520   14.9780 C.3   340  LEU340      0.0284
      6  CG        -7.7960   21.1660   14.9440 C.3   340  LEU340      0.0019
      7  CD1       -9.0920   20.7390   15.6040 C.3   340  LEU340      0.0001
      8  CD2       -7.2550   22.4290   15.6160 C.3   340  LEU340      0.0001
      9  N         -6.3340   18.8740   11.9730 N.am  341  GLY341     -0.1957
     10  CA        -6.5030   18.9220   10.5190 C.3   341  GLY341      0.1869
     11  C         -7.3760   17.7730   10.0410 C.2   341  GLY341      0.2309
     12  O         -8.2570   17.9470    9.1800 O.2   341  GLY341     -0.2863
     13  N         -9.6850   16.1830   11.8410 N.3   343  TRP343     -0.1227
     14  CA       -11.0670   16.4430   12.2280 C.3   343  TRP343      0.1737
     15  C        -11.7490   17.3260   11.1800 C.2   343  TRP343      0.2596
     16  O        -12.8840   17.0700   10.7920 O.2   343  TRP343     -0.2718
     17  CB       -11.1450   17.0940   13.6200 C.3   343  TRP343      0.0564
     18  CG       -12.5650   17.3550   14.0350 C.ar  343  TRP343      0.0003
     19  CD1      -13.2710   18.5070   13.8580 C.ar  343  TRP343      0.0946
     20  CD2      -13.4600   16.4260   14.6680 C.ar  343  TRP343      0.0152
     21  NE1      -14.5430   18.3600   14.3560 N.ar  343  TRP343     -0.2442
     22  CE2      -14.6840   17.0970   14.8670 C.ar  343  TRP343      0.0810
     23  CE3      -13.3380   15.0950   15.1010 C.ar  343  TRP343      0.0012
     24  CZ2      -15.7880   16.4840   15.4680 C.ar  343  TRP343      0.0191
     25  CZ3      -14.4370   14.4850   15.7090 C.ar  343  TRP343      0.0001
     26  CH2      -15.6480   15.1820   15.8820 C.ar  343  TRP343      0.0015
     27  N        -11.0390   18.3520   10.7100 N.am  344  GLY344     -0.1957
     28  CA       -11.5430   19.2100    9.6290 C.3   344  GLY344      0.1869
     29  C        -11.8310   18.4430    8.3460 C.2   344  GLY344      0.2309
     30  O        -12.8310   18.7100    7.6540 O.2   344  GLY344     -0.2863
     31  N        -15.0160   16.6500    8.8150 N.3   347  GLN347     -0.1245
     32  CA       -16.1180   17.6220    8.6440 C.3   347  GLN347      0.1566
     33  C        -16.5010   17.7560    7.1760 C.2   347  GLN347      0.2260
     34  O        -17.6800   17.6880    6.8210 O.2   347  GLN347     -0.2867
     35  CB       -15.7450   18.9890    9.2070 C.3   347  GLN347      0.0367
     36  CG       -15.7560   19.0650   10.7340 C.3   347  GLN347      0.0905
     37  CD       -15.2640   20.4150   11.2340 C.2   347  GLN347      0.2608
     38  OE1      -14.2280   20.9140   10.7960 O.2   347  GLN347     -0.2717
     39  NE2      -16.0140   21.0170   12.1430 N.am  347  GLN347     -0.0878
     40  N        -16.3530   15.3540   20.1700 N.3   454  LYS454     -0.1245
     41  CA       -15.1180   15.8710   19.5920 C.3   454  LYS454      0.1561
     42  C        -13.9920   15.8120   20.6270 C.2   454  LYS454      0.2260
     43  O        -14.1190   16.3840   21.7200 O.2   454  LYS454     -0.2867
     44  CB       -15.2980   17.3100   19.1030 C.3   454  LYS454      0.0271
     45  CG       -14.0870   17.8630   18.3590 C.3   454  LYS454      0.0035
     46  CD       -14.2040   19.3730   18.1490 C.3   454  LYS454      0.0206
     47  CE       -13.0710   19.9000   17.3030 C.3   454  LYS454      0.1093
     48  NZ       -13.0950   21.3930   17.2070 N.3   454  LYS454     -0.1314
     49  N         -4.3340   23.9160   20.0950 N.3   459  MET459     -0.1245
     50  CA        -4.6280   24.8430   19.0030 C.3   459  MET459      0.1570
     51  C         -3.4070   25.6230   18.5630 C.2   459  MET459      0.2261
     52  O         -3.4560   26.3130   17.5520 O.2   459  MET459     -0.2867
     53  CB        -5.7200   25.8370   19.4350 C.3   459  MET459      0.0387
     54  CG        -7.0410   25.2040   19.7430 C.3   459  MET459      0.0595
     55  SD        -7.7520   24.5230   18.2410 S.3   459  MET459     -0.1393
     56  CE        -8.5150   25.9860   17.5400 C.3   459  MET459      0.0692
     57  N         -2.3620   25.8150   14.9670 N.3   462  THR462     -0.1218
     58  CA        -3.5130   26.0550   14.1080 C.3   462  THR462      0.1862
     59  C         -4.0560   27.4990   14.2190 C.2   462  THR462      0.2287
     60  O         -4.6640   28.0090   13.2790 O.2   462  THR462     -0.2866
     61  CB        -4.6180   25.0210   14.4220 C.3   462  THR462      0.1770
     62  OG1       -4.0540   23.7080   14.2830 O.3   462  THR462     -0.2211
     63  CG2       -5.8000   25.1470   13.4640 C.3   462  THR462      0.0375
     64  N         -6.1170   29.8770   11.2920 N.3   466  ILE466     -0.1245
     65  CA        -7.4650   30.3510   11.5490 C.3   466  ILE466      0.1561
     66  C         -7.5230   31.8690   11.5510 C.2   466  ILE466      0.2260
     67  O         -8.4180   32.4430   10.9190 O.2   466  ILE466     -0.2867
     68  CB        -7.9900   29.8120   12.8740 C.3   466  ILE466      0.0252
     69  CG1       -8.0750   28.2860   12.7820 C.3   466  ILE466      0.0019
     70  CG2       -9.3740   30.4410   13.2070 C.3   466  ILE466      0.0019
     71  CD1       -8.4630   27.6260   14.0750 C.3   466  ILE466      0.0001
     72  N         -3.1630   24.4590    5.7170 N.3   498  GLU498     -0.1245
     73  CA        -4.2850   24.5180    6.6240 C.3   498  GLU498      0.1567
     74  C         -5.0460   25.8600    6.5510 C.2   498  GLU498      0.2260
     75  O         -6.2700   25.8950    6.6760 O.2   498  GLU498     -0.2867
     76  CB        -3.8030   24.2030    8.0530 C.3   498  GLU498      0.0388
     77  CG        -4.8830   24.2770    9.1320 C.3   498  GLU498      0.1160
     78  CD        -6.0410   23.2980    8.9220 C.2   498  GLU498      0.3649
     79  OE1       -5.8390   22.2160    8.3160 O.co2 498  GLU498     -0.2457
     80  OE2       -7.1650   23.6190    9.3890 O.co2 498  GLU498     -0.2457
     81  N         -8.9000   25.8670    5.6480 N.3   502  GLN502     -0.1245
     82  CA        -9.8920   26.6190    6.4400 C.3   502  GLN502      0.1566
     83  C        -10.7230   27.5620    5.5730 C.2   502  GLN502      0.2260
     84  O        -11.9290   27.6860    5.7570 O.2   502  GLN502     -0.2867
     85  CB        -9.2120   27.4510    7.5450 C.3   502  GLN502      0.0367
     86  CG        -8.6600   26.6430    8.7310 C.3   502  GLN502      0.0905
     87  CD        -9.7430   25.9260    9.5240 C.2   502  GLN502      0.2608
     88  OE1      -10.7890   26.4960    9.8490 O.2   502  GLN502     -0.2717
     89  NE2       -9.4980   24.6630    9.8310 N.am  502  GLN502     -0.0878
     90  N        -13.2310   25.8070    3.1800 N.3   505  GLN505     -0.1245
     91  CA       -14.4660   25.4270    3.8680 C.3   505  GLN505      0.1566
     92  C        -15.5500   26.5030    3.7730 C.2   505  GLN505      0.2260
     93  O        -16.7390   26.1790    3.8320 O.2   505  GLN505     -0.2867
     94  CB       -14.1970   25.1010    5.3420 C.3   505  GLN505      0.0367
     95  CG       -13.6630   23.6850    5.5510 C.3   505  GLN505      0.0905
     96  CD       -13.5150   23.3150    7.0230 C.2   505  GLN505      0.2608
     97  OE1      -13.2260   24.1640    7.8630 O.2   505  GLN505     -0.2717
     98  NE2      -13.6880   22.0340    7.3320 N.am  505  GLN505     -0.0878
@<TRIPOS>BOND
     1    90    91    1
     2    92    93    2
     3    92    91    1
     4    91    94    1
     5    94    95    1
     6    95    96    1
     7    83    84    2
     8    83    82    1
     9    81    82    1
    10    72    73    1
    11    82    85    1
    12    74    73    1
    13    74    75    2
    14    73    76    1
    15    34    33    2
    16    96    98   am
    17    96    97    2
    18    33    32    1
    19    85    86    1
    20    30    29    2
    21    76    77    1
    22    79    78   ar
    23    29    28    1
    24    32    31    1
    25    32    35    1
    26    86    87    1
    27    78    77    1
    28    78    80   ar
    29    12    11    2
    30    35    36    1
    31    87    89   am
    32    87    88    2
    33    28    27    1
    34    11    10    1
    35    10     9    1
    36    27    15   am
    37    36    37    1
    38    16    15    2
    39    38    37    2
    40    67    66    2
    41    15    14    1
    42    37    39   am
    43    64    65    1
    44    65    66    1
    45    65    68    1
    46    13    14    1
    47     9     3   am
    48    14    17    1
    49     4     3    2
    50    69    68    1
    51    69    71    1
    52     3     2    1
    53    68    70    1
    54    60    59    2
    55    63    61    1
    56    17    18    1
    57    19    18   ar
    58    19    21   ar
    59    18    20   ar
    60    58    59    1
    61    58    61    1
    62    58    57    1
    63     2     1    1
    64     2     5    1
    65    62    61    1
    66    21    22   ar
    67    20    22   ar
    68    20    23   ar
    69    22    24   ar
    70     6     5    1
    71     6     7    1
    72     6     8    1
    73    23    25   ar
    74    24    26   ar
    75    25    26   ar
    76    48    47    1
    77    47    46    1
    78    56    55    1
    79    52    51    2
    80    46    45    1
    81    55    54    1
    82    45    44    1
    83    51    50    1
    84    50    53    1
    85    50    49    1
    86    44    41    1
    87    53    54    1
    88    41    40    1
    89    41    42    1
    90    42    43    2
