@<TRIPOS>MOLECULE
tmp/3fu3A01.pdb
 139 138 0 0 0
SMALL
GASTEIGER

@<TRIPOS>ATOM
      1  N         -9.2920   -2.8620   -3.0900 N.3   134  ALA134     -0.1245
      2  CA        -9.6690   -3.9010   -2.1190 C.3   134  ALA134      0.1562
      3  C         -9.7400   -5.2840   -2.7380 C.2   134  ALA134      0.2260
      4  O         -9.1650   -6.2480   -2.1970 O.2   134  ALA134     -0.2867
      5  CB       -11.0470   -3.5520   -1.4650 C.3   134  ALA134      0.0290
      6  N        -14.0660   -6.1940    4.3980 N.3   308  TRP308     -0.1227
      7  CA       -13.8840   -4.7770    4.0810 C.3   308  TRP308      0.1737
      8  C        -14.8410   -3.8730    4.8510 C.2   308  TRP308      0.2595
      9  O        -14.6550   -2.6510    4.8610 O.2   308  TRP308     -0.2718
     10  CB       -13.9540   -4.5360    2.5700 C.3   308  TRP308      0.0564
     11  CG       -12.8430   -5.2560    1.8930 C.ar  308  TRP308      0.0003
     12  CD1      -12.9370   -6.3790    1.1140 C.ar  308  TRP308      0.0946
     13  CD2      -11.4490   -4.9360    1.9790 C.ar  308  TRP308      0.0152
     14  NE1      -11.6760   -6.7710    0.7040 N.ar  308  TRP308     -0.2442
     15  CE2      -10.7470   -5.9160    1.2380 C.ar  308  TRP308      0.0810
     16  CE3      -10.7260   -3.9360    2.6390 C.ar  308  TRP308      0.0012
     17  CZ2       -9.3600   -5.8930    1.0970 C.ar  308  TRP308      0.0191
     18  CZ3       -9.3490   -3.9190    2.5110 C.ar  308  TRP308      0.0001
     19  CH2       -8.6810   -4.8860    1.7320 C.ar  308  TRP308      0.0015
     20  N        -15.8470   -4.4760    5.5000 N.am  309  ASP309     -0.1974
     21  CA       -16.7790   -3.7510    6.3730 C.3   309  ASP309      0.1709
     22  C        -16.0340   -3.1470    7.5570 C.2   309  ASP309      0.2293
     23  O        -16.4940   -2.1730    8.1470 O.2   309  ASP309     -0.2864
     24  CB       -17.8520   -4.7010    6.9370 C.3   309  ASP309      0.1436
     25  CG       -18.8670   -5.1360    5.9000 C.2   309  ASP309      0.3671
     26  OD1      -18.8010   -4.7130    4.7210 O.co2 309  ASP309     -0.2456
     27  OD2      -19.7530   -5.9250    6.2810 O.co2 309  ASP309     -0.2456
     28  N        -12.7170   -2.0960    7.5010 N.3   311  PHE311     -0.1227
     29  CA       -11.5720   -1.3680    6.9410 C.3   311  PHE311      0.1736
     30  C        -11.0450   -0.2640    7.8440 C.2   311  PHE311      0.2595
     31  O         -9.8480    0.0480    7.8030 O.2   311  PHE311     -0.2718
     32  CB       -12.0070   -0.7980    5.5900 C.3   311  PHE311      0.0547
     33  CG       -10.9260   -0.0780    4.8000 C.ar  311  PHE311     -0.0202
     34  CD1       -9.7510   -0.7310    4.4100 C.ar  311  PHE311     -0.0042
     35  CD2      -11.1470    1.2340    4.3630 C.ar  311  PHE311     -0.0042
     36  CE1       -8.7880   -0.0670    3.6360 C.ar  311  PHE311     -0.0003
     37  CE2      -10.1990    1.9160    3.6020 C.ar  311  PHE311     -0.0003
     38  CZ        -9.0270    1.2600    3.2230 C.ar  311  PHE311     -0.0000
     39  N        -11.9200    0.3340    8.6570 N.am  312  TRP312     -0.1976
     40  CA       -11.4800    1.3570    9.6140 C.3   312  TRP312      0.1640
     41  C        -10.4090    0.8010   10.5660 C.2   312  TRP312      0.2290
     42  O         -9.5400    1.5380   11.0240 O.2   312  TRP312     -0.2864
     43  CB       -12.6720    1.9530   10.3980 C.3   312  TRP312      0.0576
     44  CG       -13.0510    1.1380   11.6050 C.ar  312  TRP312      0.0006
     45  CD1      -13.9430    0.1120   11.6500 C.ar  312  TRP312      0.0946
     46  CD2      -12.5400    1.2830   12.9330 C.ar  312  TRP312      0.0152
     47  NE1      -14.0220   -0.3950   12.9160 N.ar  312  TRP312     -0.2442
     48  CE2      -13.1770    0.3120   13.7310 C.ar  312  TRP312      0.0810
     49  CE3      -11.6100    2.1430   13.5270 C.ar  312  TRP312      0.0012
     50  CZ2      -12.9190    0.1780   15.1010 C.ar  312  TRP312      0.0191
     51  CZ3      -11.3450    2.0070   14.8950 C.ar  312  TRP312      0.0001
     52  CH2      -11.9920    1.0210   15.6590 C.ar  312  TRP312      0.0015
     53  N        -22.1630    5.8570    4.1200 N.3   359  PHE359     -0.1241
     54  CA       -20.7070    5.8260    3.9700 C.3   359  PHE359      0.1605
     55  C        -19.9890    6.7260    4.9950 C.2   359  PHE359      0.2264
     56  O        -18.7600    6.8130    4.9830 O.2   359  PHE359     -0.2867
     57  CB       -20.2750    6.2160    2.5490 C.3   359  PHE359      0.0534
     58  CG       -20.7430    5.2620    1.4540 C.ar  359  PHE359     -0.0203
     59  CD1      -21.3340    4.0360    1.7570 C.ar  359  PHE359     -0.0042
     60  CD2      -20.5350    5.5950    0.1080 C.ar  359  PHE359     -0.0042
     61  CE1      -21.7630    3.1730    0.7420 C.ar  359  PHE359     -0.0003
     62  CE2      -20.9400    4.7410   -0.9220 C.ar  359  PHE359     -0.0003
     63  CZ       -21.5530    3.5230   -0.6100 C.ar  359  PHE359     -0.0000
     64  N        -20.7320    6.0730    8.1960 N.3   361  LYS361     -0.1231
     65  CA       -20.6360    5.1080    9.2890 C.3   361  LYS361      0.1693
     66  C        -19.2190    4.5810    9.3570 C.2   361  LYS361      0.2591
     67  O        -18.5600    4.4380    8.3140 O.2   361  LYS361     -0.2718
     68  CB       -21.5840    3.9260    9.0750 C.3   361  LYS361      0.0285
     69  CG       -23.0550    4.2980    9.0490 C.3   361  LYS361      0.0035
     70  CD       -23.9380    3.1240    8.5910 C.3   361  LYS361      0.0206
     71  CE       -25.4030    3.5470    8.6700 C.3   361  LYS361      0.1093
     72  NZ       -26.3510    2.4110    8.7710 N.3   361  LYS361     -0.1314
     73  N        -18.7510    4.3000   10.5720 N.am  362  LEU362     -0.1980
     74  CA       -17.4070    3.7690   10.7830 C.3   362  LEU362      0.1596
     75  C        -17.2870    2.3190   10.3310 C.2   362  LEU362      0.2287
     76  O        -16.3060    1.9400    9.7030 O.2   362  LEU362     -0.2864
     77  CB       -16.9920    3.9090   12.2420 C.3   362  LEU362      0.0297
     78  CG       -15.5200    3.6140   12.5280 C.3   362  LEU362      0.0022
     79  CD1      -14.5690    4.5580   11.7510 C.3   362  LEU362      0.0001
     80  CD2      -15.2680    3.6980   14.0350 C.3   362  LEU362      0.0001
     81  N        -19.2810   -0.2300    7.9340 N.3   364  VAL364     -0.1245
     82  CA       -20.2670   -0.1740    6.8480 C.3   364  VAL364      0.1561
     83  C        -20.6590   -1.5780    6.3770 C.2   364  VAL364      0.2260
     84  O        -19.9040   -2.5290    6.5390 O.2   364  VAL364     -0.2867
     85  CB       -19.7500    0.6500    5.6490 C.3   364  VAL364      0.0252
     86  CG1      -19.4880    2.0900    6.0690 C.3   364  VAL364      0.0019
     87  CG2      -18.4600    0.0290    5.0690 C.3   364  VAL364      0.0019
     88  N        -20.9570   -3.5360    3.2280 N.3   366  LEU366     -0.1245
     89  CA       -20.5790   -3.4020    1.8130 C.3   366  LEU366      0.1561
     90  C        -21.2530   -4.3900    0.8680 C.2   366  LEU366      0.2260
     91  O        -20.8580   -4.5030   -0.3000 O.2   366  LEU366     -0.2867
     92  CB       -19.0570   -3.4290    1.6330 C.3   366  LEU366      0.0270
     93  CG       -18.3000   -2.1810    2.0940 C.3   366  LEU366      0.0019
     94  CD1      -16.8020   -2.4340    2.1110 C.3   366  LEU366      0.0001
     95  CD2      -18.6350   -0.9510    1.2330 C.3   366  LEU366      0.0001
     96  N        -16.5390   -1.5300   -3.2460 N.3   371  PRO371     -0.2116
     97  CA       -15.6890   -0.8590   -2.2530 C.3   371  PRO371      0.1372
     98  C        -14.9710    0.3820   -2.8040 C.2   371  PRO371      0.2244
     99  O        -14.6710    1.3040   -2.0310 O.2   371  PRO371     -0.2868
    100  CB       -14.6600   -1.9390   -1.8760 C.3   371  PRO371      0.0268
    101  CG       -15.3360   -3.2020   -2.1580 C.3   371  PRO371      0.0207
    102  CD       -16.2040   -2.9580   -3.3700 C.3   371  PRO371      0.0892
    103  N        -17.2450    3.2280   -2.2420 N.3   374  ALA374     -0.1231
    104  CA       -17.3990    3.5600   -0.8270 C.3   374  ALA374      0.1694
    105  C        -16.1680    4.2610   -0.2470 C.2   374  ALA374      0.2592
    106  O        -16.2640    4.9490    0.7670 O.2   374  ALA374     -0.2718
    107  CB       -17.7150    2.3030   -0.0270 C.3   374  ALA374      0.0304
    108  N        -15.0170    4.0860   -0.8960 N.am  375  TYR375     -0.1962
    109  CA       -13.7680    4.6340   -0.4000 C.3   375  TYR375      0.1771
    110  C        -13.8250    6.1480   -0.1700 C.2   375  TYR375      0.2620
    111  O        -14.3170    6.9050   -1.0190 O.2   375  TYR375     -0.2715
    112  CB       -12.5950    4.2590   -1.3180 C.3   375  TYR375      0.0574
    113  CG       -11.2640    4.7630   -0.8110 C.ar  375  TYR375     -0.0198
    114  CD1      -10.5480    4.0450    0.1410 C.ar  375  TYR375     -0.0009
    115  CD2      -10.7190    5.9650   -1.2840 C.ar  375  TYR375     -0.0009
    116  CE1       -9.3280    4.4990    0.6070 C.ar  375  TYR375      0.0417
    117  CE2       -9.4910    6.4330   -0.8230 C.ar  375  TYR375      0.0417
    118  CZ        -8.8040    5.6940    0.1200 C.ar  375  TYR375      0.1957
    119  OH        -7.5860    6.1400    0.5820 O.3   375  TYR375     -0.2866
    120  N        -13.3460    6.5630    1.0070 N.am  376  SER376     -0.1950
    121  CA       -13.2500    7.9810    1.3790 C.3   376  SER376      0.1924
    122  C        -12.3410    8.1320    2.5980 C.2   376  SER376      0.2314
    123  O        -11.8000    7.1570    3.1120 O.2   376  SER376     -0.2863
    124  CB       -14.6280    8.5600    1.7060 C.3   376  SER376      0.2116
    125  OG       -15.0320    8.1480    2.9970 O.3   376  SER376     -0.2180
    126  N        -13.3680    8.8850    5.4810 N.3   378  VAL378     -0.1231
    127  CA       -14.1600    8.5690    6.6810 C.3   378  VAL378      0.1678
    128  C        -13.5530    7.4760    7.5840 C.2   378  VAL378      0.2434
    129  O        -13.3690    7.7000    8.7700 O.2   378  VAL378     -0.2733
    130  CB       -15.6450    8.2870    6.3370 C.3   378  VAL378      0.0265
    131  CG1      -16.3890    7.6410    7.5270 C.3   378  VAL378      0.0020
    132  CG2      -16.3360    9.5800    5.8910 C.3   378  VAL378      0.0020
    133  N        -13.2190    6.2930    7.0300 N.am  379  PRO379     -0.2729
    134  CA       -12.6120    5.3080    7.9130 C.3   379  PRO379      0.1401
    135  C        -11.2600    5.7450    8.4870 C.2   379  PRO379      0.2269
    136  O        -10.8940    5.2910    9.5810 O.2   379  PRO379     -0.2865
    137  CB       -12.4090    4.0880    7.0010 C.3   379  PRO379      0.0296
    138  CG       -12.4760    4.6020    5.6170 C.3   379  PRO379      0.0237
    139  CD       -13.4660    5.7410    5.6890 C.3   379  PRO379      0.0939
@<TRIPOS>BOND
     1   102    96    1
     2   102   101    1
     3    96    97    1
     4     1     2    1
     5    98    97    1
     6    98    99    2
     7     3     4    2
     8     3     2    1
     9    97   100    1
    10   103   104    1
    11   101   100    1
    12     2     5    1
    13   112   113    1
    14   112   109    1
    15   115   117   ar
    16   115   113   ar
    17   111   110    2
    18    62    63   ar
    19    62    60   ar
    20   108   109    1
    21   108   105   am
    22   104   105    1
    23   104   107    1
    24   117   118   ar
    25   113   114   ar
    26    63    61   ar
    27   109   110    1
    28    91    90    2
    29   105   106    2
    30   110   120   am
    31    60    58   ar
    32   118   119    1
    33   118   116   ar
    34   114   116   ar
    35    14    12   ar
    36    14    15   ar
    37    61    59   ar
    38    90    89    1
    39   120   121    1
    40    17    15   ar
    41    17    19   ar
    42    12    11   ar
    43    95    93    1
    44    15    13   ar
    45   121   124    1
    46   121   122    1
    47    58    59   ar
    48    58    57    1
    49    92    89    1
    50    92    93    1
    51   124   125    1
    52    19    18   ar
    53    89    88    1
    54    11    13   ar
    55    11    10    1
    56    13    16   ar
    57    93    94    1
    58    18    16   ar
    59    57    54    1
    60    10     7    1
    61   122   123    2
    62    38    37   ar
    63    38    36   ar
    64    37    35   ar
    65    36    34   ar
    66    54    53    1
    67    54    55    1
    68     7     6    1
    69     7     8    1
    70    35    33   ar
    71    34    33   ar
    72    26    25   ar
    73    33    32    1
    74     8     9    2
    75     8    20   am
    76    56    55    2
    77    87    85    1
    78   126   127    1
    79    20    21    1
    80    32    29    1
    81   138   139    1
    82   138   137    1
    83    85    86    1
    84    85    82    1
    85   139   133    1
    86   132   130    1
    87    25    27   ar
    88    25    24    1
    89   130   127    1
    90   130   131    1
    91    21    24    1
    92    21    22    1
    93    83    84    2
    94    83    82    1
    95   127   128    1
    96    82    81    1
    97    29    28    1
    98    29    30    1
    99   137   134    1
   100   133   128   am
   101   133   134    1
   102    22    23    2
   103   128   129    2
   104    31    30    2
   105    30    39   am
   106   134   135    1
   107    64    65    1
   108    67    66    2
   109   135   136    2
   110    70    71    1
   111    70    69    1
   112    39    40    1
   113    71    72    1
   114    69    68    1
   115    68    65    1
   116    65    66    1
   117    66    73   am
   118    40    43    1
   119    40    41    1
   120    76    75    2
   121    75    74    1
   122    43    44    1
   123    41    42    2
   124    73    74    1
   125    74    77    1
   126    44    45   ar
   127    44    46   ar
   128    45    47   ar
   129    79    78    1
   130    77    78    1
   131    78    80    1
   132    47    48   ar
   133    46    49   ar
   134    46    48   ar
   135    49    51   ar
   136    48    50   ar
   137    51    52   ar
   138    50    52   ar
