@<TRIPOS>MOLECULE
tmp/3fu5A00.pdb
 166 162 0 0 0
SMALL
GASTEIGER

@<TRIPOS>ATOM
      1  N         35.6500   -2.4030   -8.6630 N.3   131  GLN131     -0.1245
      2  CA        35.0710   -1.8670   -7.4380 C.3   131  GLN131      0.1566
      3  C         33.9080   -2.7810   -6.9820 C.2   131  GLN131      0.2260
      4  O         32.7800   -2.6960   -7.5050 O.2   131  GLN131     -0.2867
      5  CB        34.6560   -0.3970   -7.6420 C.3   131  GLN131      0.0367
      6  CG        33.8460    0.2360   -6.5160 C.3   131  GLN131      0.0905
      7  CD        34.4880    0.0280   -5.1630 C.2   131  GLN131      0.2608
      8  OE1       35.6980    0.2550   -4.9830 O.2   131  GLN131     -0.2717
      9  NE2       33.6850   -0.4010   -4.2010 N.am  131  GLN131     -0.0878
     10  N         32.5290   -3.4570   -3.7480 N.3   133  GLN133     -0.1231
     11  CA        31.6320   -3.0490   -2.6940 C.3   133  GLN133      0.1698
     12  C         30.5070   -2.2010   -3.2710 C.2   133  GLN133      0.2592
     13  O         30.7820   -1.2600   -4.0120 O.2   133  GLN133     -0.2718
     14  CB        32.3780   -2.2640   -1.6000 C.3   133  GLN133      0.0381
     15  CG        31.5790   -2.1690   -0.2690 C.3   133  GLN133      0.0905
     16  CD        32.4120   -1.6730    0.8760 C.2   133  GLN133      0.2608
     17  OE1       33.4210   -1.0220    0.6700 O.2   133  GLN133     -0.2717
     18  NE2       32.0010   -1.9810    2.0890 N.am  133  GLN133     -0.0878
     19  N         29.2510   -2.5070   -2.9190 N.am  134  ALA134     -0.1980
     20  CA        28.9040   -3.5800   -1.9700 C.3   134  ALA134      0.1597
     21  C         28.7380   -4.9530   -2.6360 C.2   134  ALA134      0.2287
     22  O         29.4110   -5.9160   -2.2600 O.2   134  ALA134     -0.2864
     23  CB        27.6420   -3.2060   -1.1900 C.3   134  ALA134      0.0319
     24  N         34.6810    6.5330   -5.6080 N.3   264  TYR264     -0.1241
     25  CA        34.7970    6.8630   -4.1830 C.3   264  TYR264      0.1605
     26  C         36.0900    7.5890   -3.8100 C.2   264  TYR264      0.2264
     27  O         37.0490    7.6310   -4.5950 O.2   264  TYR264     -0.2867
     28  CB        34.6250    5.5990   -3.3280 C.3   264  TYR264      0.0534
     29  CG        33.3180    4.9300   -3.5990 C.ar  264  TYR264     -0.0201
     30  CD1       32.1270    5.4610   -3.0970 C.ar  264  TYR264     -0.0009
     31  CD2       33.2520    3.8090   -4.3960 C.ar  264  TYR264     -0.0009
     32  CE1       30.9000    4.8690   -3.3820 C.ar  264  TYR264      0.0417
     33  CE2       32.0290    3.2050   -4.6760 C.ar  264  TYR264      0.0417
     34  CZ        30.8700    3.7370   -4.1750 C.ar  264  TYR264      0.1957
     35  OH        29.6800    3.1370   -4.4550 O.3   264  TYR264     -0.2866
     36  N         37.9770    6.5280   -1.3940 N.3   266  GLY266     -0.1210
     37  CA        38.8580    5.4050   -1.1190 C.3   266  GLY266      0.1956
     38  C         38.1080    4.0770   -1.0730 C.2   266  GLY266      0.2612
     39  O         36.8830    4.0390   -0.8880 O.2   266  GLY266     -0.2717
     40  N         38.8460    2.9920   -1.2820 N.am  267  MET267     -0.1965
     41  CA        38.3410    1.6440   -1.0920 C.3   267  MET267      0.1736
     42  C         39.4190    0.7940   -0.4220 C.2   267  MET267      0.2616
     43  O         40.4840    0.5440   -1.0050 O.2   267  MET267     -0.2715
     44  CB        37.9030    1.0120   -2.4180 C.3   267  MET267      0.0427
     45  CG        37.3870   -0.4260   -2.2500 C.3   267  MET267      0.0599
     46  SD        35.9090   -0.4890   -1.1900 S.3   267  MET267     -0.1393
     47  CE        36.1350   -2.0350   -0.2990 C.3   267  MET267      0.0692
     48  N         39.1060    0.3450    0.7890 N.am  268  GLU268     -0.1977
     49  CA        40.0370   -0.3100    1.7170 C.3   268  GLU268      0.1602
     50  C         40.4230   -1.7540    1.3260 C.2   268  GLU268      0.2287
     51  O         40.4610   -2.6590    2.1800 O.2   268  GLU268     -0.2864
     52  CB        39.4150   -0.3090    3.1170 C.3   268  GLU268      0.0415
     53  CG        38.1590   -1.2080    3.2530 C.3   268  GLU268      0.1163
     54  CD        36.8290   -0.4730    3.0570 C.2   268  GLU268      0.3649
     55  OE1       36.7900    0.6170    2.4390 O.co2 268  GLU268     -0.2457
     56  OE2       35.8070   -0.9920    3.5440 O.co2 268  GLU268     -0.2457
     57  N         41.4020    7.0140    7.2070 N.3   292  HIS292     -0.1226
     58  CA        40.1720    6.2570    7.1270 C.3   292  HIS292      0.1752
     59  C         40.4130    4.8670    6.5080 C.2   292  HIS292      0.2595
     60  O         40.0940    3.8320    7.1270 O.2   292  HIS292     -0.2718
     61  CB        39.1460    7.0590    6.3240 C.3   292  HIS292      0.0759
     62  CG        37.8020    6.4160    6.2450 C.ar  292  HIS292      0.0818
     63  ND1       36.7780    6.7280    7.1140 N.ar  292  HIS292     -0.2268
     64  CD2       37.3080    5.4860    5.3940 C.ar  292  HIS292      0.1154
     65  CE1       35.7060    6.0230    6.7930 C.ar  292  HIS292      0.1986
     66  NE2       36.0070    5.2520    5.7640 N.ar  292  HIS292     -0.2212
     67  N         41.0050    4.8430    5.3180 N.am  293  GLU293     -0.1979
     68  CA        41.3080    3.5680    4.6600 C.3   293  GLU293      0.1602
     69  C         42.2630    2.6580    5.4650 C.2   293  GLU293      0.2287
     70  O         42.0930    1.4250    5.4820 O.2   293  GLU293     -0.2864
     71  CB        41.8130    3.7910    3.2290 C.3   293  GLU293      0.0415
     72  CG        40.8880    4.6440    2.3330 C.3   293  GLU293      0.1163
     73  CD        39.4390    4.1400    2.2490 C.2   293  GLU293      0.3649
     74  OE1       39.1920    2.9320    2.5050 O.co2 293  GLU293     -0.2457
     75  OE2       38.5410    4.9660    1.9250 O.co2 293  GLU293     -0.2457
     76  N         40.3710    0.9750    8.2930 N.3   296  HIS296     -0.1241
     77  CA        39.5600   -0.1380    7.7920 C.3   296  HIS296      0.1621
     78  C         40.2580   -1.4910    7.9110 C.2   296  HIS296      0.2264
     79  O         39.5950   -2.5340    7.8420 O.2   296  HIS296     -0.2867
     80  CB        39.1590    0.0840    6.3320 C.3   296  HIS296      0.0745
     81  CG        37.8150    0.7160    6.1510 C.ar  296  HIS296      0.0817
     82  ND1       36.6620    0.1980    6.7040 N.ar  296  HIS296     -0.2268
     83  CD2       37.4340    1.8020    5.4400 C.ar  296  HIS296      0.1154
     84  CE1       35.6340    0.9500    6.3580 C.ar  296  HIS296      0.1986
     85  NE2       36.0770    1.9320    5.5940 N.ar  296  HIS296     -0.2212
     86  N         24.7290   -5.8660    4.6900 N.3   308  TRP308     -0.1241
     87  CA        24.7550   -4.4290    4.4520 C.3   308  TRP308      0.1605
     88  C         23.7490   -3.6200    5.2840 C.2   308  TRP308      0.2264
     89  O         23.8500   -2.3990    5.3520 O.2   308  TRP308     -0.2867
     90  CB        24.6430   -4.1690    2.9510 C.3   308  TRP308      0.0550
     91  CG        25.7390   -4.8750    2.2300 C.ar  308  TRP308      0.0003
     92  CD1       25.6160   -5.9220    1.3630 C.ar  308  TRP308      0.0946
     93  CD2       27.1400   -4.6260    2.3760 C.ar  308  TRP308      0.0152
     94  NE1       26.8600   -6.3220    0.9340 N.ar  308  TRP308     -0.2442
     95  CE2       27.8140   -5.5530    1.5470 C.ar  308  TRP308      0.0810
     96  CE3       27.8930   -3.7070    3.1340 C.ar  308  TRP308      0.0012
     97  CZ2       29.2130   -5.5760    1.4220 C.ar  308  TRP308      0.0191
     98  CZ3       29.2790   -3.7200    3.0150 C.ar  308  TRP308      0.0001
     99  CH2       29.9300   -4.6560    2.1580 C.ar  308  TRP308      0.0015
    100  N         26.0230   -1.9840    7.7910 N.3   311  PHE311     -0.1241
    101  CA        27.0750   -1.1770    7.1690 C.3   311  PHE311      0.1605
    102  C         27.6420   -0.1200    8.1140 C.2   311  PHE311      0.2264
    103  O         28.8510    0.1590    8.0670 O.2   311  PHE311     -0.2867
    104  CB        26.5020   -0.5490    5.8990 C.3   311  PHE311      0.0534
    105  CG        27.5000    0.1970    5.0550 C.ar  311  PHE311     -0.0203
    106  CD1       28.7490   -0.3540    4.7520 C.ar  311  PHE311     -0.0042
    107  CD2       27.1560    1.4380    4.5020 C.ar  311  PHE311     -0.0042
    108  CE1       29.6630    0.3370    3.9430 C.ar  311  PHE311     -0.0003
    109  CE2       28.0580    2.1360    3.6900 C.ar  311  PHE311     -0.0003
    110  CZ        29.3160    1.5800    3.4100 C.ar  311  PHE311     -0.0000
    111  N         31.4240    1.5410    8.7910 N.3   315  GLU315     -0.1245
    112  CA        31.7620    2.9470    8.5440 C.3   315  GLU315      0.1567
    113  C         31.9280    3.8120    9.7940 C.2   315  GLU315      0.2260
    114  O         32.9110    4.5700    9.9070 O.2   315  GLU315     -0.2867
    115  CB        30.8020    3.5880    7.5220 C.3   315  GLU315      0.0388
    116  CG        30.8290    2.9280    6.1010 C.3   315  GLU315      0.1160
    117  CD        32.2460    2.7090    5.5410 C.2   315  GLU315      0.3649
    118  OE1       33.1670    3.4660    5.8740 O.co2 315  GLU315     -0.2457
    119  OE2       32.4600    1.7750    4.7630 O.co2 315  GLU315     -0.2457
    120  N         17.5590   -3.3310    3.7580 N.3   366  LEU366     -0.1245
    121  CA        17.8870   -3.2240    2.3320 C.3   366  LEU366      0.1561
    122  C         17.0910   -4.1710    1.4350 C.2   366  LEU366      0.2260
    123  O         17.3980   -4.3060    0.2490 O.2   366  LEU366     -0.2867
    124  CB        19.4000   -3.3900    2.1010 C.3   366  LEU366      0.0270
    125  CG        20.2560   -2.1810    2.5210 C.3   366  LEU366      0.0019
    126  CD1       21.7350   -2.5220    2.5070 C.3   366  LEU366      0.0001
    127  CD2       19.9990   -0.9450    1.6590 C.3   366  LEU366      0.0001
    128  N         21.9020   -1.3580   -2.7260 N.3   371  PRO371     -0.2102
    129  CA        22.7850   -0.6890   -1.7550 C.3   371  PRO371      0.1504
    130  C         23.4300    0.5960   -2.3130 C.2   371  PRO371      0.2575
    131  O         23.6530    1.5370   -1.5570 O.2   371  PRO371     -0.2718
    132  CB        23.8460   -1.7490   -1.4450 C.3   371  PRO371      0.0282
    133  CG        23.1980   -3.0500   -1.7820 C.3   371  PRO371      0.0208
    134  CD        22.2680   -2.7670   -2.9270 C.3   371  PRO371      0.0893
    135  N         23.7060    0.6300   -3.6210 N.am  372  ASP372     -0.1974
    136  CA        24.2860    1.8120   -4.2660 C.3   372  ASP372      0.1708
    137  C         23.3510    3.0080   -4.1820 C.2   372  ASP372      0.2293
    138  O         23.8000    4.1400   -4.0900 O.2   372  ASP372     -0.2864
    139  CB        24.6020    1.5570   -5.7460 C.3   372  ASP372      0.1436
    140  CG        25.7920    0.6390   -5.9500 C.2   372  ASP372      0.3671
    141  OD1       26.5580    0.4410   -5.0040 O.co2 372  ASP372     -0.2456
    142  OD2       25.9450    0.1050   -7.0710 O.co2 372  ASP372     -0.2456
    143  N         23.2930    4.2330   -0.3870 N.3   375  TYR375     -0.1241
    144  CA        24.5680    4.7430    0.1390 C.3   375  TYR375      0.1605
    145  C         24.5620    6.2580    0.3850 C.2   375  TYR375      0.2264
    146  O         24.1330    7.0320   -0.4700 O.2   375  TYR375     -0.2867
    147  CB        25.7040    4.3580   -0.8070 C.3   375  TYR375      0.0534
    148  CG        27.0600    4.8840   -0.4210 C.ar  375  TYR375     -0.0201
    149  CD1       27.9270    4.1210    0.3730 C.ar  375  TYR375     -0.0009
    150  CD2       27.5090    6.1350   -0.8890 C.ar  375  TYR375     -0.0009
    151  CE1       29.1860    4.5990    0.7160 C.ar  375  TYR375      0.0417
    152  CE2       28.7650    6.6150   -0.5460 C.ar  375  TYR375      0.0417
    153  CZ        29.5940    5.8430    0.2600 C.ar  375  TYR375      0.1957
    154  OH        30.8430    6.3170    0.6020 O.3   375  TYR375     -0.2866
    155  N         28.0750    6.5990    8.0790 N.3   380  TYR380     -0.1241
    156  CA        29.3460    7.2510    8.4240 C.3   380  TYR380      0.1605
    157  C         29.1870    8.1800    9.6310 C.2   380  TYR380      0.2264
    158  O         29.8640    8.0280   10.6500 O.2   380  TYR380     -0.2867
    159  CB        29.8630    8.0830    7.2290 C.3   380  TYR380      0.0534
    160  CG        30.3500    7.2900    6.0400 C.ar  380  TYR380     -0.0201
    161  CD1       29.4610    6.8700    5.0370 C.ar  380  TYR380     -0.0009
    162  CD2       31.6920    6.9750    5.8970 C.ar  380  TYR380     -0.0009
    163  CE1       29.9040    6.1440    3.9380 C.ar  380  TYR380      0.0417
    164  CE2       32.1510    6.2690    4.7940 C.ar  380  TYR380      0.0417
    165  CZ        31.2520    5.8410    3.8230 C.ar  380  TYR380      0.1957
    166  OH        31.7070    5.1310    2.7240 O.3   380  TYR380     -0.2866
@<TRIPOS>BOND
     1     1     2    1
     2     5     2    1
     3     5     6    1
     4     4     3    2
     5     2     3    1
     6   142   140   ar
     7     6     7    1
     8   140   139    1
     9   140   141   ar
    10   139   136    1
    11    24    25    1
    12     7     8    2
    13     7     9   am
    14    33    31   ar
    15    33    34   ar
    16    27    26    2
    17    35    34    1
    18    31    29   ar
    19   136   137    1
    20   136   135    1
    21    25    26    1
    22    25    28    1
    23   137   138    2
    24    34    32   ar
    25    13    12    2
    26    10    11    1
    27   135   130   am
    28    29    28    1
    29    29    30   ar
    30    32    30   ar
    31    12    19   am
    32    12    11    1
    33   134   128    1
    34   134   133    1
    35    19    20    1
    36   128   129    1
    37    11    14    1
    38    21    22    2
    39    21    20    1
    40    44    45    1
    41    44    41    1
    42   130   129    1
    43   130   131    2
    44    45    46    1
    45    20    23    1
    46   133   132    1
    47   129   132    1
    48    14    15    1
    49    36    37    1
    50    40    41    1
    51    40    38   am
    52    46    47    1
    53    37    38    1
    54    41    42    1
    55    38    39    2
    56    43    42    2
    57   150   152   ar
    58   150   148   ar
    59   147   148    1
    60   147   144    1
    61   152   153   ar
    62   146   145    2
    63    42    48   am
    64   148   149   ar
    65   143   144    1
    66    15    16    1
    67   144   145    1
    68   123   122    2
    69   153   154    1
    70   153   151   ar
    71   149   151   ar
    72    17    16    2
    73    48    49    1
    74    16    18   am
    75    94    92   ar
    76    94    95   ar
    77    50    49    1
    78    50    51    2
    79    92    91   ar
    80    97    95   ar
    81    97    99   ar
    82   122   121    1
    83    95    93   ar
    84   127   125    1
    85    49    52    1
    86    75    73   ar
    87   124   121    1
    88   124   125    1
    89    99    98   ar
    90    91    93   ar
    91    91    90    1
    92    73    72    1
    93    73    74   ar
    94   121   120    1
    95    72    71    1
    96    93    96   ar
    97    55    54   ar
    98   126   125    1
    99   166   165    1
   100    90    87    1
   101    98    96   ar
   102    54    53    1
   103    54    56   ar
   104    52    53    1
   105    71    68    1
   106   110   109   ar
   107   110   108   ar
   108   109   107   ar
   109   165   163   ar
   110   165   164   ar
   111   163   161   ar
   112   108   106   ar
   113    87    86    1
   114    87    88    1
   115   107   105   ar
   116    68    67    1
   117    68    69    1
   118   106   105   ar
   119   119   117   ar
   120   164   162   ar
   121   161   160   ar
   122   105   104    1
   123    88    89    2
   124    67    59   am
   125    64    66   ar
   126    64    62   ar
   127    83    85   ar
   128    83    81   ar
   129    69    70    2
   130   117   118   ar
   131   117   116    1
   132    85    84   ar
   133    66    65   ar
   134   162   160   ar
   135   104   101    1
   136   160   159    1
   137   116   115    1
   138    81    80    1
   139    81    82   ar
   140    62    61    1
   141    62    63   ar
   142    61    58    1
   143    80    77    1
   144    84    82   ar
   145    59    60    2
   146    59    58    1
   147    65    63   ar
   148    58    57    1
   149   101   100    1
   150   101   102    1
   151   159   156    1
   152   115   112    1
   153    77    78    1
   154    77    76    1
   155    79    78    2
   156   103   102    2
   157   155   156    1
   158   156   157    1
   159   112   111    1
   160   112   113    1
   161   157   158    2
   162   113   114    2
