@<TRIPOS>MOLECULE
tmp/3fu6A00.pdb
 136 132 0 0 0
SMALL
GASTEIGER

@<TRIPOS>ATOM
      1  N         35.4630   -2.4860   -8.6310 N.3   131  GLN131     -0.1245
      2  CA        34.8630   -1.9180   -7.4300 C.3   131  GLN131      0.1566
      3  C         33.7040   -2.8290   -6.9620 C.2   131  GLN131      0.2260
      4  O         32.5530   -2.6910   -7.4220 O.2   131  GLN131     -0.2867
      5  CB        34.3630   -0.5040   -7.7410 C.3   131  GLN131      0.0367
      6  CG        34.2640    0.4300   -6.5670 C.3   131  GLN131      0.0905
      7  CD        33.5340   -0.1480   -5.3910 C.2   131  GLN131      0.2608
      8  OE1       34.1450   -0.5300   -4.3850 O.2   131  GLN131     -0.2717
      9  NE2       32.2160   -0.2300   -5.5020 N.am  131  GLN131     -0.0878
     10  N         32.3600   -3.4500   -3.7730 N.3   133  GLN133     -0.1231
     11  CA        31.4630   -3.1050   -2.6810 C.3   133  GLN133      0.1698
     12  C         30.2730   -2.3270   -3.2540 C.2   133  GLN133      0.2592
     13  O         30.4730   -1.4160   -4.0610 O.2   133  GLN133     -0.2718
     14  CB        32.1830   -2.3340   -1.5600 C.3   133  GLN133      0.0381
     15  CG        31.4300   -2.3970   -0.2140 C.3   133  GLN133      0.0905
     16  CD        32.0530   -1.5480    0.8870 C.2   133  GLN133      0.2608
     17  OE1       32.6250   -0.4960    0.6280 O.2   133  GLN133     -0.2717
     18  NE2       31.9340   -2.0070    2.1300 N.am  133  GLN133     -0.0878
     19  N         29.0380   -2.6900   -2.8870 N.am  134  ALA134     -0.1980
     20  CA        28.7120   -3.7590   -1.9410 C.3   134  ALA134      0.1597
     21  C         28.5280   -5.1320   -2.5960 C.2   134  ALA134      0.2287
     22  O         29.1110   -6.1330   -2.1510 O.2   134  ALA134     -0.2864
     23  CB        27.4340   -3.3740   -1.1610 C.3   134  ALA134      0.0319
     24  N         34.7200    6.6350   -5.6050 N.3   264  TYR264     -0.1241
     25  CA        34.7770    6.9550   -4.1730 C.3   264  TYR264      0.1605
     26  C         36.0790    7.6440   -3.7570 C.2   264  TYR264      0.2264
     27  O         37.0400    7.6920   -4.5280 O.2   264  TYR264     -0.2867
     28  CB        34.5330    5.6900   -3.3420 C.3   264  TYR264      0.0534
     29  CG        33.2120    5.0130   -3.6600 C.ar  264  TYR264     -0.0201
     30  CD1       32.0140    5.4920   -3.1180 C.ar  264  TYR264     -0.0009
     31  CD2       33.1560    3.9190   -4.5130 C.ar  264  TYR264     -0.0009
     32  CE1       30.7930    4.8950   -3.4170 C.ar  264  TYR264      0.0417
     33  CE2       31.9320    3.3080   -4.8200 C.ar  264  TYR264      0.0417
     34  CZ        30.7600    3.8020   -4.2530 C.ar  264  TYR264      0.1957
     35  OH        29.5450    3.2200   -4.5370 O.3   264  TYR264     -0.2866
     36  N         24.5180   -5.9780    4.7500 N.3   308  TRP308     -0.1227
     37  CA        24.6250   -4.5590    4.4640 C.3   308  TRP308      0.1737
     38  C         23.6470   -3.6820    5.2690 C.2   308  TRP308      0.2595
     39  O         23.8280   -2.4740    5.3390 O.2   308  TRP308     -0.2718
     40  CB        24.5070   -4.3230    2.9510 C.3   308  TRP308      0.0564
     41  CG        25.5970   -5.0020    2.2110 C.ar  308  TRP308      0.0003
     42  CD1       25.4820   -6.0580    1.3490 C.ar  308  TRP308      0.0946
     43  CD2       26.9960   -4.7100    2.3200 C.ar  308  TRP308      0.0152
     44  NE1       26.7290   -6.4280    0.8910 N.ar  308  TRP308     -0.2442
     45  CE2       27.6760   -5.6180    1.4790 C.ar  308  TRP308      0.0810
     46  CE3       27.7400   -3.7490    3.0420 C.ar  308  TRP308      0.0012
     47  CZ2       29.0670   -5.5980    1.3270 C.ar  308  TRP308      0.0191
     48  CZ3       29.1210   -3.7310    2.9040 C.ar  308  TRP308      0.0001
     49  CH2       29.7750   -4.6530    2.0450 C.ar  308  TRP308      0.0015
     50  N         22.6150   -4.2880    5.8640 N.am  309  ASP309     -0.1974
     51  CA        21.7570   -3.5900    6.8220 C.3   309  ASP309      0.1709
     52  C         22.5870   -3.0150    7.9730 C.2   309  ASP309      0.2293
     53  O         22.2020   -2.0190    8.5830 O.2   309  ASP309     -0.2864
     54  CB        20.7180   -4.5460    7.4160 C.3   309  ASP309      0.1436
     55  CG        19.6700   -5.0010    6.4130 C.2   309  ASP309      0.3671
     56  OD1       19.6250   -4.5030    5.2560 O.co2 309  ASP309     -0.2456
     57  OD2       18.8620   -5.8670    6.8090 O.co2 309  ASP309     -0.2456
     58  N         25.8360   -2.0170    7.8230 N.3   311  PHE311     -0.1241
     59  CA        26.9490   -1.2250    7.2520 C.3   311  PHE311      0.1605
     60  C         27.4760   -0.1560    8.2000 C.2   311  PHE311      0.2264
     61  O         28.6710    0.1180    8.2030 O.2   311  PHE311     -0.2867
     62  CB        26.4760   -0.5910    5.9250 C.3   311  PHE311      0.0534
     63  CG        27.5530    0.1330    5.1290 C.ar  311  PHE311     -0.0203
     64  CD1       28.7490   -0.4990    4.7810 C.ar  311  PHE311     -0.0042
     65  CD2       27.3340    1.4480    4.6770 C.ar  311  PHE311     -0.0042
     66  CE1       29.7250    0.1580    4.0180 C.ar  311  PHE311     -0.0003
     67  CE2       28.3080    2.1220    3.9090 C.ar  311  PHE311     -0.0003
     68  CZ        29.5120    1.4670    3.5800 C.ar  311  PHE311     -0.0000
     69  N         19.9200    4.2840   11.3620 N.3   362  LEU362     -0.1245
     70  CA        21.2780    3.7690   11.4610 C.3   362  LEU362      0.1561
     71  C         21.3470    2.3510   10.8990 C.2   362  LEU362      0.2260
     72  O         22.1840    2.0500   10.0410 O.2   362  LEU362     -0.2867
     73  CB        21.7680    3.8140   12.9110 C.3   362  LEU362      0.0270
     74  CG        23.2450    3.4770   13.1230 C.3   362  LEU362      0.0019
     75  CD1       24.1580    4.5270   12.4790 C.3   362  LEU362      0.0001
     76  CD2       23.5500    3.3360   14.6020 C.3   362  LEU362      0.0001
     77  N         19.4610   -0.2070    8.6200 N.3   364  VAL364     -0.1245
     78  CA        18.4610   -0.1240    7.5580 C.3   364  VAL364      0.1561
     79  C         17.9380   -1.5000    7.1570 C.2   364  VAL364      0.2260
     80  O         18.4920   -2.5290    7.5480 O.2   364  VAL364     -0.2867
     81  CB        18.9880    0.6200    6.3220 C.3   364  VAL364      0.0252
     82  CG1       19.2930    2.0780    6.6760 C.3   364  VAL364      0.0019
     83  CG2       20.2080   -0.0870    5.7570 C.3   364  VAL364      0.0019
     84  N         17.4090   -3.3210    3.7770 N.3   366  LEU366     -0.1245
     85  CA        17.6900   -3.2290    2.3470 C.3   366  LEU366      0.1561
     86  C         16.8920   -4.1930    1.4550 C.2   366  LEU366      0.2260
     87  O         17.2290   -4.3490    0.2820 O.2   366  LEU366     -0.2867
     88  CB        19.2000   -3.3550    2.0810 C.3   366  LEU366      0.0270
     89  CG        20.0400   -2.1550    2.5390 C.3   366  LEU366      0.0019
     90  CD1       21.5190   -2.4950    2.5210 C.3   366  LEU366      0.0001
     91  CD2       19.7640   -0.9050    1.7080 C.3   366  LEU366      0.0001
     92  N         21.6700   -1.3400   -2.7550 N.3   371  PRO371     -0.2102
     93  CA        22.5560   -0.6560   -1.8070 C.3   371  PRO371      0.1504
     94  C         23.1940    0.6330   -2.3600 C.2   371  PRO371      0.2575
     95  O         23.4370    1.5530   -1.5840 O.2   371  PRO371     -0.2718
     96  CB        23.6340   -1.6930   -1.5400 C.3   371  PRO371      0.0282
     97  CG        22.9640   -2.9970   -1.7850 C.3   371  PRO371      0.0208
     98  CD        22.0640   -2.7480   -2.9420 C.3   371  PRO371      0.0893
     99  N         23.4550    0.6860   -3.6740 N.am  372  ASP372     -0.1974
    100  CA        24.0430    1.8650   -4.3250 C.3   372  ASP372      0.1708
    101  C         23.1270    3.0860   -4.2910 C.2   372  ASP372      0.2293
    102  O         23.5990    4.2250   -4.2690 O.2   372  ASP372     -0.2864
    103  CB        24.4240    1.5620   -5.7890 C.3   372  ASP372      0.1436
    104  CG        25.6610    0.6720   -5.9070 C.2   372  ASP372      0.3671
    105  OD1       26.4040    0.5800   -4.9100 O.co2 372  ASP372     -0.2456
    106  OD2       25.8760    0.0500   -6.9850 O.co2 372  ASP372     -0.2456
    107  N         20.8260    3.4740   -1.8820 N.3   374  ALA374     -0.1231
    108  CA        20.6960    3.7450   -0.4470 C.3   374  ALA374      0.1694
    109  C         21.9280    4.4200    0.1800 C.2   374  ALA374      0.2592
    110  O         21.8180    5.0940    1.2170 O.2   374  ALA374     -0.2718
    111  CB        20.4060    2.4420    0.2700 C.3   374  ALA374      0.0304
    112  N         23.0920    4.1980   -0.4290 N.am  375  TYR375     -0.1962
    113  CA        24.3810    4.7270    0.0530 C.3   375  TYR375      0.1771
    114  C         24.3270    6.2340    0.3550 C.2   375  TYR375      0.2620
    115  O         23.8300    7.0130   -0.4550 O.2   375  TYR375     -0.2715
    116  CB        25.4970    4.4410   -0.9720 C.3   375  TYR375      0.0574
    117  CG        26.8680    4.9210   -0.5220 C.ar  375  TYR375     -0.0198
    118  CD1       27.6250    4.1790    0.3990 C.ar  375  TYR375     -0.0009
    119  CD2       27.4090    6.1130   -1.0110 C.ar  375  TYR375     -0.0009
    120  CE1       28.8790    4.6200    0.8230 C.ar  375  TYR375      0.0417
    121  CE2       28.6700    6.5590   -0.5990 C.ar  375  TYR375      0.0417
    122  CZ        29.3910    5.8110    0.3210 C.ar  375  TYR375      0.1957
    123  OH        30.6290    6.2450    0.7350 O.3   375  TYR375     -0.2866
    124  N         24.8250    6.6220    1.5310 N.am  376  SER376     -0.1950
    125  CA        24.9010    8.0410    1.9350 C.3   376  SER376      0.1924
    126  C         25.8980    8.2100    3.0810 C.2   376  SER376      0.2314
    127  O         26.5160    7.2410    3.5230 O.2   376  SER376     -0.2863
    128  CB        23.5260    8.5410    2.3930 C.3   376  SER376      0.2116
    129  OG        23.2310    8.1420    3.7390 O.3   376  SER376     -0.2180
    130  N         25.2700    6.1690    7.5350 N.3   379  PRO379     -0.2116
    131  CA        25.9640    5.1600    8.3540 C.3   379  PRO379      0.1372
    132  C         27.3090    5.6460    8.8720 C.2   379  PRO379      0.2244
    133  O         27.7040    5.2740    9.9870 O.2   379  PRO379     -0.2868
    134  CB        26.1460    3.9650    7.3960 C.3   379  PRO379      0.0268
    135  CG        25.9530    4.5490    6.0090 C.3   379  PRO379      0.0207
    136  CD        24.9640    5.6600    6.1820 C.3   379  PRO379      0.0892
@<TRIPOS>BOND
     1     1     2    1
     2     5     2    1
     3     5     6    1
     4     2     3    1
     5     4     3    2
     6   106   104   ar
     7     6     7    1
     8   104   103    1
     9   104   105   ar
    10   103   100    1
    11    24    25    1
    12     9     7   am
    13     7     8    2
    14    33    31   ar
    15    33    34   ar
    16    35    34    1
    17    27    26    2
    18    31    29   ar
    19   100   101    1
    20   100    99    1
    21   101   102    2
    22    34    32   ar
    23    25    26    1
    24    25    28    1
    25    13    12    2
    26    10    11    1
    27    99    94   am
    28    29    28    1
    29    29    30   ar
    30    32    30   ar
    31    12    19   am
    32    12    11    1
    33    98    92    1
    34    98    97    1
    35    19    20    1
    36    92    93    1
    37    11    14    1
    38    21    22    2
    39    21    20    1
    40    94    93    1
    41    94    95    2
    42    20    23    1
    43   107   108    1
    44    93    96    1
    45    97    96    1
    46    14    15    1
    47   119   121   ar
    48   119   117   ar
    49   116   117    1
    50   116   113    1
    51   121   122   ar
    52   117   118   ar
    53   115   114    2
    54   108   109    1
    55   108   111    1
    56   112   113    1
    57   112   109   am
    58    15    16    1
    59   113   114    1
    60   109   110    2
    61    87    86    2
    62   122   123    1
    63   122   120   ar
    64   114   124   am
    65   118   120   ar
    66    17    16    2
    67    16    18   am
    68    44    42   ar
    69    44    45   ar
    70    47    45   ar
    71    47    49   ar
    72    42    41   ar
    73    86    85    1
    74    45    43   ar
    75   124   125    1
    76    91    89    1
    77   125   128    1
    78   125   126    1
    79    49    48   ar
    80    88    85    1
    81    88    89    1
    82    41    43   ar
    83    41    40    1
    84    43    46   ar
    85    85    84    1
    86   128   129    1
    87    90    89    1
    88    48    46   ar
    89    40    37    1
    90   126   127    2
    91    68    67   ar
    92    68    66   ar
    93    67    65   ar
    94    66    64   ar
    95    37    36    1
    96    37    38    1
    97    65    63   ar
    98    64    63   ar
    99    63    62    1
   100    56    55   ar
   101    38    39    2
   102    38    50   am
   103    83    81    1
   104    50    51    1
   105    62    59    1
   106   135   136    1
   107   135   134    1
   108   136   130    1
   109    81    82    1
   110    81    78    1
   111    55    57   ar
   112    55    54    1
   113    51    54    1
   114    51    52    1
   115    79    80    2
   116    79    78    1
   117    59    58    1
   118    59    60    1
   119   134   131    1
   120   130   131    1
   121    78    77    1
   122    52    53    2
   123    60    61    2
   124   131   132    1
   125   132   133    2
   126    72    71    2
   127    71    70    1
   128    69    70    1
   129    70    73    1
   130    75    74    1
   131    73    74    1
   132    74    76    1
