@<TRIPOS>MOLECULE
tmp/3fu7A08.pdb
 133 129 0 0 0
SMALL
GASTEIGER

@<TRIPOS>ATOM
      1  N        -13.7180   37.6890   15.2590 N.3   189  ASN189     -0.1225
      2  CA       -12.8800   37.7350   16.4520 C.3   189  ASN189      0.1785
      3  C        -13.4560   36.8620   17.5770 C.2   189  ASN189      0.2597
      4  O        -14.6780   36.6940   17.6740 O.2   189  ASN189     -0.2718
      5  CB       -12.7380   39.1730   16.9600 C.3   189  ASN189      0.1169
      6  CG       -12.1740   40.1120   15.9030 C.2   189  ASN189      0.2627
      7  OD1      -10.9630   40.2310   15.7750 O.2   189  ASN189     -0.2716
      8  ND2      -13.0470   40.7760   15.1460 N.am  189  ASN189     -0.0877
      9  N        -12.5800   36.3080   18.4250 N.am  190  ALA190     -0.1966
     10  CA       -13.0510   35.6400   19.6370 C.3   190  ALA190      0.1713
     11  C        -13.8090   36.6680   20.4810 C.2   190  ALA190      0.2458
     12  O        -13.4740   37.8510   20.4670 O.2   190  ALA190     -0.2730
     13  CB       -11.8810   35.0550   20.4290 C.3   190  ALA190      0.0333
     14  N        -14.8350   36.2140   21.2140 N.am  191  PRO191     -0.2727
     15  CA       -15.7290   37.1590   21.9100 C.3   191  PRO191      0.1402
     16  C        -15.0210   37.7550   23.1170 C.2   191  PRO191      0.2269
     17  O        -14.1160   37.1110   23.6830 O.2   191  PRO191     -0.2865
     18  CB       -16.9060   36.3030   22.3510 C.3   191  PRO191      0.0296
     19  CG       -16.4930   34.8960   22.2040 C.3   191  PRO191      0.0237
     20  CD       -15.1810   34.8200   21.4830 C.3   191  PRO191      0.0939
     21  N        -23.7220   35.6450   26.6240 N.3   234  GLU234     -0.1245
     22  CA       -22.5890   34.7080   26.4770 C.3   234  GLU234      0.1567
     23  C        -22.0690   34.0830   27.7880 C.2   234  GLU234      0.2260
     24  O        -21.7170   32.8990   27.8090 O.2   234  GLU234     -0.2867
     25  CB       -21.4170   35.3190   25.6630 C.3   234  GLU234      0.0388
     26  CG       -20.3110   34.2890   25.3730 C.3   234  GLU234      0.1160
     27  CD       -19.2330   34.1780   26.4540 C.2   234  GLU234      0.3649
     28  OE1      -19.1910   35.0190   27.3740 O.co2 234  GLU234     -0.2457
     29  OE2      -18.3950   33.2310   26.3760 O.co2 234  GLU234     -0.2457
     30  N        -12.0930   30.1430   31.3070 N.3   295  ALA295     -0.1231
     31  CA       -12.5880   31.0860   30.2890 C.3   295  ALA295      0.1694
     32  C        -13.3050   30.4580   29.0760 C.2   295  ALA295      0.2591
     33  O        -13.6890   31.1770   28.1670 O.2   295  ALA295     -0.2718
     34  CB       -11.4480   32.0050   29.7910 C.3   295  ALA295      0.0304
     35  N        -13.4800   29.1410   29.0510 N.am  296  ALA296     -0.1980
     36  CA       -14.0970   28.4880   27.8990 C.3   296  ALA296      0.1597
     37  C        -15.5440   28.9030   27.7340 C.2   296  ALA296      0.2287
     38  O        -16.1080   28.8200   26.6340 O.2   296  ALA296     -0.2864
     39  CB       -14.0170   26.9740   28.0190 C.3   296  ALA296      0.0319
     40  N        -17.2760   24.2550   13.5170 N.3   362  LEU362     -0.1245
     41  CA       -16.8430   25.5960   13.1870 C.3   362  LEU362      0.1561
     42  C        -16.1440   25.5510   11.8420 C.2   362  LEU362      0.2260
     43  O        -15.1470   24.8140   11.6450 O.2   362  LEU362     -0.2867
     44  CB       -15.9190   26.1430   14.2750 C.3   362  LEU362      0.0270
     45  CG       -15.4080   27.5790   14.0990 C.3   362  LEU362      0.0019
     46  CD1      -16.5560   28.5870   14.0720 C.3   362  LEU362      0.0001
     47  CD2      -14.4510   27.8590   15.2460 C.3   362  LEU362      0.0001
     48  N        -14.0750   27.6650    9.2190 N.3   364  LEU364     -0.1245
     49  CA       -13.2080   28.8460    9.1140 C.3   364  LEU364      0.1561
     50  C        -12.8890   29.2510    7.6680 C.2   364  LEU364      0.2260
     51  O        -12.1790   30.2450    7.4240 O.2   364  LEU364     -0.2867
     52  CB       -11.8870   28.5860    9.8490 C.3   364  LEU364      0.0270
     53  CG       -11.9610   28.0510   11.2820 C.3   364  LEU364      0.0019
     54  CD1      -10.5850   27.5430   11.7410 C.3   364  LEU364      0.0001
     55  CD2      -12.4940   29.1090   12.2370 C.3   364  LEU364      0.0001
     56  N        -15.1520   34.8630    9.2110 N.3   369  LEU369     -0.1231
     57  CA       -14.2930   33.8060    9.7300 C.3   369  LEU369      0.1693
     58  C        -15.0120   32.7590   10.5940 C.2   369  LEU369      0.2592
     59  O        -14.7950   31.5660   10.4190 O.2   369  LEU369     -0.2718
     60  CB       -13.1090   34.3920   10.5020 C.3   369  LEU369      0.0284
     61  CG       -12.0860   33.4100   11.0790 C.3   369  LEU369      0.0019
     62  CD1      -11.4140   32.5050   10.0220 C.3   369  LEU369      0.0001
     63  CD2      -11.0480   34.2020   11.8610 C.3   369  LEU369      0.0001
     64  N        -15.8470   33.2090   11.5240 N.am  370  PHE370     -0.1976
     65  CA       -16.5200   32.3090   12.4560 C.3   370  PHE370      0.1639
     66  C        -17.9480   32.0040   12.0200 C.2   370  PHE370      0.2290
     67  O        -18.8870   32.7850   12.2360 O.2   370  PHE370     -0.2864
     68  CB       -16.4350   32.8310   13.9020 C.3   370  PHE370      0.0560
     69  CG       -15.0030   32.9650   14.3890 C.ar  370  PHE370     -0.0200
     70  CD1      -14.1240   31.8680   14.3290 C.ar  370  PHE370     -0.0042
     71  CD2      -14.5220   34.1730   14.8590 C.ar  370  PHE370     -0.0042
     72  CE1      -12.7900   31.9780   14.7580 C.ar  370  PHE370     -0.0003
     73  CE2      -13.1890   34.3050   15.2880 C.ar  370  PHE370     -0.0003
     74  CZ       -12.3230   33.2100   15.2460 C.ar  370  PHE370     -0.0000
     75  N        -20.7880   28.9000   12.2600 N.3   372  TRP372     -0.1241
     76  CA       -21.1170   27.6560   12.9400 C.3   372  TRP372      0.1605
     77  C        -22.1040   26.8280   12.1170 C.2   372  TRP372      0.2264
     78  O        -23.1480   27.3370   11.7070 O.2   372  TRP372     -0.2867
     79  CB       -21.7160   27.9810   14.3080 C.3   372  TRP372      0.0550
     80  CG       -20.7230   28.5660   15.2510 C.ar  372  TRP372      0.0003
     81  CD1      -20.5070   29.8890   15.5250 C.ar  372  TRP372      0.0946
     82  CD2      -19.7870   27.8300   16.0420 C.ar  372  TRP372      0.0152
     83  NE1      -19.4990   30.0180   16.4570 N.ar  372  TRP372     -0.2442
     84  CE2      -19.0310   28.7680   16.7800 C.ar  372  TRP372      0.0810
     85  CE3      -19.5010   26.4700   16.1810 C.ar  372  TRP372      0.0012
     86  CZ2      -18.0170   28.3760   17.6760 C.ar  372  TRP372      0.0191
     87  CZ3      -18.5060   26.0830   17.0620 C.ar  372  TRP372      0.0001
     88  CH2      -17.7850   27.0390   17.8150 C.ar  372  TRP372      0.0015
     89  N         -9.9850   21.8400   14.9260 N.3   425  PRO425     -0.2102
     90  CA        -8.7720   22.3640   15.5760 C.3   425  PRO425      0.1504
     91  C         -8.9920   22.8000   17.0170 C.2   425  PRO425      0.2575
     92  O         -8.0620   22.7420   17.8280 O.2   425  PRO425     -0.2718
     93  CB        -8.3990   23.5740   14.7170 C.3   425  PRO425      0.0282
     94  CG        -9.6630   23.9330   13.9930 C.3   425  PRO425      0.0208
     95  CD       -10.3420   22.6310   13.7330 C.3   425  PRO425      0.0893
     96  N        -10.2070   23.2580   17.3270 N.am  426  PHE426     -0.1977
     97  CA       -10.5570   23.5760   18.7090 C.3   426  PHE426      0.1639
     98  C        -12.0720   23.5380   18.9000 C.2   426  PHE426      0.2290
     99  O        -12.8440   23.7930   17.9580 O.2   426  PHE426     -0.2864
    100  CB        -9.9750   24.9250   19.1330 C.3   426  PHE426      0.0560
    101  CG       -10.7950   26.0920   18.7180 C.ar  426  PHE426     -0.0200
    102  CD1      -11.7000   26.6730   19.6120 C.ar  426  PHE426     -0.0042
    103  CD2      -10.6640   26.6280   17.4390 C.ar  426  PHE426     -0.0042
    104  CE1      -12.4840   27.7630   19.2340 C.ar  426  PHE426     -0.0003
    105  CE2      -11.4400   27.7310   17.0490 C.ar  426  PHE426     -0.0003
    106  CZ       -12.3460   28.2940   17.9490 C.ar  426  PHE426     -0.0000
    107  N        -15.4710   24.3450   21.7770 N.3   428  LEU428     -0.1245
    108  CA       -15.9330   25.1440   22.9140 C.3   428  LEU428      0.1561
    109  C        -17.1810   24.5380   23.4870 C.2   428  LEU428      0.2260
    110  O        -17.9300   23.9080   22.7490 O.2   428  LEU428     -0.2867
    111  CB       -16.3680   26.5440   22.4420 C.3   428  LEU428      0.0270
    112  CG       -15.3700   27.5520   21.9300 C.3   428  LEU428      0.0019
    113  CD1      -16.1540   28.7180   21.6130 C.3   428  LEU428      0.0001
    114  CD2      -14.3690   27.8870   23.0320 C.3   428  LEU428      0.0001
    115  N         -8.9620   20.5810   25.6300 N.3   453  GLN453     -0.1245
    116  CA        -9.0650   20.0810   24.2390 C.3   453  GLN453      0.1566
    117  C         -9.0130   18.5380   24.0980 C.2   453  GLN453      0.2260
    118  O         -8.6680   18.0240   23.0410 O.2   453  GLN453     -0.2867
    119  CB        -8.0780   20.7930   23.2740 C.3   453  GLN453      0.0367
    120  CG        -8.2280   22.3450   23.1620 C.3   453  GLN453      0.0905
    121  CD        -9.5980   22.8050   22.6430 C.2   453  GLN453      0.2608
    122  OE1      -10.1510   22.2290   21.7120 O.2   453  GLN453     -0.2717
    123  NE2      -10.1470   23.8490   23.2610 N.am  453  GLN453     -0.0878
    124  N        -23.0830   32.7170   18.7660 N.3   507  HIS507     -0.1241
    125  CA       -23.0420   31.4330   18.0510 C.3   507  HIS507      0.1621
    126  C        -24.3080   31.1390   17.2590 C.2   507  HIS507      0.2264
    127  O        -24.2060   30.6530   16.1360 O.2   507  HIS507     -0.2867
    128  CB       -22.7440   30.2530   18.9930 C.3   507  HIS507      0.0745
    129  CG       -21.3990   30.3220   19.6390 C.ar  507  HIS507      0.0817
    130  ND1      -21.0220   29.4780   20.6650 N.ar  507  HIS507     -0.2268
    131  CD2      -20.3540   31.1620   19.4320 C.ar  507  HIS507      0.1154
    132  CE1      -19.7910   29.7800   21.0380 C.ar  507  HIS507      0.1986
    133  NE2      -19.3730   30.8110   20.3220 N.ar  507  HIS507     -0.2212
@<TRIPOS>BOND
     1    51    50    2
     2    50    49    1
     3    49    48    1
     4    49    52    1
     5    56    57    1
     6    57    60    1
     7    57    58    1
     8    52    53    1
     9    62    61    1
    10    59    58    2
    11    60    61    1
    12    58    64   am
    13    61    63    1
    14    53    54    1
    15    53    55    1
    16    64    65    1
    17    43    42    2
    18    78    77    2
    19    42    41    1
    20    66    67    2
    21    66    65    1
    22    77    76    1
    23    75    76    1
    24    65    68    1
    25    76    79    1
    26    41    40    1
    27    41    44    1
    28    95    94    1
    29    95    89    1
    30    68    69    1
    31    94    93    1
    32    46    45    1
    33    45    44    1
    34    45    47    1
    35    79    80    1
    36    70    69   ar
    37    70    72   ar
    38    69    71   ar
    39    93    90    1
    40    72    74   ar
    41    71    73   ar
    42    89    90    1
    43     8     6   am
    44    74    73   ar
    45    80    81   ar
    46    80    82   ar
    47     1     2    1
    48    81    83   ar
    49    90    91    1
    50     7     6    2
    51     6     5    1
    52    82    85   ar
    53    82    84   ar
    54   127   126    2
    55    85    87   ar
    56     2     5    1
    57     2     3    1
    58    83    84   ar
    59    84    86   ar
    60    91    96   am
    61    91    92    2
    62   105   103   ar
    63   105   106   ar
    64    87    88   ar
    65   126   125    1
    66    96    97    1
    67   103   101   ar
    68     3     4    2
    69     3     9   am
    70    86    88   ar
    71   106   104   ar
    72    99    98    2
    73   125   124    1
    74   125   128    1
    75     9    10    1
    76    97    98    1
    77    97   100    1
    78   101   100    1
    79   101   102   ar
    80   128   129    1
    81   104   102   ar
    82   131   129   ar
    83   131   133   ar
    84    10    13    1
    85    10    11    1
    86   129   130   ar
    87   133   132   ar
    88    12    11    2
    89    11    14   am
    90   130   132   ar
    91    14    20    1
    92    14    15    1
    93    20    19    1
    94   113   112    1
    95   122   121    2
    96   107   108    1
    97    15    18    1
    98    15    16    1
    99   112   111    1
   100   112   114    1
   101    19    18    1
   102   111   108    1
   103   121   120    1
   104   121   123   am
   105   110   109    2
   106   108   109    1
   107   118   117    2
   108    16    17    2
   109   120   119    1
   110   119   116    1
   111   117   116    1
   112   116   115    1
   113    26    25    1
   114    26    27    1
   115    25    22    1
   116    29    27   ar
   117    27    28   ar
   118    22    21    1
   119    22    23    1
   120    38    37    2
   121    37    36    1
   122    23    24    2
   123    36    39    1
   124    36    35    1
   125    33    32    2
   126    35    32   am
   127    32    31    1
   128    34    31    1
   129    31    30    1
