@<TRIPOS>MOLECULE
tmp/3fu8B03.pdb
 118 115 0 0 0
SMALL
GASTEIGER

@<TRIPOS>ATOM
      1  N          6.3240   11.8050   44.8560 N.3   213  TYR213     -0.1241
      2  CA         6.5540   13.2290   45.0280 C.3   213  TYR213      0.1605
      3  C          8.0540   13.5300   45.2160 C.2   213  TYR213      0.2264
      4  O          8.7330   12.8680   45.9930 O.2   213  TYR213     -0.2867
      5  CB         5.7980   13.7180   46.2680 C.3   213  TYR213      0.0534
      6  CG         4.2890   13.6200   46.1860 C.ar  213  TYR213     -0.0201
      7  CD1        3.5410   14.5770   45.5000 C.ar  213  TYR213     -0.0009
      8  CD2        3.6050   12.5550   46.7910 C.ar  213  TYR213     -0.0009
      9  CE1        2.1540   14.5030   45.4400 C.ar  213  TYR213      0.0417
     10  CE2        2.2220   12.4730   46.7490 C.ar  213  TYR213      0.0417
     11  CZ         1.5000   13.4300   46.0550 C.ar  213  TYR213      0.1957
     12  OH         0.1230   13.3270   45.9980 O.3   213  TYR213     -0.2866
     13  N          4.6020   28.0090   44.6080 N.3   240  SER240     -0.1217
     14  CA         4.4000   28.5650   45.9310 C.3   240  SER240      0.1889
     15  C          4.6090   27.4560   46.9190 C.2   240  SER240      0.2288
     16  O          4.3600   26.2780   46.5890 O.2   240  SER240     -0.2866
     17  CB         2.9760   29.1270   46.0870 C.3   240  SER240      0.2089
     18  OG         2.0260   28.1570   45.7210 O.3   240  SER240     -0.2183
     19  N          3.4500   26.2700   50.6620 N.3   242  VAL242     -0.1245
     20  CA         2.4240   26.5150   51.7000 C.3   242  VAL242      0.1561
     21  C          3.0640   27.0280   53.0070 C.2   242  VAL242      0.2260
     22  O          4.0420   26.4400   53.4880 O.2   242  VAL242     -0.2867
     23  CB         1.5620   25.2500   51.9950 C.3   242  VAL242      0.0252
     24  CG1        0.7310   25.4500   53.2910 C.3   242  VAL242      0.0019
     25  CG2        0.6610   24.9760   50.8450 C.3   242  VAL242      0.0019
     26  N          3.5030   21.4040   51.4220 N.3   286  TRP286     -0.1241
     27  CA         3.3470   21.2740   49.9480 C.3   286  TRP286      0.1605
     28  C          4.0840   22.3890   49.1960 C.2   286  TRP286      0.2264
     29  O          4.0690   23.5500   49.5930 O.2   286  TRP286     -0.2867
     30  CB         1.8540   21.2940   49.5000 C.3   286  TRP286      0.0550
     31  CG         0.9910   20.0620   49.8030 C.ar  286  TRP286      0.0003
     32  CD1       -0.1700   20.0330   50.5400 C.ar  286  TRP286      0.0946
     33  CD2        1.2260   18.7040   49.3890 C.ar  286  TRP286      0.0152
     34  NE1       -0.6760   18.7460   50.5780 N.ar  286  TRP286     -0.2442
     35  CE2        0.1650   17.9170   49.8910 C.ar  286  TRP286      0.0810
     36  CE3        2.2270   18.0780   48.6280 C.ar  286  TRP286      0.0012
     37  CZ2        0.0760   16.5400   49.6640 C.ar  286  TRP286      0.0191
     38  CZ3        2.1400   16.7040   48.4060 C.ar  286  TRP286      0.0001
     39  CH2        1.0670   15.9470   48.9300 C.ar  286  TRP286      0.0015
     40  N          3.4010   23.7610   45.6700 N.3   288  ASN288     -0.1240
     41  CA         2.3940   23.5960   44.6290 C.3   288  ASN288      0.1653
     42  C          2.7040   24.2390   43.2780 C.2   288  ASN288      0.2266
     43  O          3.0480   25.4200   43.2210 O.2   288  ASN288     -0.2867
     44  CB         1.0480   24.1780   45.1150 C.3   288  ASN288      0.1155
     45  CG         0.3920   23.3140   46.1490 C.2   288  ASN288      0.2627
     46  OD1        0.4500   23.6260   47.3220 O.2   288  ASN288     -0.2716
     47  ND2       -0.2230   22.1850   45.6960 N.am  288  ASN288     -0.0877
     48  N          0.7320   25.5600   40.0520 N.3   290  THR290     -0.1218
     49  CA        -0.6270   25.9910   39.6870 C.3   290  THR290      0.1862
     50  C         -0.5830   26.7600   38.3680 C.2   290  THR290      0.2287
     51  O          0.5020   27.1880   37.9110 O.2   290  THR290     -0.2866
     52  CB        -1.3250   26.8570   40.7760 C.3   290  THR290      0.1770
     53  OG1       -0.6420   28.1020   40.9660 O.3   290  THR290     -0.2211
     54  CG2       -1.4140   26.1320   42.1280 C.3   290  THR290      0.0375
     55  N         -3.2960   18.7630   40.4930 N.3   304  HIS304     -0.1241
     56  CA        -2.4890   19.3260   41.5800 C.3   304  HIS304      0.1621
     57  C         -1.0800   18.7580   41.6330 C.2   304  HIS304      0.2264
     58  O         -0.7580   17.9850   42.5630 O.2   304  HIS304     -0.2867
     59  CB        -3.1520   19.1000   42.9600 C.3   304  HIS304      0.0745
     60  CG        -4.6040   19.4750   43.0330 C.ar  304  HIS304      0.0817
     61  ND1       -5.0320   20.7720   43.2090 N.ar  304  HIS304     -0.2268
     62  CD2       -5.7230   18.7100   43.0380 C.ar  304  HIS304      0.1154
     63  CE1       -6.3570   20.7950   43.2590 C.ar  304  HIS304      0.1986
     64  NE2       -6.7970   19.5510   43.1830 N.ar  304  HIS304     -0.2212
     65  N          2.7430   18.6900   42.6530 N.3   306  ALA306     -0.1245
     66  CA         3.3150   19.2110   43.8900 C.3   306  ALA306      0.1562
     67  C          4.5310   18.4100   44.3260 C.2   306  ALA306      0.2260
     68  O          4.7490   17.2910   43.8750 O.2   306  ALA306     -0.2867
     69  CB         2.2260   19.2170   45.0040 C.3   306  ALA306      0.0290
     70  N          2.5380   12.5840   54.2270 N.3   318  LEU318     -0.1231
     71  CA         2.1460   13.7220   53.3760 C.3   318  LEU318      0.1678
     72  C          1.7710   14.9830   54.1600 C.2   318  LEU318      0.2434
     73  O          1.1900   14.9010   55.2620 O.2   318  LEU318     -0.2733
     74  CB         1.0180   13.3230   52.3980 C.3   318  LEU318      0.0284
     75  CG         1.0950   12.0740   51.4970 C.3   318  LEU318      0.0019
     76  CD1       -0.1680   11.9570   50.6360 C.3   318  LEU318      0.0001
     77  CD2        2.3200   12.0380   50.6010 C.3   318  LEU318      0.0001
     78  N          2.0910   16.1730   53.5840 N.am  319  PRO319     -0.2729
     79  CA         1.5990   17.4320   54.1380 C.3   319  PRO319      0.1401
     80  C          0.1040   17.2970   54.3690 C.2   319  PRO319      0.2269
     81  O         -0.5760   16.5900   53.6150 O.2   319  PRO319     -0.2865
     82  CB         1.8280   18.4340   52.9980 C.3   319  PRO319      0.0296
     83  CG         2.9490   17.8510   52.2020 C.3   319  PRO319      0.0237
     84  CD         2.9030   16.3730   52.3670 C.3   319  PRO319      0.0939
     85  N         -3.5050   21.8150   52.6420 N.3   322  GLU322     -0.1231
     86  CA        -3.6080   22.0850   51.1930 C.3   322  GLU322      0.1699
     87  C         -3.3230   23.5430   50.8830 C.2   322  GLU322      0.2593
     88  O         -2.9330   23.8840   49.7800 O.2   322  GLU322     -0.2718
     89  CB        -5.0010   21.6860   50.6820 C.3   322  GLU322      0.0402
     90  CG        -5.3080   20.2260   51.0110 C.3   322  GLU322      0.1161
     91  CD        -6.5980   19.7320   50.4140 C.2   322  GLU322      0.3649
     92  OE1       -7.4080   20.5860   49.9920 O.co2 322  GLU322     -0.2457
     93  OE2       -6.7940   18.4910   50.3670 O.co2 322  GLU322     -0.2457
     94  N         -3.5560   24.3970   51.8700 N.am  323  GLY323     -0.1942
     95  CA        -3.3470   25.8330   51.7360 C.3   323  GLY323      0.2014
     96  C         -4.3380   26.5100   50.8050 C.2   323  GLY323      0.2640
     97  O         -5.3700   25.9490   50.4220 O.2   323  GLY323     -0.2714
     98  N         -3.9860   27.7220   50.4130 N.am  324  THR324     -0.1937
     99  CA        -4.8670   28.5580   49.6310 C.3   324  THR324      0.2013
    100  C         -4.2730   28.8530   48.2450 C.2   324  THR324      0.2484
    101  O         -3.0460   28.9510   48.0890 O.2   324  THR324     -0.2729
    102  CB        -5.1510   29.8650   50.3790 C.3   324  THR324      0.1807
    103  OG1       -3.9070   30.5170   50.6740 O.3   324  THR324     -0.2208
    104  CG2       -5.9130   29.5770   51.6980 C.3   324  THR324      0.0379
    105  N         -5.1440   29.0250   47.2340 N.am  325  PRO325     -0.2715
    106  CA        -4.6650   29.2480   45.8820 C.3   325  PRO325      0.1521
    107  C         -3.8170   30.5290   45.8200 C.2   325  PRO325      0.2440
    108  O         -4.1490   31.5050   46.4940 O.2   325  PRO325     -0.2731
    109  CB        -5.9680   29.4120   45.0690 C.3   325  PRO325      0.0310
    110  CG        -7.0110   28.7490   45.8810 C.3   325  PRO325      0.0237
    111  CD        -6.6170   29.0510   47.2970 C.3   325  PRO325      0.0939
    112  N         -2.6820   30.4930   45.0930 N.am  326  PRO326     -0.2727
    113  CA        -1.9530   31.7450   44.8510 C.3   326  PRO326      0.1402
    114  C         -2.7440   32.7440   44.0460 C.2   326  PRO326      0.2269
    115  O         -3.7570   32.3850   43.4140 O.2   326  PRO326     -0.2865
    116  CB        -0.7320   31.2980   44.0260 C.3   326  PRO326      0.0296
    117  CG        -1.0900   29.9550   43.4850 C.3   326  PRO326      0.0237
    118  CD        -1.9610   29.3310   44.5300 C.3   326  PRO326      0.0939
@<TRIPOS>BOND
     1    51    50    2
     2    50    49    1
     3    49    48    1
     4    49    52    1
     5    55    56    1
     6    52    53    1
     7    52    54    1
     8    56    57    1
     9    56    59    1
    10    57    58    2
    11    65    66    1
    12    59    60    1
    13    60    62   ar
    14    60    61   ar
    15    62    64   ar
    16    64    63   ar
    17    61    63   ar
    18    43    42    2
    19    42    41    1
    20   115   114    2
    21   117   116    1
    22   117   118    1
    23    68    67    2
    24    66    67    1
    25    66    69    1
    26   116   113    1
    27   114   113    1
    28   118   112    1
    29    13    14    1
    30    41    44    1
    31    41    40    1
    32   113   112    1
    33     1     2    1
    34     2     3    1
    35     2     5    1
    36   109   110    1
    37   109   106    1
    38   112   107   am
    39    44    45    1
    40     3     4    2
    41     9     7   ar
    42     9    11   ar
    43     7     6   ar
    44    47    45   am
    45    18    17    1
    46   107   106    1
    47   107   108    2
    48   110   111    1
    49   106   105    1
    50    14    17    1
    51    14    15    1
    52    12    11    1
    53    11    10   ar
    54    45    46    2
    55     6     5    1
    56     6     8   ar
    57    16    15    2
    58    10     8   ar
    59   105   111    1
    60   105   100   am
    61   101   100    2
    62   100    99    1
    63    38    36   ar
    64    38    39   ar
    65    36    33   ar
    66    39    37   ar
    67    28    29    2
    68    28    27    1
    69    33    31   ar
    70    33    35   ar
    71    30    31    1
    72    30    27    1
    73    99   102    1
    74    99    98    1
    75    37    35   ar
    76    88    87    2
    77    31    32   ar
    78    35    34   ar
    79    27    26    1
    80    92    91   ar
    81    93    91   ar
    82   102   103    1
    83   102   104    1
    84    98    96   am
    85    91    90    1
    86    97    96    2
    87    32    34   ar
    88    77    75    1
    89    76    75    1
    90    19    20    1
    91    89    90    1
    92    89    86    1
    93    96    95    1
    94    25    23    1
    95    87    86    1
    96    87    94   am
    97    86    85    1
    98    75    74    1
    99    20    23    1
   100    20    21    1
   101    95    94    1
   102    23    24    1
   103    83    84    1
   104    83    82    1
   105    84    78    1
   106    74    71    1
   107    82    79    1
   108    21    22    2
   109    71    72    1
   110    71    70    1
   111    78    79    1
   112    78    72   am
   113    81    80    2
   114    79    80    1
   115    72    73    2
