@<TRIPOS>MOLECULE
tmp/3fu8B01.pdb
 183 178 0 0 0
SMALL
GASTEIGER

@<TRIPOS>ATOM
      1  N         18.2860    6.5410   21.7780 N.3    42  GLU42      -0.1245
      2  CA        16.8970    6.5070   21.4430 C.3    42  GLU42       0.1567
      3  C         16.3690    5.2600   22.1060 C.2    42  GLU42       0.2260
      4  O         16.8970    4.1540   21.8850 O.2    42  GLU42      -0.2867
      5  CB        16.7370    6.4870   19.9190 C.3    42  GLU42       0.0388
      6  CG        15.3600    6.8430   19.4050 C.3    42  GLU42       0.1160
      7  CD        15.3650    7.1700   17.8960 C.2    42  GLU42       0.3649
      8  OE1       16.3450    7.7770   17.4020 O.co2  42  GLU42      -0.2457
      9  OE2       14.3840    6.8060   17.2090 O.co2  42  GLU42      -0.2457
     10  N          6.1070    5.3520   24.3760 N.3    55  GLU55      -0.1231
     11  CA         6.5080    4.8610   23.0610 C.3    55  GLU55       0.1699
     12  C          7.9970    5.1000   22.7250 C.2    55  GLU55       0.2592
     13  O          8.7380    4.1790   22.3780 O.2    55  GLU55      -0.2718
     14  CB         5.6570    5.5710   21.9930 C.3    55  GLU55       0.0402
     15  CG         5.8300    4.9650   20.6250 C.3    55  GLU55       0.1161
     16  CD         5.3700    5.8400   19.4760 C.2    55  GLU55       0.3649
     17  OE1        4.3130    6.5000   19.5600 O.co2  55  GLU55      -0.2457
     18  OE2        6.0730    5.8170   18.4530 O.co2  55  GLU55      -0.2457
     19  N          8.4240    6.3610   22.8090 N.am   56  LYS56      -0.1980
     20  CA         9.8080    6.6920   22.4600 C.3    56  LYS56       0.1596
     21  C         10.2730    7.9410   23.2010 C.2    56  LYS56       0.2287
     22  O          9.5070    8.9030   23.3580 O.2    56  LYS56      -0.2864
     23  CB         9.9610    6.9080   20.9650 C.3    56  LYS56       0.0298
     24  CG        11.4230    6.9840   20.5160 C.3    56  LYS56       0.0038
     25  CD        11.5470    7.4030   19.0710 C.3    56  LYS56       0.0206
     26  CE        11.0330    6.3440   18.1210 C.3    56  LYS56       0.1093
     27  NZ        11.9700    5.2270   17.7860 N.3    56  LYS56      -0.1314
     28  N         14.2380   10.2620   23.9920 N.3    58  MET58      -0.1245
     29  CA        15.5910   10.5300   23.5270 C.3    58  MET58       0.1570
     30  C         16.3930   11.0520   24.7110 C.2    58  MET58       0.2261
     31  O         16.1410   12.1650   25.1850 O.2    58  MET58      -0.2867
     32  CB        15.5740   11.5430   22.3600 C.3    58  MET58       0.0387
     33  CG        14.7960   10.9740   21.1380 C.3    58  MET58       0.0595
     34  SD        14.7270   12.0150   19.6770 S.3    58  MET58      -0.1393
     35  CE        13.9780   10.9320   18.4760 C.3    58  MET58       0.0692
     36  N         17.5930    8.2570   13.4740 N.3    87  THR87      -0.1203
     37  CA        17.4600    9.1770   12.3170 C.3    87  THR87       0.1994
     38  C         17.7720   10.6800   12.5380 C.2    87  THR87       0.2617
     39  O         18.2280   11.3650   11.6120 O.2    87  THR87      -0.2717
     40  CB        16.0390    9.1140   11.6690 C.3    87  THR87       0.1784
     41  OG1       15.0450    9.5240   12.6230 O.3    87  THR87      -0.2211
     42  CG2       15.7270    7.7130   11.1730 C.3    87  THR87       0.0376
     43  N         17.5100   11.1900   13.7390 N.am   88  ASN88      -0.1974
     44  CA        17.5110   12.6670   13.9770 C.3    88  ASN88       0.1688
     45  C         18.9230   13.2130   14.0120 C.2    88  ASN88       0.2292
     46  O         19.7840   12.5900   14.5880 O.2    88  ASN88      -0.2864
     47  CB        16.8840   12.9920   15.3510 C.3    88  ASN88       0.1181
     48  CG        15.3550   12.9710   15.3510 C.2    88  ASN88       0.2629
     49  OD1       14.7550   13.5370   16.2570 O.2    88  ASN88      -0.2716
     50  ND2       14.7300   12.3710   14.3100 N.am   88  ASN88      -0.0877
     51  N         17.0490   20.9390   17.7520 N.3   140  PHE140     -0.1241
     52  CA        16.6310   20.2520   16.5300 C.3   140  PHE140      0.1605
     53  C         15.1110   20.0660   16.5770 C.2   140  PHE140      0.2264
     54  O         14.6270   19.1020   17.1900 O.2   140  PHE140     -0.2867
     55  CB        17.3200   18.8750   16.4930 C.3   140  PHE140      0.0534
     56  CG        17.1450   18.1160   15.1860 C.ar  140  PHE140     -0.0203
     57  CD1       17.9070   18.4300   14.0800 C.ar  140  PHE140     -0.0042
     58  CD2       16.2130   17.0740   15.0880 C.ar  140  PHE140     -0.0042
     59  CE1       17.7660   17.7250   12.8640 C.ar  140  PHE140     -0.0003
     60  CE2       16.0410   16.3890   13.8790 C.ar  140  PHE140     -0.0003
     61  CZ        16.8360   16.6840   12.7700 C.ar  140  PHE140     -0.0000
     62  N         11.5290   15.2090   23.9140 N.3   146  ASN146     -0.1240
     63  CA        11.7480   13.7580   24.0530 C.3   146  ASN146      0.1653
     64  C         12.7480   13.3910   25.1490 C.2   146  ASN146      0.2266
     65  O         12.9130   12.2050   25.4760 O.2   146  ASN146     -0.2867
     66  CB        12.1820   13.1090   22.7060 C.3   146  ASN146      0.1155
     67  CG        11.0660   13.0680   21.6710 C.2   146  ASN146      0.2627
     68  OD1        9.8790   13.0450   21.9940 O.2   146  ASN146     -0.2716
     69  ND2       11.4550   13.0410   20.4210 N.am  146  ASN146     -0.0877
     70  N          2.9170   11.4250   24.5580 N.3   177  ARG177     -0.1231
     71  CA         3.1550   11.4730   23.1190 C.3   177  ARG177      0.1694
     72  C          4.5040   12.0980   22.7900 C.2   177  ARG177      0.2591
     73  O          4.9490   13.0560   23.4450 O.2   177  ARG177     -0.2718
     74  CB         2.0290   12.2080   22.4010 C.3   177  ARG177      0.0321
     75  CG         0.6540   11.6970   22.8200 C.3   177  ARG177      0.0489
     76  CD        -0.1840   11.4550   21.6460 C.3   177  ARG177      0.2205
     77  NE         0.3910   10.3830   20.8370 N.pl3 177  ARG177     -0.0865
     78  CZ        -0.0460   10.0520   19.6250 C.cat 177  ARG177      0.5346
     79  NH1       -1.0660   10.7090   19.0770 N.pl3 177  ARG177      0.1354
     80  NH2        0.5300    9.0580   18.9720 N.pl3 177  ARG177      0.1354
     81  N          5.1550   11.5390   21.7720 N.am  178  ALA178     -0.1980
     82  CA         6.5240   11.9190   21.4220 C.3   178  ALA178      0.1597
     83  C          6.4710   13.3060   20.7580 C.2   178  ALA178      0.2287
     84  O          5.4510   13.7110   20.2370 O.2   178  ALA178     -0.2864
     85  CB         7.1090   10.8990   20.4800 C.3   178  ALA178      0.0319
     86  N          7.6290   14.7260   17.9350 N.3   180  ASP180     -0.1225
     87  CA         7.2310   14.9470   16.5380 C.3   180  ASP180      0.1805
     88  C          5.7420   14.7460   16.2990 C.2   180  ASP180      0.2597
     89  O          5.1430   15.3670   15.3960 O.2   180  ASP180     -0.2718
     90  CB         8.0520   14.0870   15.5990 C.3   180  ASP180      0.1424
     91  CG         9.4880   14.5220   15.5470 C.2   180  ASP180      0.3668
     92  OD1        9.7520   15.5520   14.8960 O.co2 180  ASP180     -0.2456
     93  OD2       10.3460   13.8400   16.1560 O.co2 180  ASP180     -0.2456
     94  N          5.1590   13.8360   17.0760 N.am  181  ASP181     -0.1974
     95  CA         3.7290   13.6060   17.0230 C.3   181  ASP181      0.1709
     96  C          3.0090   14.8650   17.5110 C.2   181  ASP181      0.2293
     97  O          2.0070   15.2710   16.9270 O.2   181  ASP181     -0.2864
     98  CB         3.3750   12.3970   17.8700 C.3   181  ASP181      0.1436
     99  CG         3.7690   11.0750   17.2100 C.2   181  ASP181      0.3671
    100  OD1        3.7810   10.9840   15.9550 O.co2 181  ASP181     -0.2456
    101  OD2        4.0910   10.1170   17.9550 O.co2 181  ASP181     -0.2456
    102  N          3.2450   17.6250   14.8420 N.3   184  HIS184     -0.1241
    103  CA         2.2740   17.3450   13.8050 C.3   184  HIS184      0.1621
    104  C          0.8480   17.6910   14.2460 C.2   184  HIS184      0.2264
    105  O          0.0930   18.3090   13.4670 O.2   184  HIS184     -0.2867
    106  CB         2.3740   15.8990   13.3420 C.3   184  HIS184      0.0745
    107  CG         1.4100   15.5750   12.2480 C.ar  184  HIS184      0.0817
    108  ND1        0.1210   15.1590   12.4960 N.ar  184  HIS184     -0.2268
    109  CD2        1.5290   15.6510   10.9010 C.ar  184  HIS184      0.1154
    110  CE1       -0.5080   14.9700   11.3480 C.ar  184  HIS184      0.1986
    111  NE2        0.3200   15.2740   10.3650 N.ar  184  HIS184     -0.2212
    112  N         19.0010   23.3930    7.6070 N.3   383  TRP383     -0.1241
    113  CA        19.9450   22.6370    8.4610 C.3   383  TRP383      0.1605
    114  C         21.2790   22.3810    7.7320 C.2   383  TRP383      0.2264
    115  O         22.3350   22.2300    8.3550 O.2   383  TRP383     -0.2867
    116  CB        19.3160   21.2860    8.8510 C.3   383  TRP383      0.0550
    117  CG        18.2290   21.3310    9.9340 C.ar  383  TRP383      0.0003
    118  CD1       18.1290   22.2070   11.0080 C.ar  383  TRP383      0.0946
    119  CD2       17.1750   20.3830   10.0950 C.ar  383  TRP383      0.0152
    120  NE1       17.0280   21.8640   11.8020 N.ar  383  TRP383     -0.2442
    121  CE2       16.4530   20.7330   11.2700 C.ar  383  TRP383      0.0810
    122  CE3       16.7900   19.2330    9.3850 C.ar  383  TRP383      0.0012
    123  CZ2       15.3160   20.0010   11.7070 C.ar  383  TRP383      0.0191
    124  CZ3       15.6680   18.4960    9.8390 C.ar  383  TRP383      0.0001
    125  CH2       14.9470   18.8910   10.9800 C.ar  383  TRP383      0.0015
    126  N         22.0330   13.4830    5.0930 N.3   546  TRP546     -0.1241
    127  CA        20.6120   13.8480    4.9780 C.3   546  TRP546      0.1605
    128  C         19.8430   13.0990    3.8610 C.2   546  TRP546      0.2264
    129  O         18.7290   12.6160    4.0830 O.2   546  TRP546     -0.2867
    130  CB        20.4360   15.3790    4.8980 C.3   546  TRP546      0.0550
    131  CG        19.0490   15.7870    4.6790 C.ar  546  TRP546      0.0003
    132  CD1       18.5260   16.2970    3.5300 C.ar  546  TRP546      0.0946
    133  CD2       17.9730   15.7030    5.6120 C.ar  546  TRP546      0.0152
    134  NE1       17.1780   16.5470    3.6850 N.ar  546  TRP546     -0.2442
    135  CE2       16.8070   16.1870    4.9570 C.ar  546  TRP546      0.0810
    136  CE3       17.8720   15.2650    6.9340 C.ar  546  TRP546      0.0012
    137  CZ2       15.5500   16.2630    5.5980 C.ar  546  TRP546      0.0191
    138  CZ3       16.6350   15.3130    7.5690 C.ar  546  TRP546      0.0001
    139  CH2       15.4820   15.8120    6.8980 C.ar  546  TRP546      0.0015
    140  N         18.2880   10.0500    5.0810 N.3   549  ASN549     -0.1240
    141  CA        17.2770   10.0640    6.1440 C.3   549  ASN549      0.1653
    142  C         15.9020    9.6550    5.5790 C.2   549  ASN549      0.2266
    143  O         15.5150   10.1500    4.5190 O.2   549  ASN549     -0.2867
    144  CB        17.1850   11.4590    6.7840 C.3   549  ASN549      0.1155
    145  CG        16.3560   11.4520    8.0430 C.2   549  ASN549      0.2627
    146  OD1       16.6520   10.7250    8.9640 O.2   549  ASN549     -0.2716
    147  ND2       15.2910   12.2350    8.0680 N.am  549  ASN549     -0.0877
    148  N         12.8700   10.2860    6.8880 N.3   551  TYR551     -0.1228
    149  CA        11.7640   11.1510    7.2720 C.3   551  TYR551      0.1721
    150  C         11.9870   12.5780    6.7500 C.2   551  TYR551      0.2437
    151  O         13.1150   13.0400    6.6790 O.2   551  TYR551     -0.2733
    152  CB        11.5750   11.1690    8.8020 C.3   551  TYR551      0.0547
    153  CG        11.3830    9.8200    9.4580 C.ar  551  TYR551     -0.0200
    154  CD1       10.3630    8.9590    9.0530 C.ar  551  TYR551     -0.0009
    155  CD2       12.2140    9.4210   10.5020 C.ar  551  TYR551     -0.0009
    156  CE1       10.1900    7.7170    9.6650 C.ar  551  TYR551      0.0417
    157  CE2       12.0620    8.1820   11.1290 C.ar  551  TYR551      0.0417
    158  CZ        11.0360    7.3440   10.7170 C.ar  551  TYR551      0.1957
    159  OH        10.8860    6.1120   11.3330 O.3   551  TYR551     -0.2866
    160  N         10.9020   13.2790    6.3820 N.am  552  PRO552     -0.2718
    161  CA        11.1580   14.6340    5.9660 C.3   552  PRO552      0.1535
    162  C         11.2840   15.5580    7.1690 C.2   552  PRO552      0.2598
    163  O         11.0330   15.1450    8.3050 O.2   552  PRO552     -0.2715
    164  CB         9.9270   14.9880    5.1640 C.3   552  PRO552      0.0310
    165  CG         8.8110   14.1760    5.8060 C.3   552  PRO552      0.0237
    166  CD         9.4650   12.9290    6.3400 C.3   552  PRO552      0.0939
    167  N         11.6600   16.8040    6.8900 N.am  553  LYS553     -0.1964
    168  CA        11.5640   17.8920    7.8680 C.3   553  LYS553      0.1728
    169  C         10.1700   18.4860    7.7230 C.2   553  LYS553      0.2616
    170  O          9.7800   18.8810    6.6290 O.2   553  LYS553     -0.2715
    171  CB        12.5760   18.9680    7.5280 C.3   553  LYS553      0.0311
    172  CG        12.5710   20.1830    8.4430 C.3   553  LYS553      0.0038
    173  CD        13.4770   21.2110    7.8260 C.3   553  LYS553      0.0206
    174  CE        13.4850   22.4590    8.6300 C.3   553  LYS553      0.1093
    175  NZ        13.6600   23.5540    7.6910 N.3   553  LYS553     -0.1314
    176  N          9.3980   18.5560    8.7850 N.am  554  ILE554     -0.1977
    177  CA         8.0480   19.1040    8.5760 C.3   554  ILE554      0.1596
    178  C          7.7170   20.3990    9.3320 C.2   554  ILE554      0.2287
    179  O          6.5690   20.8350    9.3200 O.2   554  ILE554     -0.2864
    180  CB         6.9370   18.0540    8.7560 C.3   554  ILE554      0.0276
    181  CG1        6.8870   17.5570   10.2110 C.3   554  ILE554      0.0022
    182  CG2        7.0700   16.9500    7.6580 C.3   554  ILE554      0.0022
    183  CD1        5.5090   17.7510   10.8600 C.3   554  ILE554      0.0001
@<TRIPOS>BOND
     1   132   134   ar
     2   132   131   ar
     3   134   135   ar
     4   128   129    2
     5   128   127    1
     6   143   142    2
     7   131   130    1
     8   131   133   ar
     9   130   127    1
    10   135   137   ar
    11   135   133   ar
    12   127   126    1
    13   140   141    1
    14   164   165    1
    15   164   161    1
    16   142   141    1
    17   137   139   ar
    18   133   136   ar
    19   165   166    1
    20   161   160    1
    21   161   162    1
    22   141   144    1
    23   166   160    1
    24   160   150   am
    25   170   169    2
    26   151   150    2
    27   150   149    1
    28   144   145    1
    29   148   149    1
    30   167   162   am
    31   167   168    1
    32   139   138   ar
    33   136   138   ar
    34   162   163    2
    35   149   152    1
    36   171   168    1
    37   171   172    1
    38   112   113    1
    39   182   180    1
    40   175   174    1
    41   169   168    1
    42   169   176   am
    43   114   115    2
    44   114   113    1
    45   173   172    1
    46   173   174    1
    47   145   147   am
    48   145   146    2
    49   113   116    1
    50   177   180    1
    51   177   176    1
    52   177   178    1
    53   180   181    1
    54   152   153    1
    55   116   117    1
    56   154   153   ar
    57   154   156   ar
    58   179   178    2
    59   122   124   ar
    60   122   119   ar
    61   153   155   ar
    62   156   158   ar
    63   124   125   ar
    64   117   119   ar
    65   117   118   ar
    66   119   121   ar
    67   181   183    1
    68   111   109   ar
    69   111   110   ar
    70   155   157   ar
    71   158   157   ar
    72   158   159    1
    73   109   107   ar
    74   125   123   ar
    75   118   120   ar
    76    42    40    1
    77   121   123   ar
    78   121   120   ar
    79   110   108   ar
    80    39    38    2
    81    40    37    1
    82    40    41    1
    83   107   108   ar
    84   107   106    1
    85    37    38    1
    86    37    36    1
    87    38    43   am
    88    61    59   ar
    89    61    60   ar
    90    59    57   ar
    91   106   103    1
    92   105   104    2
    93    43    44    1
    94   103   104    1
    95   103   102    1
    96    60    58   ar
    97    44    45    1
    98    44    47    1
    99    45    46    2
   100    57    56   ar
   101    50    48   am
   102    92    91   ar
   103    58    56   ar
   104    56    55    1
   105    47    48    1
   106    48    49    2
   107    89    88    2
   108    91    90    1
   109    91    93   ar
   110    90    87    1
   111   100    99   ar
   112    88    87    1
   113    88    94   am
   114    55    52    1
   115    52    53    1
   116    52    51    1
   117    87    86    1
   118    53    54    2
   119    97    96    2
   120    95    94    1
   121    95    96    1
   122    95    98    1
   123     9     7   ar
   124    99    98    1
   125    99   101   ar
   126     8     7   ar
   127    27    26    1
   128     7     6    1
   129    26    25    1
   130    18    16   ar
   131    35    34    1
   132    80    78    1
   133    25    24    1
   134    79    78    1
   135     6     5    1
   136    16    17   ar
   137    16    15    1
   138    78    77    2
   139    34    33    1
   140     5     2    1
   141    84    83    2
   142    69    67   am
   143    85    82    1
   144    24    23    1
   145    15    14    1
   146    83    82    1
   147    77    76    1
   148    23    20    1
   149    33    32    1
   150    82    81    1
   151     2     1    1
   152     2     3    1
   153    76    75    1
   154    67    68    2
   155    67    66    1
   156    81    72   am
   157     4     3    2
   158    14    11    1
   159    32    29    1
   160    13    12    2
   161    74    75    1
   162    74    71    1
   163    20    19    1
   164    20    21    1
   165    66    63    1
   166    12    19   am
   167    12    11    1
   168    72    71    1
   169    72    73    2
   170    11    10    1
   171    71    70    1
   172    21    22    2
   173    29    28    1
   174    29    30    1
   175    62    63    1
   176    63    64    1
   177    30    31    2
   178    64    65    2
