@<TRIPOS>MOLECULE
tmp/3fu8B07.pdb
 134 130 0 0 0
SMALL
GASTEIGER

@<TRIPOS>ATOM
      1  N         -0.0230   19.8350   16.7010 N.3   186  THR186     -0.1218
      2  CA        -0.2300   21.2800   16.9560 C.3   186  THR186      0.1862
      3  C         -0.2670   22.1340   15.6730 C.2   186  THR186      0.2287
      4  O         -0.5700   23.3400   15.7330 O.2   186  THR186     -0.2866
      5  CB         0.7600   21.8400   17.9950 C.3   186  THR186      0.1770
      6  OG1        2.0950   21.6760   17.5210 O.3   186  THR186     -0.2211
      7  CG2        0.6150   21.0750   19.3310 C.3   186  THR186      0.0375
      8  N         -4.2310   21.6730   15.2970 N.3   189  ASN189     -0.1225
      9  CA        -5.0310   21.6290   16.5280 C.3   189  ASN189      0.1785
     10  C         -4.4760   22.4940   17.6540 C.2   189  ASN189      0.2597
     11  O         -3.2610   22.6610   17.7700 O.2   189  ASN189     -0.2718
     12  CB        -5.1550   20.2150   17.0560 C.3   189  ASN189      0.1169
     13  CG        -5.6760   19.2870   16.0390 C.2   189  ASN189      0.2627
     14  OD1       -6.8900   19.1160   15.9290 O.2   189  ASN189     -0.2716
     15  ND2       -4.7770   18.7470   15.2080 N.am  189  ASN189     -0.0877
     16  N         -5.3660   23.0490   18.4760 N.am  190  ALA190     -0.1966
     17  CA        -4.9290   23.7300   19.6930 C.3   190  ALA190      0.1713
     18  C         -4.1570   22.7190   20.5700 C.2   190  ALA190      0.2458
     19  O         -4.4930   21.5350   20.5720 O.2   190  ALA190     -0.2730
     20  CB        -6.1070   24.3000   20.4450 C.3   190  ALA190      0.0333
     21  N         -3.1050   23.1780   21.2940 N.am  191  PRO191     -0.2727
     22  CA        -2.2580   22.2630   22.0500 C.3   191  PRO191      0.1402
     23  C         -2.9520   21.6150   23.2630 C.2   191  PRO191      0.2269
     24  O         -3.8010   22.2410   23.9090 O.2   191  PRO191     -0.2865
     25  CB        -1.1050   23.1530   22.5160 C.3   191  PRO191      0.0296
     26  CG        -1.7150   24.5330   22.6180 C.3   191  PRO191      0.0237
     27  CD        -2.6210   24.5670   21.4110 C.3   191  PRO191      0.0939
     28  N          5.7870   23.7480   26.6230 N.3   234  GLU234     -0.1245
     29  CA         4.6630   24.7120   26.5730 C.3   234  GLU234      0.1567
     30  C          4.1200   25.2650   27.9120 C.2   234  GLU234      0.2260
     31  O          3.7690   26.4620   27.9980 O.2   234  GLU234     -0.2867
     32  CB         3.5180   24.1420   25.7480 C.3   234  GLU234      0.0388
     33  CG         2.3560   25.2060   25.4450 C.3   234  GLU234      0.1160
     34  CD         1.2570   25.2460   26.5000 C.2   234  GLU234      0.3649
     35  OE1        1.2800   24.4420   27.4390 O.co2 234  GLU234     -0.2457
     36  OE2        0.3690   26.1160   26.3980 O.co2 234  GLU234     -0.2457
     37  N         -5.9100   29.1950   31.4470 N.3   295  ALA295     -0.1231
     38  CA        -5.3480   28.2810   30.4290 C.3   295  ALA295      0.1694
     39  C         -4.7100   28.8960   29.1800 C.2   295  ALA295      0.2591
     40  O         -4.4370   28.1710   28.2280 O.2   295  ALA295     -0.2718
     41  CB        -6.3620   27.2100   29.9890 C.3   295  ALA295      0.0304
     42  N         -4.5040   30.2040   29.1600 N.am  296  ALA296     -0.1980
     43  CA        -3.9000   30.8320   28.0250 C.3   296  ALA296      0.1597
     44  C         -2.4320   30.4370   27.8580 C.2   296  ALA296      0.2287
     45  O         -1.8770   30.5670   26.7660 O.2   296  ALA296     -0.2864
     46  CB        -4.0230   32.3470   28.1280 C.3   296  ALA296      0.0319
     47  N         -1.1560   27.4120   29.3180 N.3   298  GLY298     -0.1225
     48  CA        -1.0270   26.0010   29.6480 C.3   298  GLY298      0.1811
     49  C         -1.9520   25.4870   30.7370 C.2   298  GLY298      0.2280
     50  O         -2.5850   26.2540   31.4780 O.2   298  GLY298     -0.2866
     51  N         -0.5930   35.2210   13.6520 N.3   362  LEU362     -0.1245
     52  CA        -1.0530   33.8730   13.2990 C.3   362  LEU362      0.1561
     53  C         -1.8390   33.8680   11.9790 C.2   362  LEU362      0.2260
     54  O         -2.8630   34.5650   11.8310 O.2   362  LEU362     -0.2867
     55  CB        -1.8770   33.2390   14.4380 C.3   362  LEU362      0.0270
     56  CG        -2.4330   31.8250   14.2080 C.3   362  LEU362      0.0019
     57  CD1       -1.3060   30.8080   14.2720 C.3   362  LEU362      0.0001
     58  CD2       -3.5350   31.5040   15.2360 C.3   362  LEU362      0.0001
     59  N         -2.0350   26.2970   11.4900 N.3   370  PHE370     -0.1241
     60  CA        -1.3880   27.1780   12.4490 C.3   370  PHE370      0.1605
     61  C          0.0650   27.4550   12.0480 C.2   370  PHE370      0.2264
     62  O          0.9450   26.6470   12.2760 O.2   370  PHE370     -0.2867
     63  CB        -1.4940   26.6460   13.9040 C.3   370  PHE370      0.0534
     64  CG        -2.9250   26.5310   14.4360 C.ar  370  PHE370     -0.0203
     65  CD1       -3.7880   27.6350   14.4660 C.ar  370  PHE370     -0.0042
     66  CD2       -3.3920   25.3200   14.9490 C.ar  370  PHE370     -0.0042
     67  CE1       -5.1040   27.5050   14.9820 C.ar  370  PHE370     -0.0003
     68  CE2       -4.7060   25.1900   15.4490 C.ar  370  PHE370     -0.0003
     69  CZ        -5.5430   26.2980   15.4960 C.ar  370  PHE370     -0.0000
     70  N          2.9020   30.6280   12.3370 N.3   372  TRP372     -0.1241
     71  CA         3.2250   31.8790   13.0110 C.3   372  TRP372      0.1605
     72  C          4.2510   32.6790   12.2010 C.2   372  TRP372      0.2264
     73  O          5.2590   32.1340   11.7390 O.2   372  TRP372     -0.2867
     74  CB         3.8170   31.5720   14.3930 C.3   372  TRP372      0.0550
     75  CG         2.8630   30.9470   15.3490 C.ar  372  TRP372      0.0003
     76  CD1        2.7330   29.6020   15.6410 C.ar  372  TRP372      0.0946
     77  CD2        1.9430   31.6330   16.2070 C.ar  372  TRP372      0.0152
     78  NE1        1.7520   29.4290   16.5890 N.ar  372  TRP372     -0.2442
     79  CE2        1.2670   30.6570   16.9660 C.ar  372  TRP372      0.0810
     80  CE3        1.5960   32.9790   16.3770 C.ar  372  TRP372      0.0012
     81  CZ2        0.2490   30.9850   17.8740 C.ar  372  TRP372      0.0191
     82  CZ3        0.5950   33.3040   17.2950 C.ar  372  TRP372      0.0001
     83  CH2       -0.0600   32.3140   18.0300 C.ar  372  TRP372      0.0015
     84  N         -7.6020   36.3240   17.4340 N.3   426  PHE426     -0.1241
     85  CA        -7.3150   35.6550   18.6930 C.3   426  PHE426      0.1605
     86  C         -5.8310   35.8840   18.9920 C.2   426  PHE426      0.2264
     87  O         -5.0540   35.9310   18.0740 O.2   426  PHE426     -0.2867
     88  CB        -7.6540   34.1580   18.5230 C.3   426  PHE426      0.0534
     89  CG        -7.3550   33.3420   19.7020 C.ar  426  PHE426     -0.0203
     90  CD1       -6.2270   32.5400   19.7270 C.ar  426  PHE426     -0.0042
     91  CD2       -8.1820   33.3910   20.8190 C.ar  426  PHE426     -0.0042
     92  CE1       -5.9460   31.7600   20.8340 C.ar  426  PHE426     -0.0003
     93  CE2       -7.8860   32.6330   21.9500 C.ar  426  PHE426     -0.0003
     94  CZ        -6.7670   31.8100   21.9540 C.ar  426  PHE426     -0.0000
     95  N         -2.4580   35.0550   21.9310 N.3   428  LEU428     -0.1245
     96  CA        -1.9690   34.2920   23.0720 C.3   428  LEU428      0.1561
     97  C         -0.7240   34.9020   23.6740 C.2   428  LEU428      0.2260
     98  O          0.0700   35.5480   22.9670 O.2   428  LEU428     -0.2867
     99  CB        -1.5730   32.8800   22.6200 C.3   428  LEU428      0.0270
    100  CG        -2.6020   32.0790   21.8680 C.3   428  LEU428      0.0019
    101  CD1       -1.9230   30.9480   21.0760 C.3   428  LEU428      0.0001
    102  CD2       -3.5970   31.5520   22.8590 C.3   428  LEU428      0.0001
    103  N          7.7400   28.4820   23.2990 N.3   504  ILE504     -0.1245
    104  CA         6.7570   27.3870   23.2430 C.3   504  ILE504      0.1561
    105  C          7.1240   26.5540   22.0290 C.2   504  ILE504      0.2260
    106  O          7.1460   27.0650   20.9230 O.2   504  ILE504     -0.2867
    107  CB         5.2810   27.8370   23.1850 C.3   504  ILE504      0.0252
    108  CG1        4.8400   28.5160   24.4920 C.3   504  ILE504      0.0019
    109  CG2        4.3820   26.6370   22.7720 C.3   504  ILE504      0.0019
    110  CD1        3.5540   29.4460   24.3100 C.3   504  ILE504      0.0001
    111  N          5.8360   24.2950   20.1700 N.3   506  TRP506     -0.1227
    112  CA         4.9290   24.2700   19.0430 C.3   506  TRP506      0.1737
    113  C          4.9280   25.5540   18.2190 C.2   506  TRP506      0.2595
    114  O          4.6320   25.4990   17.0360 O.2   506  TRP506     -0.2718
    115  CB         3.4990   23.9880   19.5110 C.3   506  TRP506      0.0564
    116  CG         3.4110   23.1510   20.7830 C.ar  506  TRP506      0.0003
    117  CD1        2.5900   23.3820   21.8530 C.ar  506  TRP506      0.0946
    118  CD2        4.1320   21.9380   21.0820 C.ar  506  TRP506      0.0152
    119  NE1        2.7620   22.3800   22.8020 N.ar  506  TRP506     -0.2442
    120  CE2        3.7010   21.4930   22.3470 C.ar  506  TRP506      0.0810
    121  CE3        5.1060   21.1990   20.4070 C.ar  506  TRP506      0.0012
    122  CZ2        4.2140   20.3410   22.9450 C.ar  506  TRP506      0.0191
    123  CZ3        5.6010   20.0530   20.9850 C.ar  506  TRP506      0.0001
    124  CH2        5.1670   19.6350   22.2480 C.ar  506  TRP506      0.0015
    125  N          5.2240   26.6950   18.8480 N.am  507  HIS507     -0.1975
    126  CA         5.1700   27.9900   18.1860 C.3   507  HIS507      0.1656
    127  C          6.3840   28.2770   17.2930 C.2   507  HIS507      0.2291
    128  O          6.2290   28.6550   16.1010 O.2   507  HIS507     -0.2864
    129  CB         4.9300   29.0800   19.2390 C.3   507  HIS507      0.0771
    130  CG         3.5370   29.0500   19.7940 C.ar  507  HIS507      0.0820
    131  ND1        3.1010   29.9350   20.7450 N.ar  507  HIS507     -0.2267
    132  CD2        2.4910   28.2240   19.5340 C.ar  507  HIS507      0.1154
    133  CE1        1.8210   29.7080   20.9990 C.ar  507  HIS507      0.1986
    134  NE2        1.4420   28.6370   20.3130 N.ar  507  HIS507     -0.2212
@<TRIPOS>BOND
     1    59    60    1
     2    73    72    2
     3    54    53    2
     4    53    52    1
     5    61    62    2
     6    61    60    1
     7    72    71    1
     8    70    71    1
     9    60    63    1
    10    71    74    1
    11    52    51    1
    12    52    55    1
    13    63    64    1
    14    56    57    1
    15    56    55    1
    16    56    58    1
    17    74    75    1
    18    64    65   ar
    19    64    66   ar
    20    65    67   ar
    21    66    68   ar
    22    67    69   ar
    23    15    13   am
    24     8     9    1
    25    75    76   ar
    26    75    77   ar
    27    68    69   ar
    28    76    78   ar
    29     3     4    2
    30     3     2    1
    31    14    13    2
    32    13    12    1
    33   128   127    2
    34    77    80   ar
    35    77    79   ar
    36    80    82   ar
    37     9    12    1
    38     9    10    1
    39    78    79   ar
    40     1     2    1
    41     2     5    1
    42    79    81   ar
    43   114   113    2
    44   127   126    1
    45    82    83   ar
    46    84    85    1
    47     6     5    1
    48    10    11    2
    49    10    16   am
    50    81    83   ar
    51     5     7    1
    52    87    86    2
    53   126   125    1
    54   126   129    1
    55   113   125   am
    56   113   112    1
    57    16    17    1
    58    88    85    1
    59    88    89    1
    60    85    86    1
    61   112   115    1
    62   112   111    1
    63   129   130    1
    64   115   116    1
    65   132   130   ar
    66   132   134   ar
    67    17    20    1
    68    17    18    1
    69    89    90   ar
    70    89    91   ar
    71    90    92   ar
    72   130   131   ar
    73   134   133   ar
    74   121   123   ar
    75   121   118   ar
    76    18    19    2
    77    18    21   am
    78   131   133   ar
    79   116   118   ar
    80   116   117   ar
    81    91    93   ar
    82    92    94   ar
    83   106   105    2
    84   123   124   ar
    85   101   100    1
    86   118   120   ar
    87    21    27    1
    88    21    22    1
    89    27    26    1
    90   117   119   ar
    91   100    99    1
    92   100   102    1
    93    95    96    1
    94    93    94   ar
    95   105   104    1
    96    22    25    1
    97    22    23    1
    98   124   122   ar
    99   120   119   ar
   100   120   122   ar
   101    25    26    1
   102    99    96    1
   103   109   107    1
   104    98    97    2
   105    96    97    1
   106   107   104    1
   107   107   108    1
   108   104   103    1
   109    23    24    2
   110   110   108    1
   111    33    32    1
   112    33    34    1
   113    32    29    1
   114    36    34   ar
   115    34    35   ar
   116    29    28    1
   117    29    30    1
   118    45    44    2
   119    44    43    1
   120    30    31    2
   121    43    46    1
   122    43    42    1
   123    40    39    2
   124    42    39   am
   125    39    38    1
   126    47    48    1
   127    48    49    1
   128    41    38    1
   129    38    37    1
   130    49    50    2
