@<TRIPOS>MOLECULE
tmp/3fu9B02.pdb
 74 69 0 0 0
SMALL
GASTEIGER

@<TRIPOS>ATOM
      1  N         12.0300   13.0230   45.2460 N.3   216  ASN216     -0.1240
      2  CA        12.0520   13.0010   46.7430 C.3   216  ASN216      0.1653
      3  C         13.3370   13.6110   47.1870 C.2   216  ASN216      0.2266
      4  O         14.4060   13.0180   46.9300 O.2   216  ASN216     -0.2867
      5  CB        11.9150   11.5730   47.2500 C.3   216  ASN216      0.1155
      6  CG        12.0540   11.4300   48.8030 C.2   216  ASN216      0.2627
      7  OD1       11.9470   12.4190   49.5860 O.2   216  ASN216     -0.2716
      8  ND2       12.2770   10.1430   49.2370 N.am  216  ASN216     -0.0877
      9  N         15.7980   15.1500   50.1700 N.3   218  THR218     -0.1218
     10  CA        15.9920   15.2710   51.6210 C.3   218  THR218      0.1862
     11  C         16.5560   16.6300   52.0360 C.2   218  THR218      0.2287
     12  O         17.5610   17.1430   51.4860 O.2   218  THR218     -0.2866
     13  CB        16.9160   14.1840   52.2160 C.3   218  THR218      0.1770
     14  OG1       16.2950   12.9170   52.1600 O.3   218  THR218     -0.2211
     15  CG2       17.2060   14.4440   53.7320 C.3   218  THR218      0.0375
     16  N          7.0790   15.8160   55.9110 N.3   285  ASN285     -0.1240
     17  CA         7.1160   15.6280   54.4710 C.3   285  ASN285      0.1653
     18  C          6.1770   16.7130   54.0370 C.2   285  ASN285      0.2266
     19  O          5.1810   17.0050   54.7700 O.2   285  ASN285     -0.2867
     20  CB         6.4730   14.2710   54.1830 C.3   285  ASN285      0.1155
     21  CG         7.3560   13.0990   54.5940 C.2   285  ASN285      0.2627
     22  OD1        8.4000   12.9160   54.0150 O.2   285  ASN285     -0.2716
     23  ND2        6.8790   12.2370   55.5300 N.am  285  ASN285     -0.0877
     24  N          8.2040   15.3320   46.8690 N.3   309  ILE309     -0.1245
     25  CA         8.1540   15.1880   48.3620 C.3   309  ILE309      0.1561
     26  C          9.3980   15.8620   48.8270 C.2   309  ILE309      0.2260
     27  O         10.5010   15.4850   48.3920 O.2   309  ILE309     -0.2867
     28  CB         8.2030   13.6660   48.7370 C.3   309  ILE309      0.0252
     29  CG1        7.0690   12.8630   47.9890 C.3   309  ILE309      0.0019
     30  CG2        8.1240   13.4340   50.2950 C.3   309  ILE309      0.0019
     31  CD1        7.0870   11.3470   48.1080 C.3   309  ILE309      0.0001
     32  N         11.3640   15.7440   52.0000 N.3   311  HIS311     -0.1241
     33  CA        11.4210   14.9410   53.2310 C.3   311  HIS311      0.1621
     34  C         12.4600   15.4510   54.2100 C.2   311  HIS311      0.2264
     35  O         13.6520   15.5300   53.8800 O.2   311  HIS311     -0.2867
     36  CB        11.7290   13.4560   52.9710 C.3   311  HIS311      0.0745
     37  CG        11.7180   12.6170   54.2400 C.ar  311  HIS311      0.0817
     38  ND1       12.8600   12.0930   54.8170 N.ar  311  HIS311     -0.2268
     39  CD2       10.7080   12.2910   55.0850 C.ar  311  HIS311      0.1154
     40  CE1       12.5410   11.4060   55.8990 C.ar  311  HIS311      0.1986
     41  NE2       11.2450   11.5550   56.1100 N.ar  311  HIS311     -0.2212
     42  N         15.0880   15.1020   56.8030 N.3   313  ALA313     -0.1245
     43  CA        15.9740   14.0780   57.3160 C.3   313  ALA313      0.1562
     44  C         15.6460   13.8190   58.8110 C.2   313  ALA313      0.2260
     45  O         15.6480   14.7480   59.6380 O.2   313  ALA313     -0.2867
     46  CB        17.3940   14.4790   57.1260 C.3   313  ALA313      0.0290
     47  N         12.5360   12.7630   59.9800 N.3   315  ALA315     -0.1231
     48  CA        11.1170   12.5060   60.0520 C.3   315  ALA315      0.1679
     49  C         10.7360   11.1830   59.3720 C.2   315  ALA315      0.2434
     50  O         11.5640   10.5420   58.7070 O.2   315  ALA315     -0.2733
     51  CB        10.3930   13.6370   59.4380 C.3   315  ALA315      0.0304
     52  N          9.4760   10.7380   59.5350 N.am  316  PRO316     -0.2718
     53  CA         9.2240    9.3940   59.0540 C.3   316  PRO316      0.1535
     54  C          9.0090    9.2630   57.5080 C.2   316  PRO316      0.2599
     55  O          9.1910   10.2250   56.7590 O.2   316  PRO316     -0.2715
     56  CB         7.9900    8.9800   59.8480 C.3   316  PRO316      0.0310
     57  CG         7.2240   10.3670   60.0690 C.3   316  PRO316      0.0237
     58  CD         8.2920   11.3970   60.1390 C.3   316  PRO316      0.0939
     59  N          8.6700    8.0810   57.0180 N.am  317  GLY317     -0.1941
     60  CA         8.5050    7.9190   55.5700 C.3   317  GLY317      0.2014
     61  C          7.1280    8.3230   55.0920 C.2   317  GLY317      0.2639
     62  O          6.3670    9.0300   55.7760 O.2   317  GLY317     -0.2714
     63  N          6.7640    7.8830   53.8940 N.am  318  GLY318     -0.1939
     64  CA         5.3800    7.9790   53.5460 C.3   318  GLY318      0.2014
     65  C          5.1100    9.2910   52.8640 C.2   318  GLY318      0.2638
     66  O          6.0170   10.0900   52.6400 O.2   318  GLY318     -0.2714
     67  N          3.8350    9.5020   52.5540 N.am  319  LEU319     -0.1977
     68  CA         3.4050   10.6830   51.8260 C.3   319  LEU319      0.1596
     69  C          3.1200   11.8840   52.7200 C.2   319  LEU319      0.2287
     70  O          2.6850   11.7430   53.8590 O.2   319  LEU319     -0.2864
     71  CB         2.3130   10.3610   50.7940 C.3   319  LEU319      0.0297
     72  CG         2.4920    9.0670   49.9670 C.3   319  LEU319      0.0022
     73  CD1        1.2800    8.7490   49.0590 C.3   319  LEU319      0.0001
     74  CD2        3.8170    8.9720   49.1240 C.3   319  LEU319      0.0001
@<TRIPOS>BOND
     1     1     2    1
     2     2     3    1
     3     2     5    1
     4    24    25    1
     5     4     3    2
     6     5     6    1
     7    29    31    1
     8    29    28    1
     9    25    28    1
    10    25    26    1
    11    27    26    2
    12    28    30    1
    13     6     8   am
    14     6     7    2
    15    73    72    1
    16    74    72    1
    17    72    71    1
    18     9    10    1
    19    71    68    1
    20    12    11    2
    21    10    11    1
    22    10    13    1
    23    68    67    1
    24    68    69    1
    25    32    33    1
    26    14    13    1
    27    13    15    1
    28    67    65   am
    29    66    65    2
    30    69    70    2
    31    65    64    1
    32    36    33    1
    33    36    37    1
    34    33    34    1
    35    64    63    1
    36    35    34    2
    37    63    61   am
    38    22    21    2
    39    18    17    1
    40    18    19    2
    41    20    17    1
    42    20    21    1
    43    37    38   ar
    44    37    39   ar
    45    17    16    1
    46    21    23   am
    47    38    40   ar
    48    39    41   ar
    49    61    60    1
    50    61    62    2
    51    60    59    1
    52    40    41   ar
    53    55    54    2
    54    42    43    1
    55    59    54   am
    56    46    43    1
    57    43    44    1
    58    54    53    1
    59    50    49    2
    60    44    45    2
    61    53    52    1
    62    53    56    1
    63    49    52   am
    64    49    48    1
    65    51    48    1
    66    52    58    1
    67    56    57    1
    68    47    48    1
    69    57    58    1
