@<TRIPOS>MOLECULE
tmp/3fucA00.pdb
 137 131 0 0 0
SMALL
GASTEIGER

@<TRIPOS>ATOM
      1  N         31.6290  -19.9630   23.9140 N.3    30  GLY30      -0.1210
      2  CA        32.0420  -18.5990   24.1510 C.3    30  GLY30       0.1956
      3  C         33.5020  -18.5260   24.5410 C.2    30  GLY30       0.2612
      4  O         34.2440  -19.5410   24.4650 O.2    30  GLY30      -0.2717
      5  N         33.9250  -17.3380   24.9510 N.am   31  SER31      -0.1952
      6  CA        35.3320  -17.0520   25.2830 C.3    31  SER31       0.1924
      7  C         35.8480  -18.0250   26.3100 C.2    31  SER31       0.2314
      8  O         35.2050  -18.2590   27.3290 O.2    31  SER31      -0.2863
      9  CB        35.4570  -15.6390   25.8430 C.3    31  SER31       0.2116
     10  OG        35.0340  -14.6930   24.8920 O.3    31  SER31      -0.2180
     11  N         31.0120  -17.4290   17.5710 N.3    74  ARG74      -0.1245
     12  CA        29.5730  -17.1440   17.5210 C.3    74  ARG74       0.1563
     13  C         29.3650  -15.7490   16.9660 C.2    74  ARG74       0.2260
     14  O         30.3280  -15.0540   16.6640 O.2    74  ARG74      -0.2867
     15  CB        28.9390  -17.2900   18.9170 C.3    74  ARG74       0.0307
     16  CG        29.4780  -16.3030   19.9660 C.3    74  ARG74       0.0489
     17  CD        28.3970  -15.5610   20.7270 C.3    74  ARG74       0.2205
     18  NE        27.5330  -16.4390   21.5080 N.pl3  74  ARG74      -0.0865
     19  CZ        27.8650  -16.9900   22.6800 C.cat  74  ARG74       0.5346
     20  NH1       29.0730  -16.8030   23.2130 N.pl3  74  ARG74       0.1354
     21  NH2       27.0030  -17.7690   23.3190 N.pl3  74  ARG74       0.1354
     22  N         27.7030  -11.7890   17.1610 N.3    76  HIS76      -0.1241
     23  CA        27.3950  -10.7820   18.1880 C.3    76  HIS76       0.1621
     24  C         26.7010   -9.5580   17.6270 C.2    76  HIS76       0.2264
     25  O         27.0320   -9.0660   16.5420 O.2    76  HIS76      -0.2867
     26  CB        28.6580  -10.3210   18.9090 C.3    76  HIS76       0.0745
     27  CG        29.4600  -11.4350   19.4840 C.ar   76  HIS76       0.0817
     28  ND1       30.4330  -12.0890   18.7590 N.ar   76  HIS76      -0.2268
     29  CD2       29.4630  -11.9880   20.7210 C.ar   76  HIS76       0.1154
     30  CE1       30.9740  -13.0250   19.5180 C.ar   76  HIS76       0.1986
     31  NE2       30.4200  -12.9680   20.7190 N.ar   76  HIS76      -0.2212
     32  N         27.2770   -6.6150   18.6650 N.3    78  TYR78      -0.1241
     33  CA        28.2670   -5.5450   18.5300 C.3    78  TYR78       0.1605
     34  C         29.0330   -5.6040   17.2160 C.2    78  TYR78       0.2264
     35  O         29.6010   -4.6050   16.8230 O.2    78  TYR78      -0.2867
     36  CB        29.2440   -5.4900   19.7120 C.3    78  TYR78       0.0534
     37  CG        30.1460   -6.6830   19.8740 C.ar   78  TYR78      -0.0201
     38  CD1       31.2440   -6.8850   19.0220 C.ar   78  TYR78      -0.0009
     39  CD2       29.9480   -7.6060   20.9140 C.ar   78  TYR78      -0.0009
     40  CE1       32.0820   -7.9990   19.1820 C.ar   78  TYR78       0.0417
     41  CE2       30.7760   -8.6930   21.0720 C.ar   78  TYR78       0.0417
     42  CZ        31.8370   -8.8940   20.2040 C.ar   78  TYR78       0.1957
     43  OH        32.6570   -9.9980   20.3940 O.3    78  TYR78      -0.2866
     44  N         29.9070  -18.0280   27.7130 N.3   105  ASN105     -0.1225
     45  CA        30.4030  -16.7080   27.3650 C.3   105  ASN105      0.1785
     46  C         31.4640  -16.2860   28.3730 C.2   105  ASN105      0.2597
     47  O         31.6770  -16.9980   29.3940 O.2   105  ASN105     -0.2718
     48  CB        29.2470  -15.7010   27.3290 C.3   105  ASN105      0.1169
     49  CG        28.5150  -15.6460   28.6370 C.2   105  ASN105      0.2627
     50  OD1       29.1020  -15.3570   29.6740 O.2   105  ASN105     -0.2716
     51  ND2       27.1960  -15.8590   28.5870 N.am  105  ASN105     -0.0877
     52  N         32.1290  -15.1730   28.0840 N.am  106  ALA106     -0.1966
     53  CA        32.8680  -14.3970   29.0990 C.3   106  ALA106      0.1728
     54  C         31.9940  -13.2610   29.6110 C.2   106  ALA106      0.2616
     55  O         31.1540  -12.7190   28.8640 O.2   106  ALA106     -0.2715
     56  CB        34.1310  -13.8000   28.5210 C.3   106  ALA106      0.0334
     57  N         32.1970  -12.8620   30.8590 N.am  107  ALA107     -0.1963
     58  CA        31.3950  -11.8040   31.4420 C.3   107  ALA107      0.1728
     59  C         32.1940  -11.0580   32.4800 C.2   107  ALA107      0.2616
     60  O         33.1130  -11.6130   33.1070 O.2   107  ALA107     -0.2715
     61  CB        30.1460  -12.3710   32.0840 C.3   107  ALA107      0.0334
     62  N         31.8480   -9.7990   32.6780 N.am  108  GLY108     -0.1955
     63  CA        32.3850   -9.0420   33.8100 C.3   108  GLY108      0.1869
     64  C         31.6230   -9.3490   35.0880 C.2   108  GLY108      0.2309
     65  O         30.3890   -9.4990   35.0910 O.2   108  GLY108     -0.2863
     66  N         22.7880  -13.3320   34.5280 N.3   182  TYR182     -0.1241
     67  CA        23.5910  -12.6760   33.4830 C.3   182  TYR182      0.1605
     68  C         22.7480  -11.5940   32.8010 C.2   182  TYR182      0.2264
     69  O         21.6240  -11.8610   32.3600 O.2   182  TYR182     -0.2867
     70  CB        23.9880  -13.7360   32.4720 C.3   182  TYR182      0.0534
     71  CG        24.7290  -13.2790   31.2480 C.ar  182  TYR182     -0.0201
     72  CD1       26.1090  -13.2190   31.2140 C.ar  182  TYR182     -0.0009
     73  CD2       24.0330  -12.9940   30.0700 C.ar  182  TYR182     -0.0009
     74  CE1       26.7890  -12.8400   30.0390 C.ar  182  TYR182      0.0417
     75  CE2       24.7080  -12.6160   28.9160 C.ar  182  TYR182      0.0417
     76  CZ        26.0740  -12.5570   28.8930 C.ar  182  TYR182      0.1957
     77  OH        26.6990  -12.2360   27.7070 O.3   182  TYR182     -0.2866
     78  N         33.1790   -1.3980   27.2860 N.3   190  PHE190     -0.1241
     79  CA        32.9190   -1.7780   28.6550 C.3   190  PHE190      0.1605
     80  C         32.2320   -0.6290   29.4180 C.2   190  PHE190      0.2264
     81  O         32.2780    0.5280   28.9970 O.2   190  PHE190     -0.2867
     82  CB        34.2260   -2.1860   29.3540 C.3   190  PHE190      0.0534
     83  CG        34.9250   -3.3790   28.7450 C.ar  190  PHE190     -0.0203
     84  CD1       34.3070   -4.6240   28.6940 C.ar  190  PHE190     -0.0042
     85  CD2       36.2510   -3.2820   28.3270 C.ar  190  PHE190     -0.0042
     86  CE1       34.9730   -5.7630   28.1710 C.ar  190  PHE190     -0.0003
     87  CE2       36.9420   -4.4250   27.8160 C.ar  190  PHE190     -0.0003
     88  CZ        36.2840   -5.6570   27.7390 C.ar  190  PHE190     -0.0000
     89  N         27.8590   -9.3720   33.6290 N.3   207  VAL207     -0.1231
     90  CA        27.4290   -8.5880   32.4620 C.3   207  VAL207      0.1692
     91  C         28.2230   -9.0170   31.2330 C.2   207  VAL207      0.2593
     92  O         29.4440   -9.2000   31.2980 O.2   207  VAL207     -0.2718
     93  CB        27.5460   -7.0650   32.7050 C.3   207  VAL207      0.0266
     94  CG1       28.9510   -6.6230   33.1290 C.3   207  VAL207      0.0020
     95  CG2       27.1330   -6.3150   31.4290 C.3   207  VAL207      0.0020
     96  N         27.5210   -9.1890   30.1200 N.am  208  GLY208     -0.1942
     97  CA        28.1920   -9.5940   28.9010 C.3   208  GLY208      0.2014
     98  C         27.4460   -9.1270   27.6640 C.2   208  GLY208      0.2639
     99  O         26.4940   -8.3300   27.7630 O.2   208  GLY208     -0.2714
    100  N         27.8680   -9.6390   26.5020 N.am  209  MET209     -0.1963
    101  CA        27.4270   -9.1180   25.1990 C.3   209  MET209      0.1736
    102  C         26.8660  -10.1920   24.2750 C.2   209  MET209      0.2617
    103  O         26.7780   -9.9730   23.0660 O.2   209  MET209     -0.2715
    104  CB        28.6180   -8.4240   24.5140 C.3   209  MET209      0.0427
    105  CG        29.2490   -7.3270   25.3370 C.3   209  MET209      0.0599
    106  SD        30.6790   -6.5920   24.4980 S.3   209  MET209     -0.1393
    107  CE        31.3150   -5.5350   25.7880 C.3   209  MET209      0.0692
    108  N         26.4770  -11.3470   24.8040 N.am  210  SER210     -0.1950
    109  CA        25.9860  -12.4400   23.9530 C.3   210  SER210      0.1924
    110  C         24.9180  -13.2710   24.6510 C.2   210  SER210      0.2314
    111  O         24.3500  -12.8330   25.6430 O.2   210  SER210     -0.2863
    112  CB        27.1660  -13.3390   23.5730 C.3   210  SER210      0.2116
    113  OG        27.5570  -14.1140   24.6940 O.3   210  SER210     -0.2180
    114  N         35.8180  -12.8870   33.7570 N.3   232  THR232     -0.1218
    115  CA        37.1530  -12.5700   33.2740 C.3   232  THR232      0.1862
    116  C         37.7480  -11.3250   33.9310 C.2   232  THR232      0.2287
    117  O         38.9280  -11.0210   33.7160 O.2   232  THR232     -0.2866
    118  CB        37.1460  -12.3800   31.7760 C.3   232  THR232      0.1770
    119  OG1       36.0770  -11.4630   31.4270 O.3   232  THR232     -0.2211
    120  CG2       36.7620  -13.6800   31.0970 C.3   232  THR232      0.0375
    121  N         40.6500   -5.9880   27.1350 N.3   247  HIS247     -0.1241
    122  CA        40.5290   -7.2490   26.4060 C.3   247  HIS247      0.1621
    123  C         41.6860   -8.1950   26.7190 C.2   247  HIS247      0.2264
    124  O         41.4980   -9.4090   26.7800 O.2   247  HIS247     -0.2867
    125  CB        40.4390   -6.9700   24.8960 C.3   247  HIS247      0.0745
    126  CG        40.0940   -8.1710   24.0680 C.ar  247  HIS247      0.0817
    127  ND1       40.4920   -8.3030   22.7530 N.ar  247  HIS247     -0.2268
    128  CD2       39.3890   -9.2870   24.3610 C.ar  247  HIS247      0.1154
    129  CE1       40.0510   -9.4530   22.2760 C.ar  247  HIS247      0.1986
    130  NE2       39.3770  -10.0680   23.2310 N.ar  247  HIS247     -0.2212
    131  N         40.9780  -10.1380   29.7270 N.3   250  VAL250     -0.1245
    132  CA        39.9030  -11.0590   29.3910 C.3   250  VAL250      0.1561
    133  C         40.4580  -12.2900   28.6620 C.2   250  VAL250      0.2260
    134  O         40.1170  -13.4290   29.0020 O.2   250  VAL250     -0.2867
    135  CB        38.7800  -10.3480   28.5610 C.3   250  VAL250      0.0252
    136  CG1       37.7170  -11.3480   28.0460 C.3   250  VAL250      0.0019
    137  CG2       38.1450   -9.2420   29.4010 C.3   250  VAL250      0.0019
@<TRIPOS>BOND
     1    25    24    2
     2    14    13    2
     3    35    34    2
     4    13    12    1
     5    22    23    1
     6    34    33    1
     7    12    11    1
     8    12    15    1
     9    24    23    1
    10    23    26    1
    11    33    32    1
    12    33    36    1
    13    28    27   ar
    14    28    30   ar
    15    26    27    1
    16    15    16    1
    17    38    40   ar
    18    38    37   ar
    19    40    42   ar
    20    27    29   ar
    21    30    31   ar
    22    36    37    1
    23    37    39   ar
    24    16    17    1
    25    42    43    1
    26    42    41   ar
    27    31    29   ar
    28    17    18    1
    29    39    41   ar
    30    18    19    2
    31   129   127   ar
    32   129   130   ar
    33    19    20    1
    34    19    21    1
    35   127   126   ar
    36   103   102    2
    37   130   128   ar
    38   112   109    1
    39   112   113    1
    40     1     2    1
    41   109   110    1
    42   109   108    1
    43   126   128   ar
    44   126   125    1
    45     2     3    1
    46   102   108   am
    47   102   101    1
    48     4     3    2
    49   106   105    1
    50   106   107    1
    51   104   101    1
    52   104   105    1
    53     3     5   am
    54   110   111    2
    55    10     9    1
    56   125   122    1
    57     5     6    1
    58   101   100    1
    59     6     9    1
    60     6     7    1
    61     7     8    2
    62   122   123    1
    63   122   121    1
    64   100    98   am
    65   123   124    2
    66    78    79    1
    67    48    45    1
    68    48    49    1
    69    45    44    1
    70    45    46    1
    71    98    99    2
    72    98    97    1
    73    77    76    1
    74    88    87   ar
    75    88    86   ar
    76    87    85   ar
    77   136   135    1
    78    52    46   am
    79    52    53    1
    80    86    84   ar
    81    85    83   ar
    82    46    47    2
    83    56    53    1
    84   135   132    1
    85   135   137    1
    86    51    49   am
    87    49    50    2
    88    79    82    1
    89    79    80    1
    90   133   134    2
    91   133   132    1
    92    84    83   ar
    93    83    82    1
    94    55    54    2
    95    76    75   ar
    96    76    74   ar
    97    97    96    1
    98    75    73   ar
    99    81    80    2
   100    53    54    1
   101   132   131    1
   102    54    57   am
   103    74    72   ar
   104    73    71   ar
   105    96    91   am
   106    57    58    1
   107   120   118    1
   108    72    71   ar
   109    91    92    2
   110    91    90    1
   111    71    70    1
   112   119   118    1
   113    95    93    1
   114    58    61    1
   115    58    59    1
   116   118   115    1
   117    69    68    2
   118    90    93    1
   119    90    89    1
   120    70    67    1
   121    59    62   am
   122    59    60    2
   123    62    63    1
   124    93    94    1
   125    68    67    1
   126   115   114    1
   127   115   116    1
   128    67    66    1
   129   117   116    2
   130    63    64    1
   131    64    65    2
