@<TRIPOS>MOLECULE
tmp/3fucA01.pdb
 95 88 0 0 0
SMALL
GASTEIGER

@<TRIPOS>ATOM
      1  N         32.1290  -15.1730   28.0840 N.3   106  ALA106     -0.1231
      2  CA        32.8680  -14.3970   29.0990 C.3   106  ALA106      0.1694
      3  C         31.9940  -13.2610   29.6110 C.2   106  ALA106      0.2592
      4  O         31.1540  -12.7190   28.8640 O.2   106  ALA106     -0.2718
      5  CB        34.1310  -13.8000   28.5210 C.3   106  ALA106      0.0304
      6  N         32.1970  -12.8620   30.8590 N.am  107  ALA107     -0.1966
      7  CA        31.3950  -11.8040   31.4420 C.3   107  ALA107      0.1728
      8  C         32.1940  -11.0580   32.4800 C.2   107  ALA107      0.2616
      9  O         33.1130  -11.6130   33.1070 O.2   107  ALA107     -0.2715
     10  CB        30.1460  -12.3710   32.0840 C.3   107  ALA107      0.0334
     11  N         31.8480   -9.7990   32.6780 N.am  108  GLY108     -0.1955
     12  CA        32.3850   -9.0420   33.8100 C.3   108  GLY108      0.1869
     13  C         31.6230   -9.3490   35.0880 C.2   108  GLY108      0.2309
     14  O         30.3890   -9.4990   35.0910 O.2   108  GLY108     -0.2863
     15  N         23.9770   -6.7130   27.4220 N.3   185  LEU185     -0.1245
     16  CA        23.8460   -5.4210   26.7470 C.3   185  LEU185      0.1561
     17  C         24.6090   -5.4730   25.4340 C.2   185  LEU185      0.2260
     18  O         25.3340   -6.4160   25.1670 O.2   185  LEU185     -0.2867
     19  CB        24.2310   -4.2530   27.6200 C.3   185  LEU185      0.0270
     20  CG        25.3790   -4.4700   28.5720 C.3   185  LEU185      0.0019
     21  CD1       26.6730   -4.7690   27.8320 C.3   185  LEU185      0.0001
     22  CD2       25.5340   -3.2340   29.4660 C.3   185  LEU185      0.0001
     23  N         33.1790   -1.3980   27.2860 N.3   190  PHE190     -0.1227
     24  CA        32.9190   -1.7780   28.6550 C.3   190  PHE190      0.1736
     25  C         32.2320   -0.6290   29.4180 C.2   190  PHE190      0.2595
     26  O         32.2780    0.5280   28.9970 O.2   190  PHE190     -0.2718
     27  CB        34.2260   -2.1860   29.3540 C.3   190  PHE190      0.0547
     28  CG        34.9250   -3.3790   28.7450 C.ar  190  PHE190     -0.0202
     29  CD1       34.3070   -4.6240   28.6940 C.ar  190  PHE190     -0.0042
     30  CD2       36.2510   -3.2820   28.3270 C.ar  190  PHE190     -0.0042
     31  CE1       34.9730   -5.7630   28.1710 C.ar  190  PHE190     -0.0003
     32  CE2       36.9420   -4.4250   27.8160 C.ar  190  PHE190     -0.0003
     33  CZ        36.2840   -5.6570   27.7390 C.ar  190  PHE190     -0.0000
     34  N         31.6150   -0.9670   30.5450 N.am  191  GLU191     -0.1979
     35  CA        30.7120   -0.0690   31.2570 C.3   191  GLU191      0.1602
     36  C         31.3980    1.0370   32.0360 C.2   191  GLU191      0.2287
     37  O         32.5200    0.8710   32.5640 O.2   191  GLU191     -0.2864
     38  CB        29.8990   -0.8530   32.2710 C.3   191  GLU191      0.0415
     39  CG        28.8900   -1.8100   31.6540 C.3   191  GLU191      0.1163
     40  CD        29.5140   -3.0250   30.9870 C.2   191  GLU191      0.3649
     41  OE1       30.5880   -3.5150   31.4510 O.co2 191  GLU191     -0.2457
     42  OE2       28.9350   -3.4750   29.9850 O.co2 191  GLU191     -0.2457
     43  N         27.8590   -9.3720   33.6290 N.3   207  VAL207     -0.1231
     44  CA        27.4290   -8.5880   32.4620 C.3   207  VAL207      0.1692
     45  C         28.2230   -9.0170   31.2330 C.2   207  VAL207      0.2593
     46  O         29.4440   -9.2000   31.2980 O.2   207  VAL207     -0.2718
     47  CB        27.5460   -7.0650   32.7050 C.3   207  VAL207      0.0266
     48  CG1       28.9510   -6.6230   33.1290 C.3   207  VAL207      0.0020
     49  CG2       27.1330   -6.3150   31.4290 C.3   207  VAL207      0.0020
     50  N         27.5210   -9.1890   30.1200 N.am  208  GLY208     -0.1942
     51  CA        28.1920   -9.5940   28.9010 C.3   208  GLY208      0.2014
     52  C         27.4460   -9.1270   27.6640 C.2   208  GLY208      0.2638
     53  O         26.4940   -8.3300   27.7630 O.2   208  GLY208     -0.2714
     54  N         27.8680   -9.6390   26.5020 N.am  209  MET209     -0.1976
     55  CA        27.4270   -9.1180   25.1990 C.3   209  MET209      0.1605
     56  C         26.8660  -10.1920   24.2750 C.2   209  MET209      0.2287
     57  O         26.7780   -9.9730   23.0660 O.2   209  MET209     -0.2864
     58  CB        28.6180   -8.4240   24.5140 C.3   209  MET209      0.0413
     59  CG        29.2490   -7.3270   25.3370 C.3   209  MET209      0.0598
     60  SD        30.6790   -6.5920   24.4980 S.3   209  MET209     -0.1393
     61  CE        31.3150   -5.5350   25.7880 C.3   209  MET209      0.0692
     62  N         35.8180  -12.8870   33.7570 N.3   232  THR232     -0.1203
     63  CA        37.1530  -12.5700   33.2740 C.3   232  THR232      0.1994
     64  C         37.7480  -11.3250   33.9310 C.2   232  THR232      0.2617
     65  O         38.9280  -11.0210   33.7160 O.2   232  THR232     -0.2717
     66  CB        37.1460  -12.3800   31.7760 C.3   232  THR232      0.1784
     67  OG1       36.0770  -11.4630   31.4270 O.3   232  THR232     -0.2211
     68  CG2       36.7620  -13.6800   31.0970 C.3   232  THR232      0.0376
     69  N         36.9360  -10.5970   34.7020 N.am  233  ASN233     -0.1974
     70  CA        37.3250   -9.3280   35.3070 C.3   233  ASN233      0.1688
     71  C         36.2630   -8.9220   36.2980 C.2   233  ASN233      0.2292
     72  O         35.0580   -9.2420   36.1140 O.2   233  ASN233     -0.2864
     73  CB        37.5390   -8.2210   34.2600 C.3   233  ASN233      0.1181
     74  CG        36.3200   -7.9880   33.3770 C.2   233  ASN233      0.2629
     75  OD1       35.9040   -8.8750   32.6340 O.2   233  ASN233     -0.2716
     76  ND2       35.7480   -6.7920   33.4700 N.am  233  ASN233     -0.0877
     77  N         34.2500   -5.9040   37.4600 N.3   235  VAL235     -0.1245
     78  CA        33.9800   -4.5850   36.8680 C.3   235  VAL235      0.1561
     79  C         34.3170   -3.4630   37.8590 C.2   235  VAL235      0.2260
     80  O         34.2300   -3.6500   39.0740 O.2   235  VAL235     -0.2867
     81  CB        32.4990   -4.4510   36.4100 C.3   235  VAL235      0.0252
     82  CG1       32.0800   -5.6000   35.4670 C.3   235  VAL235      0.0019
     83  CG2       31.5810   -4.3410   37.6000 C.3   235  VAL235      0.0019
     84  N         38.9250   -2.1170   32.7840 N.3   245  ALA245     -0.1245
     85  CA        38.6360   -3.3290   32.0050 C.3   245  ALA245      0.1562
     86  C         39.3670   -3.2920   30.6730 C.2   245  ALA245      0.2260
     87  O         39.4800   -2.2420   30.0320 O.2   245  ALA245     -0.2867
     88  CB        37.1300   -3.4920   31.7800 C.3   245  ALA245      0.0290
     89  N         40.9780  -10.1380   29.7270 N.3   250  VAL250     -0.1245
     90  CA        39.9030  -11.0590   29.3910 C.3   250  VAL250      0.1561
     91  C         40.4580  -12.2900   28.6620 C.2   250  VAL250      0.2260
     92  O         40.1170  -13.4290   29.0020 O.2   250  VAL250     -0.2867
     93  CB        38.7800  -10.3480   28.5610 C.3   250  VAL250      0.0252
     94  CG1       37.7170  -11.3480   28.0460 C.3   250  VAL250      0.0019
     95  CG2       38.1450   -9.2420   29.4010 C.3   250  VAL250      0.0019
@<TRIPOS>BOND
     1    57    56    2
     2    56    55    1
     3    60    59    1
     4    60    61    1
     5    58    55    1
     6    58    59    1
     7    18    17    2
     8    55    54    1
     9    17    16    1
    10    54    52   am
    11    16    15    1
    12    16    19    1
    13    23    24    1
    14    19    20    1
    15    52    53    2
    16    52    51    1
    17    33    32   ar
    18    33    31   ar
    19    32    30   ar
    20    21    20    1
    21    94    93    1
    22     1     2    1
    23    31    29   ar
    24    30    28   ar
    25     5     2    1
    26    93    90    1
    27    93    95    1
    28    20    22    1
    29    24    27    1
    30    24    25    1
    31    91    92    2
    32    91    90    1
    33    29    28   ar
    34    28    27    1
    35     4     3    2
    36    51    50    1
    37    26    25    2
    38     2     3    1
    39    90    89    1
    40    25    34   am
    41     3     6   am
    42    42    40   ar
    43    87    86    2
    44    50    45   am
    45    34    35    1
    46    86    85    1
    47     6     7    1
    48    40    41   ar
    49    40    39    1
    50    68    66    1
    51    45    46    2
    52    45    44    1
    53    35    36    1
    54    35    38    1
    55    67    66    1
    56    49    47    1
    57     7    10    1
    58     7     8    1
    59    39    38    1
    60    66    63    1
    61    88    85    1
    62    85    84    1
    63    36    37    2
    64    44    47    1
    65    44    43    1
    66     8    11   am
    67     8     9    2
    68    75    74    2
    69    11    12    1
    70    47    48    1
    71    63    62    1
    72    63    64    1
    73    74    76   am
    74    74    73    1
    75    65    64    2
    76    12    13    1
    77    64    69   am
    78    73    70    1
    79    69    70    1
    80    13    14    2
    81    70    71    1
    82    82    81    1
    83    72    71    2
    84    81    78    1
    85    81    83    1
    86    78    77    1
    87    78    79    1
    88    79    80    2
