@<TRIPOS>MOLECULE
tmp/3fudA00.pdb
 89 82 0 0 0
SMALL
GASTEIGER

@<TRIPOS>ATOM
      1  N         -2.5670   17.9040  -11.8550 N.3    21  ARG21      -0.1231
      2  CA        -3.4970   17.9570  -12.9630 C.3    21  ARG21       0.1694
      3  C         -2.7700   17.3010  -14.1250 C.2    21  ARG21       0.2592
      4  O         -1.7910   17.8400  -14.6350 O.2    21  ARG21      -0.2718
      5  CB        -3.8580   19.4110  -13.2690 C.3    21  ARG21       0.0321
      6  CG        -4.9610   19.5970  -14.3120 C.3    21  ARG21       0.0489
      7  CD        -5.3580   21.0860  -14.4660 C.3    21  ARG21       0.2205
      8  NE        -6.5040   21.2060  -15.3750 N.pl3  21  ARG21      -0.0865
      9  CZ        -6.4290   21.2780  -16.7150 C.cat  21  ARG21       0.5346
     10  NH1       -5.2530   21.2580  -17.3440 N.pl3  21  ARG21       0.1354
     11  NH2       -7.5410   21.3730  -17.4390 N.pl3  21  ARG21       0.1354
     12  N         -3.2100   16.0990  -14.4910 N.am   22  CYS22      -0.1956
     13  CA        -2.5590   15.3440  -15.5770 C.3    22  CYS22       0.1843
     14  C         -3.4960   14.5320  -16.4980 C.2    22  CYS22       0.2626
     15  O         -4.6480   14.2390  -16.1650 O.2    22  CYS22      -0.2714
     16  CB        -1.4640   14.4350  -15.0170 C.3    22  CYS22       0.0997
     17  SG        -2.1150   13.1530  -13.9460 S.3    22  CYS22      -0.0797
     18  N         -2.9650   14.1790  -17.6640 N.am   23  SER23      -0.1950
     19  CA        -3.6600   13.3520  -18.6180 C.3    23  SER23       0.1924
     20  C         -2.8490   12.0770  -18.8180 C.2    23  SER23       0.2314
     21  O         -1.6090   12.1200  -18.8840 O.2    23  SER23      -0.2863
     22  CB        -3.8410   14.0970  -19.9420 C.3    23  SER23       0.2116
     23  OG        -4.7970   13.4330  -20.7490 O.3    23  SER23      -0.2180
     24  N          1.1940   13.5270  -18.6690 N.3    32  THR32      -0.1203
     25  CA         1.5000   14.9230  -18.9900 C.3    32  THR32       0.1997
     26  C          0.6370   15.8600  -18.1570 C.2    32  THR32       0.2657
     27  O         -0.5720   15.6390  -18.0200 O.2    32  THR32      -0.2713
     28  CB         1.2550   15.2260  -20.4880 C.3    32  THR32       0.1784
     29  OG1        2.0400   14.3300  -21.2690 O.3    32  THR32      -0.2211
     30  CG2        1.6820   16.6610  -20.8480 C.3    32  THR32       0.0376
     31  N          1.2550   16.9080  -17.6070 N.am   33  GLY33      -0.1718
     32  CA         0.5000   17.9190  -16.8950 C.2    33  GLY33       0.1480
     33  C          1.3040   18.7790  -15.9530 C.2    33  GLY33       0.2821
     34  O          2.4820   19.0810  -16.2030 O.2    33  GLY33      -0.2669
     35  N          0.6500   19.1950  -14.8740 N.am   34  THR34      -0.1916
     36  CA         1.2480   20.1220  -13.9270 C.3    34  THR34       0.1900
     37  C          1.1520   19.5640  -12.5340 C.2    34  THR34       0.2313
     38  O          0.1500   18.9600  -12.1710 O.2    34  THR34      -0.2863
     39  CB         0.5520   21.5150  -13.9500 C.3    34  THR34       0.1794
     40  OG1       -0.8570   21.3390  -13.7920 O.3    34  THR34      -0.2208
     41  CG2        0.8140   22.2300  -15.2820 C.3    34  THR34       0.0378
     42  N         -6.6530   15.9990  -10.5790 N.3   156  GLU156     -0.1245
     43  CA        -7.6160   15.8970  -11.6580 C.3   156  GLU156      0.1567
     44  C         -6.9050   15.1070  -12.7130 C.2   156  GLU156      0.2260
     45  O         -5.8090   15.5000  -13.1530 O.2   156  GLU156     -0.2867
     46  CB        -7.9460   17.2640  -12.2540 C.3   156  GLU156      0.0388
     47  CG        -8.4030   18.3460  -11.3190 C.3   156  GLU156      0.1160
     48  CD        -8.4280   19.7230  -12.0260 C.2   156  GLU156      0.3649
     49  OE1       -9.1420   19.8490  -13.0510 O.co2 156  GLU156     -0.2457
     50  OE2       -7.7280   20.6660  -11.5750 O.co2 156  GLU156     -0.2457
     51  N         -7.2460   13.1910  -16.4270 N.3   158  SER158     -0.1217
     52  CA        -7.9360   12.9480  -17.6990 C.3   158  SER158      0.1889
     53  C         -7.4660   11.6430  -18.3410 C.2   158  SER158      0.2288
     54  O         -6.2530   11.4520  -18.5890 O.2   158  SER158     -0.2866
     55  CB        -7.7760   14.1340  -18.6810 C.3   158  SER158      0.2089
     56  OG        -8.2130   13.7900  -20.0040 O.3   158  SER158     -0.2183
     57  N        -14.1880   15.4040  -20.1500 N.3   177  ASP177     -0.1239
     58  CA       -13.1610   16.4220  -20.3470 C.3   177  ASP177      0.1674
     59  C        -13.7130   17.4660  -21.3420 C.2   177  ASP177      0.2266
     60  O        -14.1670   17.0970  -22.4300 O.2   177  ASP177     -0.2867
     61  CB       -11.8440   15.7820  -20.8470 C.3   177  ASP177      0.1410
     62  CG       -10.6630   16.7650  -20.8840 C.2   177  ASP177      0.3668
     63  OD1      -10.8740   18.0010  -20.9800 O.co2 177  ASP177     -0.2456
     64  OD2       -9.4980   16.2990  -20.8400 O.co2 177  ASP177     -0.2456
     65  N        -11.9270   19.6890  -22.8980 N.3   179  GLU179     -0.1231
     66  CA       -10.9080   19.8420  -23.9410 C.3   179  GLU179      0.1699
     67  C        -10.7510   18.6240  -24.8720 C.2   179  GLU179      0.2592
     68  O         -9.9160   18.6580  -25.8020 O.2   179  GLU179     -0.2718
     69  CB        -9.5500   20.1420  -23.2960 C.3   179  GLU179      0.0402
     70  CG        -9.5040   21.3900  -22.4050 C.3   179  GLU179      0.1161
     71  CD        -8.2840   21.3740  -21.4890 C.2   179  GLU179      0.3649
     72  OE1       -8.3740   21.8990  -20.3500 O.co2 179  GLU179     -0.2457
     73  OE2       -7.2320   20.8220  -21.9030 O.co2 179  GLU179     -0.2457
     74  N        -11.5250   17.5580  -24.6200 N.am  180  ASP180     -0.1974
     75  CA       -11.4520   16.3180  -25.4130 C.3   180  ASP180      0.1709
     76  C        -12.5570   15.3420  -24.9860 C.2   180  ASP180      0.2293
     77  O        -12.3690   14.5660  -24.0440 O.2   180  ASP180     -0.2864
     78  CB       -10.0570   15.6950  -25.2460 C.3   180  ASP180      0.1436
     79  CG        -9.8250   14.4760  -26.1250 C.2   180  ASP180      0.3671
     80  OD1      -10.8000   13.9150  -26.6630 O.co2 180  ASP180     -0.2456
     81  OD2       -8.6400   14.0690  -26.2520 O.co2 180  ASP180     -0.2456
     82  N        -12.5130   13.2850  -16.8840 N.3   185  ILE185     -0.1245
     83  CA       -11.6480   13.7580  -15.8010 C.3   185  ILE185      0.1561
     84  C        -12.2170   13.2470  -14.4730 C.2   185  ILE185      0.2260
     85  O        -13.3710   13.5230  -14.1330 O.2   185  ILE185     -0.2867
     86  CB       -11.4820   15.3050  -15.7790 C.3   185  ILE185      0.0252
     87  CG1      -10.7990   15.8010  -17.0650 C.3   185  ILE185      0.0019
     88  CG2      -10.7050   15.7690  -14.5180 C.3   185  ILE185      0.0019
     89  CD1      -11.0540   17.2590  -17.3520 C.3   185  ILE185      0.0001
@<TRIPOS>BOND
     1    80    79   ar
     2    81    79   ar
     3    79    78    1
     4    68    67    2
     5    75    78    1
     6    75    76    1
     7    75    74    1
     8    76    77    2
     9    67    74   am
    10    67    66    1
    11    66    69    1
    12    66    65    1
    13    69    70    1
    14    60    59    2
    15    70    71    1
    16    73    71   ar
    17    71    72   ar
    18    59    58    1
    19    29    28    1
    20    63    62   ar
    21    62    61    1
    22    62    64   ar
    23    30    28    1
    24    61    58    1
    25    23    22    1
    26    28    25    1
    27    58    57    1
    28    56    55    1
    29    22    19    1
    30    25    24    1
    31    25    26    1
    32    21    20    2
    33    20    19    1
    34    55    52    1
    35    19    18    1
    36    54    53    2
    37    53    52    1
    38    26    27    2
    39    26    31    1
    40    52    51    1
    41    18    14   am
    42    31    32    2
    43    11     9    1
    44    89    87    1
    45    10     9    1
    46    87    86    1
    47    32    33    1
    48    82    83    1
    49     9     8    2
    50    14    15    2
    51    14    13    1
    52    34    33    2
    53    33    35   am
    54    83    86    1
    55    83    84    1
    56    86    88    1
    57    13    16    1
    58    13    12    1
    59     8     7    1
    60    41    39    1
    61    16    17    1
    62    35    36    1
    63     4     3    2
    64    12     3   am
    65    84    85    2
    66     7     6    1
    67     6     5    1
    68     3     2    1
    69    39    36    1
    70    39    40    1
    71    36    37    1
    72     5     2    1
    73    45    44    2
    74    49    48   ar
    75     2     1    1
    76    44    43    1
    77    37    38    2
    78    46    43    1
    79    46    47    1
    80    48    50   ar
    81    48    47    1
    82    43    42    1
