@<TRIPOS>MOLECULE
tmp/3fueA00.pdb
 132 131 0 0 0
SMALL
GASTEIGER

@<TRIPOS>ATOM
      1  N         29.6790    2.5250    3.0000 N.3   134  ALA134     -0.1245
      2  CA        29.2710    3.5130    2.0000 C.3   134  ALA134      0.1562
      3  C         29.0710    4.9050    2.5960 C.2   134  ALA134      0.2260
      4  O         29.6460    5.8930    2.1030 O.2   134  ALA134     -0.2867
      5  CB        27.9860    3.0310    1.2770 C.3   134  ALA134      0.0290
      6  N         24.8310    5.9500   -4.7000 N.3   308  TRP308     -0.1227
      7  CA        24.9920    4.5510   -4.4440 C.3   308  TRP308      0.1737
      8  C         24.0270    3.7280   -5.2540 C.2   308  TRP308      0.2595
      9  O         24.2090    2.5090   -5.3880 O.2   308  TRP308     -0.2718
     10  CB        24.9300    4.2250   -2.9590 C.3   308  TRP308      0.0564
     11  CG        26.0130    4.9020   -2.2470 C.ar  308  TRP308      0.0003
     12  CD1       25.9020    5.9690   -1.3910 C.ar  308  TRP308      0.0946
     13  CD2       27.4060    4.6080   -2.3640 C.ar  308  TRP308      0.0152
     14  NE1       27.1610    6.3360   -0.9470 N.ar  308  TRP308     -0.2442
     15  CE2       28.0980    5.5230   -1.5410 C.ar  308  TRP308      0.0810
     16  CE3       28.1340    3.6440   -3.0680 C.ar  308  TRP308      0.0012
     17  CZ2       29.5010    5.5080   -1.4080 C.ar  308  TRP308      0.0191
     18  CZ3       29.5250    3.6260   -2.9360 C.ar  308  TRP308      0.0001
     19  CH2       30.1930    4.5610   -2.1150 C.ar  308  TRP308      0.0015
     20  N         23.0190    4.3840   -5.8290 N.am  309  ASP309     -0.1974
     21  CA        22.1500    3.6790   -6.7530 C.3   309  ASP309      0.1709
     22  C         22.9820    3.1010   -7.9180 C.2   309  ASP309      0.2293
     23  O         22.5370    2.1320   -8.5490 O.2   309  ASP309     -0.2864
     24  CB        21.0840    4.6190   -7.3350 C.3   309  ASP309      0.1436
     25  CG        20.0420    5.0600   -6.3290 C.2   309  ASP309      0.3671
     26  OD1       20.0790    4.6960   -5.1420 O.co2 309  ASP309     -0.2456
     27  OD2       19.1320    5.7780   -6.7370 O.co2 309  ASP309     -0.2456
     28  N         26.3230    2.0640   -7.8090 N.3   311  PHE311     -0.1227
     29  CA        27.3470    1.2060   -7.2700 C.3   311  PHE311      0.1736
     30  C         27.8690    0.1740   -8.2430 C.2   311  PHE311      0.2595
     31  O         29.0510   -0.1830   -8.1860 O.2   311  PHE311     -0.2718
     32  CB        26.7580    0.4990   -6.0710 C.3   311  PHE311      0.0547
     33  CG        27.7810   -0.1770   -5.2020 C.ar  311  PHE311     -0.0202
     34  CD1       28.9480    0.4690   -4.8530 C.ar  311  PHE311     -0.0042
     35  CD2       27.5540   -1.4530   -4.7040 C.ar  311  PHE311     -0.0042
     36  CE1       29.8770   -0.1710   -4.0380 C.ar  311  PHE311     -0.0003
     37  CE2       28.4920   -2.1080   -3.8960 C.ar  311  PHE311     -0.0003
     38  CZ        29.6420   -1.4630   -3.5620 C.ar  311  PHE311     -0.0000
     39  N         27.0280   -0.3430   -9.1330 N.am  312  TRP312     -0.1976
     40  CA        27.5110   -1.3930  -10.0390 C.3   312  TRP312      0.1640
     41  C         28.6270   -0.8630  -10.9630 C.2   312  TRP312      0.2290
     42  O         29.5120   -1.6090  -11.3810 O.2   312  TRP312     -0.2864
     43  CB        26.3610   -1.9990  -10.8620 C.3   312  TRP312      0.0576
     44  CG        25.9820   -1.1420  -12.0670 C.ar  312  TRP312      0.0006
     45  CD1       25.0780   -0.1150  -12.0930 C.ar  312  TRP312      0.0946
     46  CD2       26.5340   -1.2260  -13.3870 C.ar  312  TRP312      0.0152
     47  NE1       25.0220    0.4330  -13.3540 N.ar  312  TRP312     -0.2442
     48  CE2       25.9010   -0.2380  -14.1670 C.ar  312  TRP312      0.0810
     49  CE3       27.4920   -2.0550  -13.9920 C.ar  312  TRP312      0.0012
     50  CZ2       26.1900   -0.0600  -15.5110 C.ar  312  TRP312      0.0191
     51  CZ3       27.7850   -1.8700  -15.3280 C.ar  312  TRP312      0.0001
     52  CH2       27.1390   -0.8870  -16.0740 C.ar  312  TRP312      0.0015
     53  N         16.4100   -5.6810   -4.7410 N.3   359  PHE359     -0.1241
     54  CA        17.8550   -5.6220   -4.5930 C.3   359  PHE359      0.1605
     55  C         18.5900   -6.4990   -5.6180 C.2   359  PHE359      0.2264
     56  O         19.8300   -6.5460   -5.6240 O.2   359  PHE359     -0.2867
     57  CB        18.3070   -6.0140   -3.1760 C.3   359  PHE359      0.0534
     58  CG        17.6980   -5.1630   -2.0600 C.ar  359  PHE359     -0.0203
     59  CD1       17.0330   -3.9600   -2.3510 C.ar  359  PHE359     -0.0042
     60  CD2       17.8370   -5.5680   -0.6990 C.ar  359  PHE359     -0.0042
     61  CE1       16.4780   -3.1800   -1.3000 C.ar  359  PHE359     -0.0003
     62  CE2       17.2830   -4.8120    0.3590 C.ar  359  PHE359     -0.0003
     63  CZ        16.6020   -3.6100    0.0540 C.ar  359  PHE359     -0.0000
     64  N         18.0670   -5.9970   -8.7270 N.3   361  LYS361     -0.1231
     65  CA        18.1670   -5.0810   -9.8500 C.3   361  LYS361      0.1693
     66  C         19.6160   -4.6080   -9.9340 C.2   361  LYS361      0.2591
     67  O         20.2660   -4.4260   -8.9000 O.2   361  LYS361     -0.2718
     68  CB        17.2250   -3.8810   -9.6400 C.3   361  LYS361      0.0285
     69  CG        15.7190   -4.2240   -9.8440 C.3   361  LYS361      0.0035
     70  CD        14.8200   -3.0150   -9.7160 C.3   361  LYS361      0.0206
     71  CE        13.3590   -3.3530  -10.0810 C.3   361  LYS361      0.1093
     72  NZ        12.5320   -2.1980   -9.6570 N.3   361  LYS361     -0.1314
     73  N         20.1230   -4.4180  -11.1520 N.am  362  LEU362     -0.1980
     74  CA        21.4510   -3.8320  -11.3190 C.3   362  LEU362      0.1596
     75  C         21.4910   -2.4260  -10.7550 C.2   362  LEU362      0.2287
     76  O         22.3010   -2.1400   -9.9030 O.2   362  LEU362     -0.2864
     77  CB        21.9240   -3.8640  -12.7760 C.3   362  LEU362      0.0297
     78  CG        23.4240   -3.5680  -12.9840 C.3   362  LEU362      0.0022
     79  CD1       24.3420   -4.4830  -12.1620 C.3   362  LEU362      0.0001
     80  CD2       23.8040   -3.6600  -14.4830 C.3   362  LEU362      0.0001
     81  N         19.5030    0.2580   -8.5150 N.3   364  VAL364     -0.1245
     82  CA        18.6080    0.0840   -7.4160 C.3   364  VAL364      0.1561
     83  C         18.1580    1.4660   -6.9780 C.2   364  VAL364      0.2260
     84  O         18.8950    2.4040   -7.1570 O.2   364  VAL364     -0.2867
     85  CB        19.4260   -0.5630   -6.2950 C.3   364  VAL364      0.0252
     86  CG1       18.7250   -0.4620   -4.9470 C.3   364  VAL364      0.0019
     87  CG2       19.7280   -2.0180   -6.6540 C.3   364  VAL364      0.0019
     88  N         17.8320    3.4020   -3.8010 N.3   366  LEU366     -0.1245
     89  CA        18.1520    3.2750   -2.3700 C.3   366  LEU366      0.1561
     90  C         17.4810    4.2570   -1.3940 C.2   366  LEU366      0.2260
     91  O         17.9530    4.3560   -0.2420 O.2   366  LEU366     -0.2867
     92  CB        19.6600    3.2960   -2.1310 C.3   366  LEU366      0.0270
     93  CG        20.4220    2.0410   -2.5340 C.3   366  LEU366      0.0019
     94  CD1       21.8840    2.3070   -2.6560 C.3   366  LEU366      0.0001
     95  CD2       20.1830    0.9720   -1.5440 C.3   366  LEU366      0.0001
     96  N         22.1890    1.1530    2.7520 N.3   371  PRO371     -0.2116
     97  CA        23.0660    0.4470    1.8040 C.3   371  PRO371      0.1372
     98  C         23.7470   -0.7840    2.4270 C.2   371  PRO371      0.2244
     99  O         24.0480   -1.7200    1.7070 O.2   371  PRO371     -0.2868
    100  CB        24.1350    1.4980    1.4450 C.3   371  PRO371      0.0268
    101  CG        23.5280    2.8400    1.8760 C.3   371  PRO371      0.0207
    102  CD        22.5620    2.5680    2.9620 C.3   371  PRO371      0.0892
    103  N         21.2590   -3.5320    2.0100 N.3   374  ALA374     -0.1231
    104  CA        21.0770   -3.9300    0.6090 C.3   374  ALA374      0.1694
    105  C         22.3040   -4.6210    0.0050 C.2   374  ALA374      0.2592
    106  O         22.1940   -5.3500   -0.9430 O.2   374  ALA374     -0.2718
    107  CB        20.6300   -2.7580   -0.2290 C.3   374  ALA374      0.0304
    108  N         23.4730   -4.3930    0.5790 N.am  375  TYR375     -0.1962
    109  CA        24.7070   -4.9280    0.0470 C.3   375  TYR375      0.1771
    110  C         24.6650   -6.4370   -0.2750 C.2   375  TYR375      0.2620
    111  O         24.3910   -7.2650    0.5820 O.2   375  TYR375     -0.2715
    112  CB        25.8540   -4.6220    1.0250 C.3   375  TYR375      0.0574
    113  CG        27.2090   -5.1080    0.5400 C.ar  375  TYR375     -0.0198
    114  CD1       27.9610   -4.3520   -0.3910 C.ar  375  TYR375     -0.0009
    115  CD2       27.7550   -6.3390    1.0070 C.ar  375  TYR375     -0.0009
    116  CE1       29.1680   -4.8120   -0.8710 C.ar  375  TYR375      0.0417
    117  CE2       28.9880   -6.7880    0.5610 C.ar  375  TYR375      0.0417
    118  CZ        29.6880   -6.0170   -0.4080 C.ar  375  TYR375      0.1957
    119  OH        30.9240   -6.4230   -0.8880 O.3   375  TYR375     -0.2866
    120  N         24.9910   -6.7950   -1.5210 N.am  376  SER376     -0.1950
    121  CA        25.1920   -8.1990   -1.9050 C.3   376  SER376      0.1924
    122  C         26.1050   -8.2710   -3.1180 C.2   376  SER376      0.2314
    123  O         26.6510   -7.2760   -3.5760 O.2   376  SER376     -0.2863
    124  CB        23.8710   -8.8160   -2.3180 C.3   376  SER376      0.2116
    125  OG        23.3610   -8.1730   -3.4980 O.3   376  SER376     -0.2180
    126  N         25.3770   -6.4070   -7.4780 N.3   379  PRO379     -0.2116
    127  CA        26.0280   -5.3620   -8.2620 C.3   379  PRO379      0.1372
    128  C         27.4200   -5.7580   -8.7860 C.2   379  PRO379      0.2244
    129  O         27.9000   -5.2170   -9.8030 O.2   379  PRO379     -0.2868
    130  CB        26.1280   -4.1980   -7.2530 C.3   379  PRO379      0.0268
    131  CG        26.0380   -4.8580   -5.9350 C.3   379  PRO379      0.0207
    132  CD        25.0420   -5.9490   -6.1280 C.3   379  PRO379      0.0892
@<TRIPOS>BOND
     1    52    50   ar
     2    52    51   ar
     3    50    48   ar
     4    51    49   ar
     5    80    78    1
     6    48    46   ar
     7    48    47   ar
     8    49    46   ar
     9    46    44   ar
    10    47    45   ar
    11    78    77    1
    12    78    79    1
    13    77    74    1
    14    45    44   ar
    15    44    43    1
    16    42    41    2
    17    74    73    1
    18    74    75    1
    19    73    66   am
    20    41    40    1
    21    43    40    1
    22    75    76    2
    23    71    70    1
    24    71    72    1
    25    40    39    1
    26    66    65    1
    27    66    67    2
    28    65    68    1
    29    65    64    1
    30    69    70    1
    31    69    68    1
    32   129   128    2
    33    39    30   am
    34   128   127    1
    35    23    22    2
    36    81    82    1
    37   127   126    1
    38   127   130    1
    39    30    31    2
    40    30    29    1
    41    22    21    1
    42    28    29    1
    43   126   132    1
    44    82    83    1
    45    82    85    1
    46    24    21    1
    47    24    25    1
    48    29    32    1
    49   130   131    1
    50    84    83    2
    51    21    20    1
    52    27    25   ar
    53    87    85    1
    54    25    26   ar
    55    85    86    1
    56   132   131    1
    57    32    33    1
    58    20     8   am
    59    56    55    2
    60    55    54    1
    61     9     8    2
    62     8     7    1
    63    33    34   ar
    64    33    35   ar
    65    34    36   ar
    66    53    54    1
    67    35    37   ar
    68     6     7    1
    69    54    57    1
    70     7    10    1
    71    36    38   ar
    72    37    38   ar
    73    88    89    1
    74   123   122    2
    75   125   124    1
    76    57    58    1
    77   122   121    1
    78    16    18   ar
    79    16    13   ar
    80    10    11    1
    81    18    19   ar
    82    94    93    1
    83    93    92    1
    84    93    95    1
    85    89    92    1
    86    89    90    1
    87    13    11   ar
    88    13    15   ar
    89    59    58   ar
    90    59    61   ar
    91   124   121    1
    92    11    12   ar
    93    19    17   ar
    94    58    60   ar
    95   121   120    1
    96    15    17   ar
    97    15    14   ar
    98   120   110   am
    99    90    91    2
   100    12    14   ar
   101    61    63   ar
   102   106   105    2
   103   119   118    1
   104   116   118   ar
   105   116   114   ar
   106    60    62   ar
   107   118   117   ar
   108   114   113   ar
   109   110   109    1
   110   110   111    2
   111   107   104    1
   112   105   108   am
   113   105   104    1
   114   109   108    1
   115   109   112    1
   116    63    62   ar
   117   113   115   ar
   118   113   112    1
   119   117   115   ar
   120   104   103    1
   121     5     2    1
   122   100    97    1
   123   100   101    1
   124    99    98    2
   125    97    98    1
   126    97    96    1
   127   101   102    1
   128     2     3    1
   129     2     1    1
   130     4     3    2
   131    96   102    1
