@<TRIPOS>MOLECULE
tmp/3fufA00.pdb
 132 131 0 0 0
SMALL
GASTEIGER

@<TRIPOS>ATOM
      1  N          9.3770    2.5190   -3.0390 N.3   134  ALA134     -0.1245
      2  CA         9.7480    3.5660   -2.0500 C.3   134  ALA134      0.1562
      3  C          9.9870    4.9390   -2.6600 C.2   134  ALA134      0.2260
      4  O          9.4730    5.9340   -2.1560 O.2   134  ALA134     -0.2867
      5  CB        11.0270    3.1710   -1.2430 C.3   134  ALA134      0.0290
      6  N         14.4000    5.9850    4.7280 N.3   308  TRP308     -0.1227
      7  CA        14.1360    4.5770    4.4790 C.3   308  TRP308      0.1737
      8  C         15.0790    3.6940    5.2730 C.2   308  TRP308      0.2595
      9  O         14.9140    2.4520    5.3370 O.2   308  TRP308     -0.2718
     10  CB        14.1360    4.2400    2.9900 C.3   308  TRP308      0.0564
     11  CG        13.0410    4.9120    2.2720 C.ar  308  TRP308      0.0003
     12  CD1       13.1500    5.9560    1.3840 C.ar  308  TRP308      0.0946
     13  CD2       11.6440    4.6140    2.3810 C.ar  308  TRP308      0.0152
     14  NE1       11.8950    6.3010    0.9200 N.ar  308  TRP308     -0.2442
     15  CE2       10.9580    5.5070    1.5240 C.ar  308  TRP308      0.0810
     16  CE3       10.9120    3.6870    3.1210 C.ar  308  TRP308      0.0012
     17  CZ2        9.5670    5.5060    1.3980 C.ar  308  TRP308      0.0191
     18  CZ3        9.5370    3.6690    2.9850 C.ar  308  TRP308      0.0001
     19  CH2        8.8690    4.5840    2.1420 C.ar  308  TRP308      0.0015
     20  N         16.0530    4.3370    5.9060 N.am  309  ASP309     -0.1974
     21  CA        16.9210    3.6350    6.8050 C.3   309  ASP309      0.1709
     22  C         16.0780    3.0120    7.9260 C.2   309  ASP309      0.2293
     23  O         16.4690    2.0050    8.5160 O.2   309  ASP309     -0.2864
     24  CB        17.9230    4.6130    7.3830 C.3   309  ASP309      0.1436
     25  CG        19.0190    4.9880    6.4050 C.2   309  ASP309      0.3671
     26  OD1       18.9790    4.6010    5.2200 O.co2 309  ASP309     -0.2456
     27  OD2       19.9690    5.6630    6.8310 O.co2 309  ASP309     -0.2456
     28  N         12.7460    1.9590    7.7700 N.3   311  PHE311     -0.1227
     29  CA        11.7120    1.1750    7.1890 C.3   311  PHE311      0.1736
     30  C         11.1760    0.1790    8.1910 C.2   311  PHE311      0.2595
     31  O          9.9950   -0.1360    8.1610 O.2   311  PHE311     -0.2718
     32  CB        12.3030    0.4720    5.9900 C.3   311  PHE311      0.0547
     33  CG        11.3070   -0.2530    5.1420 C.ar  311  PHE311     -0.0202
     34  CD1       10.1280    0.3500    4.7380 C.ar  311  PHE311     -0.0042
     35  CD2       11.5630   -1.5460    4.6990 C.ar  311  PHE311     -0.0042
     36  CE1        9.2020   -0.3500    3.9310 C.ar  311  PHE311     -0.0003
     37  CE2       10.6290   -2.2430    3.9040 C.ar  311  PHE311     -0.0003
     38  CZ         9.4490   -1.6250    3.5370 C.ar  311  PHE311     -0.0000
     39  N         12.0180   -0.3270    9.0820 N.am  312  TRP312     -0.1976
     40  CA        11.5780   -1.3400   10.0390 C.3   312  TRP312      0.1640
     41  C         10.4450   -0.8470   10.9540 C.2   312  TRP312      0.2290
     42  O          9.5500   -1.6070   11.3610 O.2   312  TRP312     -0.2864
     43  CB        12.7650   -1.8970   10.8620 C.3   312  TRP312      0.0576
     44  CG        13.1040   -1.1010   12.1290 C.ar  312  TRP312      0.0006
     45  CD1       14.0330   -0.0870   12.2550 C.ar  312  TRP312      0.0946
     46  CD2       12.5360   -1.2790   13.4310 C.ar  312  TRP312      0.0152
     47  NE1       14.0780    0.3590   13.5500 N.ar  312  TRP312     -0.2442
     48  CE2       13.1700   -0.3510   14.2950 C.ar  312  TRP312      0.0810
     49  CE3       11.5600   -2.1430   13.9590 C.ar  312  TRP312      0.0012
     50  CZ2       12.8510   -0.2530   15.6520 C.ar  312  TRP312      0.0191
     51  CZ3       11.2530   -2.0520   15.3180 C.ar  312  TRP312      0.0001
     52  CH2       11.9040   -1.1130   16.1500 C.ar  312  TRP312      0.0015
     53  N         22.7450   -5.6310    4.6930 N.3   359  PHE359     -0.1241
     54  CA        21.3080   -5.6280    4.5810 C.3   359  PHE359      0.1605
     55  C         20.6260   -6.5200    5.6060 C.2   359  PHE359      0.2264
     56  O         19.3980   -6.6460    5.5700 O.2   359  PHE359     -0.2867
     57  CB        20.8610   -6.0590    3.1900 C.3   359  PHE359      0.0534
     58  CG        21.3770   -5.1890    2.0910 C.ar  359  PHE359     -0.0203
     59  CD1       21.8720   -3.9060    2.3790 C.ar  359  PHE359     -0.0042
     60  CD2       21.3390   -5.6420    0.7500 C.ar  359  PHE359     -0.0042
     61  CE1       22.3520   -3.1040    1.3530 C.ar  359  PHE359     -0.0003
     62  CE2       21.8210   -4.8560   -0.2840 C.ar  359  PHE359     -0.0003
     63  CZ        22.3310   -3.5820    0.0110 C.ar  359  PHE359     -0.0000
     64  N         21.1100   -6.0410    8.8650 N.3   361  LYS361     -0.1231
     65  CA        20.9310   -5.0740    9.9420 C.3   361  LYS361      0.1693
     66  C         19.4760   -4.6040    9.9630 C.2   361  LYS361      0.2591
     67  O         18.8520   -4.4650    8.8920 O.2   361  LYS361     -0.2718
     68  CB        21.8770   -3.8740    9.7100 C.3   361  LYS361      0.0285
     69  CG        23.3660   -4.2620    9.8010 C.3   361  LYS361      0.0035
     70  CD        24.3050   -3.0940    9.5810 C.3   361  LYS361      0.0206
     71  CE        25.7500   -3.4870    9.9210 C.3   361  LYS361      0.1093
     72  NZ        26.6620   -2.4550    9.3770 N.3   361  LYS361     -0.1314
     73  N         18.9390   -4.3840   11.1690 N.am  362  LEU362     -0.1980
     74  CA        17.5780   -3.8830   11.3260 C.3   362  LEU362      0.1596
     75  C         17.5040   -2.4840   10.7790 C.2   362  LEU362      0.2287
     76  O         16.6310   -2.1850    9.9820 O.2   362  LEU362     -0.2864
     77  CB        17.1220   -3.9100   12.7820 C.3   362  LEU362      0.0297
     78  CG        15.6320   -3.6100   13.0600 C.3   362  LEU362      0.0022
     79  CD1       14.6790   -4.4160   12.1940 C.3   362  LEU362      0.0001
     80  CD2       15.3130   -3.8690   14.5260 C.3   362  LEU362      0.0001
     81  N         19.5170    0.1070    8.4690 N.3   364  VAL364     -0.1245
     82  CA        20.4280   -0.0290    7.3610 C.3   364  VAL364      0.1561
     83  C         20.8800    1.3570    6.9430 C.2   364  VAL364      0.2260
     84  O         20.1250    2.2950    7.0720 O.2   364  VAL364     -0.2867
     85  CB        19.6380   -0.6720    6.2270 C.3   364  VAL364      0.0252
     86  CG1       20.2860   -0.4550    4.8370 C.3   364  VAL364      0.0019
     87  CG2       19.4050   -2.1720    6.5410 C.3   364  VAL364      0.0019
     88  N         21.2900    3.4050    3.8270 N.3   366  LEU366     -0.1245
     89  CA        20.9910    3.3710    2.3710 C.3   366  LEU366      0.1561
     90  C         21.7620    4.2910    1.3850 C.2   366  LEU366      0.2260
     91  O         21.4220    4.3090    0.2010 O.2   366  LEU366     -0.2867
     92  CB        19.4790    3.5380    2.1300 C.3   366  LEU366      0.0270
     93  CG        18.7280    2.2890    2.5680 C.3   366  LEU366      0.0019
     94  CD1       17.2750    2.5740    2.7110 C.3   366  LEU366      0.0001
     95  CD2       18.9780    1.1720    1.5880 C.3   366  LEU366      0.0001
     96  N         17.0010    1.1800   -2.8190 N.3   371  PRO371     -0.2116
     97  CA        16.0970    0.4270   -1.9020 C.3   371  PRO371      0.1372
     98  C         15.3910   -0.7760   -2.5360 C.2   371  PRO371      0.2244
     99  O         15.0650   -1.7220   -1.8110 O.2   371  PRO371     -0.2868
    100  CB        15.0270    1.4590   -1.4860 C.3   371  PRO371      0.0268
    101  CG        15.5870    2.7960   -1.8930 C.3   371  PRO371      0.0207
    102  CD        16.5840    2.5790   -3.0090 C.3   371  PRO371      0.0892
    103  N         17.7860   -3.5410   -2.0340 N.3   374  ALA374     -0.1231
    104  CA        17.9930   -3.9570   -0.6310 C.3   374  ALA374      0.1694
    105  C         16.7820   -4.6420    0.0320 C.2   374  ALA374      0.2592
    106  O         16.9170   -5.4140    0.9590 O.2   374  ALA374     -0.2718
    107  CB        18.4640   -2.7760    0.1910 C.3   374  ALA374      0.0304
    108  N         15.5920   -4.3450   -0.4490 N.am  375  TYR375     -0.1962
    109  CA        14.3850   -5.0440   -0.0070 C.3   375  TYR375      0.1771
    110  C         14.4870   -6.5620    0.2830 C.2   375  TYR375      0.2620
    111  O         14.8460   -7.3410   -0.5640 O.2   375  TYR375     -0.2715
    112  CB        13.2590   -4.8040   -1.0420 C.3   375  TYR375      0.0574
    113  CG        11.8800   -5.2270   -0.5550 C.ar  375  TYR375     -0.0198
    114  CD1       11.2010   -4.4750    0.4020 C.ar  375  TYR375     -0.0009
    115  CD2       11.2590   -6.3890   -1.0540 C.ar  375  TYR375     -0.0009
    116  CE1        9.9860   -4.8660    0.8730 C.ar  375  TYR375      0.0417
    117  CE2       10.0300   -6.7650   -0.6060 C.ar  375  TYR375      0.0417
    118  CZ         9.4020   -5.9920    0.3720 C.ar  375  TYR375      0.1957
    119  OH         8.1740   -6.3350    0.8650 O.3   375  TYR375     -0.2866
    120  N         14.1250   -6.9660    1.4940 N.am  376  SER376     -0.1950
    121  CA        13.9820   -8.3710    1.8780 C.3   376  SER376      0.1924
    122  C         13.0320   -8.4300    3.0760 C.2   376  SER376      0.2314
    123  O         12.4690   -7.4090    3.5140 O.2   376  SER376     -0.2863
    124  CB        15.3200   -8.8650    2.3800 C.3   376  SER376      0.2116
    125  OG        15.6870   -8.1720    3.5970 O.3   376  SER376     -0.2180
    126  N         13.6970   -6.4240    7.5010 N.3   379  PRO379     -0.2116
    127  CA        13.0140   -5.4260    8.3300 C.3   379  PRO379      0.1372
    128  C         11.6240   -5.8500    8.8940 C.2   379  PRO379      0.2244
    129  O         11.1830   -5.3610    9.9710 O.2   379  PRO379     -0.2868
    130  CB        12.8740   -4.2300    7.3790 C.3   379  PRO379      0.0268
    131  CG        13.1210   -4.7580    6.0460 C.3   379  PRO379      0.0207
    132  CD        13.9900   -5.9440    6.1560 C.3   379  PRO379      0.0892
@<TRIPOS>BOND
     1     1     2    1
     2   102    96    1
     3   102   101    1
     4    96    97    1
     5     3     4    2
     6     3     2    1
     7    98    97    1
     8    98    99    2
     9     2     5    1
    10   103   104    1
    11    97   100    1
    12   101   100    1
    13   115   117   ar
    14   115   113   ar
    15   112   113    1
    16   112   109    1
    17   104   105    1
    18   104   107    1
    19   117   118   ar
    20   111   110    2
    21   113   114   ar
    22   108   109    1
    23   108   105   am
    24    62    63   ar
    25    62    60   ar
    26   109   110    1
    27    63    61   ar
    28   105   106    2
    29    91    90    2
    30   110   120   am
    31   118   119    1
    32   118   116   ar
    33   114   116   ar
    34    60    58   ar
    35    14    12   ar
    36    14    15   ar
    37    61    59   ar
    38    12    11   ar
    39    90    89    1
    40    17    15   ar
    41    17    19   ar
    42   120   121    1
    43    15    13   ar
    44    95    93    1
    45   121   124    1
    46   121   122    1
    47    58    59   ar
    48    58    57    1
    49    92    89    1
    50    92    93    1
    51    19    18   ar
    52    11    13   ar
    53    11    10    1
    54    89    88    1
    55   124   125    1
    56    13    16   ar
    57    93    94    1
    58    18    16   ar
    59    10     7    1
    60   122   123    2
    61    57    54    1
    62    38    37   ar
    63    38    36   ar
    64    37    35   ar
    65    36    34   ar
    66     7     6    1
    67     7     8    1
    68    54    53    1
    69    54    55    1
    70    35    33   ar
    71    34    33   ar
    72    86    85    1
    73    33    32    1
    74    26    25   ar
    75     8     9    2
    76     8    20   am
    77    56    55    2
    78    20    21    1
    79    32    29    1
    80   131   132    1
    81   131   130    1
    82   132   126    1
    83    85    87    1
    84    85    82    1
    85    25    27   ar
    86    25    24    1
    87    21    24    1
    88    21    22    1
    89    83    84    2
    90    83    82    1
    91    29    28    1
    92    29    30    1
    93    82    81    1
    94   130   127    1
    95   126   127    1
    96    22    23    2
    97    31    30    2
    98    30    39   am
    99   127   128    1
   100    64    65    1
   101    67    66    2
   102   128   129    2
   103    39    40    1
   104    72    71    1
   105    70    69    1
   106    70    71    1
   107    68    69    1
   108    68    65    1
   109    65    66    1
   110    66    73   am
   111    76    75    2
   112    40    43    1
   113    40    41    1
   114    75    74    1
   115    43    44    1
   116    41    42    2
   117    73    74    1
   118    74    77    1
   119    44    45   ar
   120    44    46   ar
   121    79    78    1
   122    45    47   ar
   123    77    78    1
   124    78    80    1
   125    46    49   ar
   126    46    48   ar
   127    47    48   ar
   128    49    51   ar
   129    48    50   ar
   130    51    52   ar
   131    50    52   ar
