@<TRIPOS>MOLECULE
tmp/3fugA01.pdb
 203 192 0 0 0
SMALL
GASTEIGER

@<TRIPOS>ATOM
      1  N        -26.3980    0.5250    7.5070 N.3    18  VAL18      -0.1245
      2  CA       -25.8310    0.0110    6.2630 C.3    18  VAL18       0.1561
      3  C        -26.5560    0.5600    5.0250 C.2    18  VAL18       0.2260
      4  O        -25.9160    0.9240    4.0460 O.2    18  VAL18      -0.2867
      5  CB       -25.8190   -1.5360    6.2490 C.3    18  VAL18       0.0252
      6  CG1      -25.4440   -2.0660    4.8720 C.3    18  VAL18       0.0019
      7  CG2      -24.8630   -2.0700    7.3080 C.3    18  VAL18       0.0019
      8  N        -25.4180    4.0820    4.6360 N.3    21  ILE21      -0.1231
      9  CA       -24.0270    4.1220    4.1670 C.3    21  ILE21       0.1692
     10  C        -23.9590    3.8550    2.6580 C.2    21  ILE21       0.2592
     11  O        -23.2010    4.5180    1.9440 O.2    21  ILE21      -0.2718
     12  CB       -23.0990    3.1360    4.9630 C.3    21  ILE21       0.0266
     13  CG1      -23.0310    3.5280    6.4440 C.3    21  ILE21       0.0019
     14  CG2      -21.6840    3.1620    4.3990 C.3    21  ILE21       0.0020
     15  CD1      -22.3730    2.4770    7.3760 C.3    21  ILE21       0.0001
     16  N        -24.7600    2.8960    2.1830 N.am   22  CYS22      -0.1970
     17  CA       -24.8220    2.5630    0.7620 C.3    22  CYS22       0.1712
     18  C        -25.4050    3.6980   -0.0690 C.2    22  CYS22       0.2296
     19  O        -24.9830    3.9150   -1.1990 O.2    22  CYS22      -0.2864
     20  CB       -25.6200    1.2780    0.5230 C.3    22  CYS22       0.0983
     21  SG       -24.7360   -0.2030    1.0510 S.3    22  CYS22      -0.0798
     22  N        -25.1360    6.8800    0.6760 N.3    24  ALA24      -0.1231
     23  CA       -24.0420    7.8480    0.6600 C.3    24  ALA24       0.1694
     24  C        -22.9810    7.5370   -0.4020 C.2    24  ALA24       0.2591
     25  O        -22.5490    8.4430   -1.1270 O.2    24  ALA24      -0.2718
     26  CB       -23.3990    7.9740    2.0510 C.3    24  ALA24       0.0304
     27  N        -22.5650    6.2710   -0.4850 N.am   25  ALA25      -0.1980
     28  CA       -21.5960    5.8270   -1.4980 C.3    25  ALA25       0.1597
     29  C        -22.0890    6.0950   -2.9310 C.2    25  ALA25       0.2287
     30  O        -21.3450    6.6300   -3.7500 O.2    25  ALA25      -0.2864
     31  CB       -21.2760    4.3450   -1.3190 C.3    25  ALA25       0.0319
     32  N        -21.9730    9.7680   -3.6930 N.3    28  GLN28      -0.1245
     33  CA       -20.6070   10.2450   -3.8780 C.3    28  GLN28       0.1566
     34  C        -19.9470    9.7640   -5.1620 C.2    28  GLN28       0.2260
     35  O        -19.0000   10.3750   -5.6280 O.2    28  GLN28      -0.2867
     36  CB       -19.7380    9.9640   -2.6350 C.3    28  GLN28       0.0367
     37  CG       -20.1340   10.8310   -1.4520 C.3    28  GLN28       0.0905
     38  CD       -20.2410   12.3140   -1.8290 C.2    28  GLN28       0.2608
     39  OE1      -21.3300   12.8230   -2.0870 O.2    28  GLN28      -0.2717
     40  NE2      -19.1050   12.9900   -1.8940 N.am   28  GLN28      -0.0878
     41  N        -12.5760    3.6880   -7.3700 N.3    58  TRP58      -0.1227
     42  CA       -13.6810    4.4180   -6.7250 C.3    58  TRP58       0.1737
     43  C        -13.8150    4.1600   -5.2210 C.2    58  TRP58       0.2595
     44  O        -14.0560    5.0800   -4.4560 O.2    58  TRP58      -0.2718
     45  CB       -15.0200    4.1410   -7.4180 C.3    58  TRP58       0.0564
     46  CG       -15.5220    2.7350   -7.2680 C.ar   58  TRP58       0.0003
     47  CD1      -15.2900    1.6890   -8.1110 C.ar   58  TRP58       0.0946
     48  CD2      -16.3630    2.2310   -6.2240 C.ar   58  TRP58       0.0152
     49  NE1      -15.9240    0.5600   -7.6500 N.ar   58  TRP58      -0.2442
     50  CE2      -16.5850    0.8640   -6.4900 C.ar   58  TRP58       0.0810
     51  CE3      -16.9250    2.7960   -5.0690 C.ar   58  TRP58       0.0012
     52  CZ2      -17.3630    0.0470   -5.6530 C.ar   58  TRP58       0.0191
     53  CZ3      -17.6980    1.9750   -4.2270 C.ar   58  TRP58       0.0001
     54  CH2      -17.9060    0.6210   -4.5320 C.ar   58  TRP58       0.0015
     55  N        -13.6490    2.9130   -4.7990 N.am   59  ASN59      -0.1974
     56  CA       -13.9020    2.5760   -3.3970 C.3    59  ASN59       0.1688
     57  C        -12.8350    3.1660   -2.4860 C.2    59  ASN59       0.2292
     58  O        -13.1450    3.8920   -1.5420 O.2    59  ASN59      -0.2864
     59  CB       -14.0500    1.0580   -3.2080 C.3    59  ASN59       0.1181
     60  CG       -14.8780    0.7100   -1.9910 C.2    59  ASN59       0.2629
     61  OD1      -15.7060    1.5090   -1.5360 O.2    59  ASN59      -0.2716
     62  ND2      -14.6500   -0.4710   -1.4430 N.am   59  ASN59      -0.0877
     63  N        -13.2630    6.9740   -2.3900 N.3    62  LEU62      -0.1231
     64  CA       -14.3770    7.4620   -1.5810 C.3    62  LEU62       0.1693
     65  C        -14.1580    7.1940   -0.0890 C.2    62  LEU62       0.2591
     66  O        -14.5300    8.0110    0.7380 O.2    62  LEU62      -0.2718
     67  CB       -15.7080    6.8590   -2.0560 C.3    62  LEU62       0.0284
     68  CG       -16.2390    7.2630   -3.4400 C.3    62  LEU62       0.0019
     69  CD1      -17.6300    6.6890   -3.6430 C.3    62  LEU62       0.0001
     70  CD2      -16.2760    8.7600   -3.6040 C.3    62  LEU62       0.0001
     71  N        -13.5690    6.0450    0.2370 N.am   63  ILE63      -0.1980
     72  CA       -13.1580    5.7290    1.6220 C.3    63  ILE63       0.1595
     73  C        -12.1310    6.7470    2.1680 C.2    63  ILE63       0.2287
     74  O        -12.2700    7.2220    3.2910 O.2    63  ILE63      -0.2864
     75  CB       -12.6540    4.2540    1.7560 C.3    63  ILE63       0.0276
     76  CG1      -13.8210    3.2630    1.5770 C.3    63  ILE63       0.0022
     77  CG2      -11.9920    4.0110    3.1220 C.3    63  ILE63       0.0022
     78  CD1      -13.3800    1.8320    1.1570 C.3    63  ILE63       0.0001
     79  N        -11.8490    9.8120    1.2770 N.3    65  SER65      -0.1202
     80  CA       -12.6030   11.0530    1.4660 C.3    65  SER65       0.2020
     81  C        -13.4590   11.0790    2.7220 C.2    65  SER65       0.2618
     82  O        -13.3770   12.0480    3.4810 O.2    65  SER65      -0.2717
     83  CB       -13.4840   11.3580    0.2570 C.3    65  SER65       0.2103
     84  OG       -12.6820   11.6640   -0.8600 O.3    65  SER65      -0.2182
     85  N        -14.3030   10.0630    2.9370 N.am   66  PHE66      -0.1975
     86  CA       -15.1220   10.0850    4.1650 C.3    66  PHE66       0.1639
     87  C        -14.2800    9.9140    5.4350 C.2    66  PHE66       0.2290
     88  O        -14.6410   10.4430    6.4940 O.2    66  PHE66      -0.2864
     89  CB       -16.3750    9.1660    4.1100 C.3    66  PHE66       0.0560
     90  CG       -16.1090    7.6820    4.3150 C.ar   66  PHE66      -0.0200
     91  CD1      -15.6960    7.1790    5.5500 C.ar   66  PHE66      -0.0042
     92  CD2      -16.3670    6.7780    3.2880 C.ar   66  PHE66      -0.0042
     93  CE1      -15.4780    5.8080    5.7420 C.ar   66  PHE66      -0.0003
     94  CE2      -16.1790    5.3990    3.4750 C.ar   66  PHE66      -0.0003
     95  CZ       -15.7130    4.9150    4.7010 C.ar   66  PHE66      -0.0000
     96  N        -12.8350   13.3210    6.1630 N.3    69  ARG69      -0.1245
     97  CA       -13.9610   14.1190    6.6360 C.3    69  ARG69       0.1563
     98  C        -14.2610   13.8720    8.1240 C.2    69  ARG69       0.2260
     99  O        -14.6920   14.7900    8.8440 O.2    69  ARG69      -0.2867
    100  CB       -15.2070   13.8280    5.7910 C.3    69  ARG69       0.0307
    101  CG       -16.3880   14.7480    6.0780 C.3    69  ARG69       0.0489
    102  CD       -17.6310   14.3360    5.3090 C.3    69  ARG69       0.2205
    103  NE       -17.3960   14.3260    3.8720 N.pl3  69  ARG69      -0.0865
    104  CZ       -17.6160   13.2840    3.0790 C.cat  69  ARG69       0.5346
    105  NH1      -18.1060   12.1520    3.5790 N.pl3  69  ARG69       0.1354
    106  NH2      -17.3640   13.3840    1.7800 N.pl3  69  ARG69       0.1354
    107  N        -18.1770    7.9950   11.7420 N.3    77  ILE77      -0.1245
    108  CA       -17.9170    8.5520   10.4180 C.3    77  ILE77       0.1561
    109  C        -19.0060    9.5370   10.0170 C.2    77  ILE77       0.2260
    110  O        -20.1570    9.4140   10.4440 O.2    77  ILE77      -0.2867
    111  CB       -17.7300    7.4720    9.3080 C.3    77  ILE77       0.0252
    112  CG1      -19.0340    6.7230    9.0300 C.3    77  ILE77       0.0019
    113  CG2      -16.5690    6.5280    9.6620 C.3    77  ILE77       0.0019
    114  CD1      -18.9850    5.9090    7.7440 C.3    77  ILE77       0.0001
    115  N        -21.0010   10.8970    6.9190 N.3    79  LEU79      -0.1231
    116  CA       -21.3650   10.6270    5.5390 C.3    79  LEU79       0.1693
    117  C        -21.6280   11.9310    4.7860 C.2    79  LEU79       0.2591
    118  O        -21.9140   12.9760    5.3980 O.2    79  LEU79      -0.2718
    119  CB       -22.5700    9.6830    5.4580 C.3    79  LEU79       0.0284
    120  CG       -22.4650    8.3360    6.1830 C.3    79  LEU79       0.0019
    121  CD1      -23.7950    7.5920    6.1230 C.3    79  LEU79       0.0001
    122  CD2      -21.3430    7.4500    5.6010 C.3    79  LEU79       0.0001
    123  N        -21.5260   11.8670    3.4610 N.am   80  ALA80      -0.1980
    124  CA       -21.7430   13.0430    2.6120 C.3    80  ALA80       0.1597
    125  C        -23.1860   13.5310    2.6460 C.2    80  ALA80       0.2287
    126  O        -23.4670   14.6750    2.2770 O.2    80  ALA80      -0.2864
    127  CB       -21.3520   12.7380    1.2030 C.3    80  ALA80       0.0319
    128  N        -21.5200   -4.9530   11.3070 N.3    95  VAL95      -0.1245
    129  CA       -20.3550   -4.5370   10.5220 C.3    95  VAL95       0.1561
    130  C        -19.2690   -3.8530   11.3620 C.2    95  VAL95       0.2260
    131  O        -18.5140   -3.0130   10.8550 O.2    95  VAL95      -0.2867
    132  CB       -20.7690   -3.6790    9.2910 C.3    95  VAL95       0.0252
    133  CG1      -21.5600   -4.5510    8.2760 C.3    95  VAL95       0.0019
    134  CG2      -21.5750   -2.4280    9.7150 C.3    95  VAL95       0.0019
    135  N        -14.9770   -4.2200   10.4500 N.3    98  ILE98      -0.1231
    136  CA       -14.5020   -3.3650    9.3410 C.3    98  ILE98       0.1692
    137  C        -14.6260   -1.8590    9.6620 C.2    98  ILE98       0.2592
    138  O        -13.7490   -1.0830    9.2970 O.2    98  ILE98      -0.2718
    139  CB       -15.1130   -3.7680    7.9380 C.3    98  ILE98       0.0266
    140  CG1      -14.4960   -2.9430    6.7830 C.3    98  ILE98       0.0019
    141  CG2      -16.6390   -3.6580    7.9310 C.3    98  ILE98       0.0020
    142  CD1      -12.9610   -3.0960    6.6310 C.3    98  ILE98       0.0001
    143  N        -15.6840   -1.4620   10.3720 N.am   99  PHE99      -0.1976
    144  CA       -15.8410   -0.0700   10.8310 C.3    99  PHE99       0.1639
    145  C        -14.6580    0.3530   11.7260 C.2    99  PHE99       0.2290
    146  O        -14.0720    1.4230   11.5360 O.2    99  PHE99      -0.2864
    147  CB       -17.1890    0.1120   11.5590 C.3    99  PHE99       0.0560
    148  CG       -17.6290    1.5630   11.7100 C.ar   99  PHE99      -0.0200
    149  CD1      -18.4320    2.1700   10.7450 C.ar   99  PHE99      -0.0042
    150  CD2      -17.2520    2.3100   12.8180 C.ar   99  PHE99      -0.0042
    151  CE1      -18.8550    3.5070   10.8870 C.ar   99  PHE99      -0.0003
    152  CE2      -17.6630    3.6460   12.9620 C.ar   99  PHE99      -0.0003
    153  CZ       -18.4670    4.2400   11.9950 C.ar   99  PHE99      -0.0000
    154  N        -11.4710    1.0930    9.7480 N.3   102  VAL102     -0.1245
    155  CA       -11.5510    2.4620    9.2340 C.3   102  VAL102      0.1561
    156  C        -11.1670    3.4880   10.3180 C.2   102  VAL102      0.2260
    157  O        -10.3160    4.3440   10.0850 O.2   102  VAL102     -0.2867
    158  CB       -12.9410    2.7710    8.6320 C.3   102  VAL102      0.0252
    159  CG1      -13.0820    4.2560    8.3270 C.3   102  VAL102      0.0019
    160  CG2      -13.1470    1.9600    7.3470 C.3   102  VAL102      0.0019
    161  N        -14.3870   -3.8760    2.3820 N.3   185  CYS185     -0.1235
    162  CA       -15.6640   -3.1920    2.1830 C.3   185  CYS185      0.1677
    163  C        -16.3970   -3.7620    0.9670 C.2   185  CYS185      0.2270
    164  O        -17.5950   -4.0470    1.0320 O.2   185  CYS185     -0.2867
    165  CB       -15.4600   -1.6910    2.0370 C.3   185  CYS185      0.0956
    166  SG       -15.0450   -0.8500    3.6070 S.3   185  CYS185     -0.0801
    167  N        -18.1260   -7.0230    1.6100 N.3   188  HIS188     -0.1226
    168  CA       -19.4030   -6.7970    2.3060 C.3   188  HIS188      0.1752
    169  C        -20.4740   -6.3600    1.3010 C.2   188  HIS188      0.2595
    170  O        -21.5960   -6.8670    1.3200 O.2   188  HIS188     -0.2718
    171  CB       -19.2590   -5.7290    3.3970 C.3   188  HIS188      0.0759
    172  CG       -18.5780   -6.2100    4.6420 C.ar  188  HIS188      0.0818
    173  ND1      -19.2720   -6.7120    5.7210 N.ar  188  HIS188     -0.2268
    174  CD2      -17.2680   -6.2610    4.9810 C.ar  188  HIS188      0.1154
    175  CE1      -18.4210   -7.0550    6.6710 C.ar  188  HIS188      0.1986
    176  NE2      -17.1960   -6.7910    6.2480 N.ar  188  HIS188     -0.2212
    177  N        -20.1100   -5.4280    0.4210 N.am  189  LEU189     -0.1980
    178  CA       -21.0240   -4.9150   -0.6020 C.3   189  LEU189      0.1596
    179  C        -21.5680   -6.0340   -1.4830 C.2   189  LEU189      0.2287
    180  O        -22.7720   -6.0990   -1.7150 O.2   189  LEU189     -0.2864
    181  CB       -20.3630   -3.8280   -1.4570 C.3   189  LEU189      0.0297
    182  CG       -20.0920   -2.5040   -0.7470 C.3   189  LEU189      0.0022
    183  CD1      -19.4980   -1.4800   -1.6950 C.3   189  LEU189      0.0001
    184  CD2      -21.3770   -1.9700   -0.1240 C.3   189  LEU189      0.0001
    185  N        -24.0910   -7.9370    0.5780 N.3   192  PHE192     -0.1241
    186  CA       -25.3570   -7.1970    0.6910 C.3   192  PHE192      0.1605
    187  C        -26.1870   -7.3940   -0.5770 C.2   192  PHE192      0.2264
    188  O        -27.3980   -7.6170   -0.5130 O.2   192  PHE192     -0.2867
    189  CB       -25.1540   -5.6870    0.9280 C.3   192  PHE192      0.0534
    190  CG       -24.3500   -5.3360    2.1640 C.ar  192  PHE192     -0.0203
    191  CD1      -23.6050   -4.1590    2.1920 C.ar  192  PHE192     -0.0042
    192  CD2      -24.3340   -6.1630    3.2890 C.ar  192  PHE192     -0.0042
    193  CE1      -22.8540   -3.8030    3.3130 C.ar  192  PHE192     -0.0003
    194  CE2      -23.5780   -5.8220    4.4220 C.ar  192  PHE192     -0.0003
    195  CZ       -22.8390   -4.6340    4.4330 C.ar  192  PHE192     -0.0000
    196  N        -23.8570    2.6840   -7.6450 N.3   204  LEU204     -0.1245
    197  CA       -23.1960    1.6970   -6.7980 C.3   204  LEU204      0.1561
    198  C        -23.3750    0.2840   -7.3730 C.2   204  LEU204      0.2260
    199  O        -22.4090   -0.4710   -7.4800 O.2   204  LEU204     -0.2867
    200  CB       -23.6900    1.7880   -5.3470 C.3   204  LEU204      0.0270
    201  CG       -22.9790    0.9050   -4.3060 C.3   204  LEU204      0.0019
    202  CD1      -21.4580    1.1760   -4.2790 C.3   204  LEU204      0.0001
    203  CD2      -23.5850    1.0440   -2.9090 C.3   204  LEU204      0.0001
@<TRIPOS>BOND
     1    47    49   ar
     2    47    46   ar
     3    49    50   ar
     4   196   197    1
     5   199   198    2
     6    45    46    1
     7    45    42    1
     8   198   197    1
     9    41    42    1
    10    46    48   ar
    11   197   200    1
    12    42    43    1
    13    50    48   ar
    14    50    52   ar
    15    48    51   ar
    16    52    54   ar
    17    35    34    2
    18   200   201    1
    19    43    55   am
    20    43    44    2
    21    34    33    1
    22    51    53   ar
    23    55    56    1
    24    54    53   ar
    25   201   202    1
    26   201   203    1
    27    33    32    1
    28    33    36    1
    29    30    29    2
    30    69    68    1
    31    70    68    1
    32    68    67    1
    33    56    59    1
    34    56    57    1
    35    59    60    1
    36    29    28    1
    37    36    37    1
    38    57    58    2
    39    63    64    1
    40    39    38    2
    41    67    64    1
    42    60    61    2
    43    60    62   am
    44    40    38   am
    45    38    37    1
    46   180   179    2
    47   183   182    1
    48    64    65    1
    49    28    31    1
    50    28    27    1
    51   179   178    1
    52   181   182    1
    53   181   178    1
    54    19    18    2
    55    25    24    2
    56    84    83    1
    57   182   184    1
    58   178   177    1
    59   187   188    2
    60   187   186    1
    61    27    24   am
    62    24    23    1
    63    65    71   am
    64    65    66    2
    65    18    17    1
    66    71    72    1
    67    83    80    1
    68   177   169   am
    69    20    17    1
    70    20    21    1
    71   185   186    1
    72    23    22    1
    73    23    26    1
    74   186   189    1
    75    17    16    1
    76   189   190    1
    77   163   164    2
    78   163   162    1
    79    78    76    1
    80   127   124    1
    81    79    80    1
    82   169   170    2
    83   169   168    1
    84    80    81    1
    85    76    75    1
    86   167   168    1
    87    72    75    1
    88    72    73    1
    89    75    77    1
    90   106   104    1
    91    11    10    2
    92   165   162    1
    93   165   166    1
    94   190   191   ar
    95   190   192   ar
    96    73    74    2
    97    16    10   am
    98   162   161    1
    99   191   193   ar
   100   126   125    2
   101   168   171    1
   102   124   125    1
   103   124   123    1
   104    10     9    1
   105    81    85   am
   106    81    82    2
   107    85    86    1
   108   104   105    1
   109   104   103    2
   110    92    94   ar
   111    92    90   ar
   112   192   194   ar
   113   193   195   ar
   114   171   172    1
   115   123   117   am
   116    94    95   ar
   117   103   102    1
   118     4     3    2
   119    89    86    1
   120    89    90    1
   121    86    87    1
   122     9     8    1
   123     9    12    1
   124    90    91   ar
   125    14    12    1
   126   194   195   ar
   127   172   174   ar
   128   172   173   ar
   129    95    93   ar
   130   117   118    2
   131   117   116    1
   132     6     5    1
   133    12    13    1
   134   174   176   ar
   135     3     2    1
   136   102   101    1
   137    87    88    2
   138   119   116    1
   139   119   120    1
   140   116   115    1
   141    91    93   ar
   142   122   120    1
   143   173   175   ar
   144   100   101    1
   145   100    97    1
   146   121   120    1
   147    96    97    1
   148   176   175   ar
   149     5     2    1
   150     5     7    1
   151     2     1    1
   152    13    15    1
   153   142   140    1
   154    97    98    1
   155   140   139    1
   156   160   158    1
   157   114   112    1
   158   141   139    1
   159   139   136    1
   160    98    99    2
   161   133   132    1
   162   159   158    1
   163   158   155    1
   164   112   111    1
   165   155   154    1
   166   155   156    1
   167   132   134    1
   168   132   129    1
   169   138   137    2
   170   111   113    1
   171   111   108    1
   172   136   137    1
   173   136   135    1
   174   137   143   am
   175   109   108    1
   176   109   110    2
   177   157   156    2
   178   143   144    1
   179   108   107    1
   180   129   128    1
   181   129   130    1
   182   149   151   ar
   183   149   148   ar
   184   144   147    1
   185   144   145    1
   186   131   130    2
   187   151   153   ar
   188   146   145    2
   189   147   148    1
   190   148   150   ar
   191   153   152   ar
   192   150   152   ar
