@<TRIPOS>MOLECULE
tmp/3fuhA00.pdb
 105 103 0 0 0
SMALL
GASTEIGER

@<TRIPOS>ATOM
      1  N         32.7830   90.7680    3.7640 N.3   133  GLN133     -0.1231
      2  CA        31.8700   90.4040    2.6820 C.3   133  GLN133      0.1698
      3  C         30.7190   89.5750    3.2790 C.2   133  GLN133      0.2592
      4  O         30.9820   88.6860    4.0750 O.2   133  GLN133     -0.2718
      5  CB        32.5790   89.6180    1.5780 C.3   133  GLN133      0.0381
      6  CG        31.7450   89.5850    0.2710 C.3   133  GLN133      0.0905
      7  CD        32.3850   88.7960   -0.8600 C.2   133  GLN133      0.2608
      8  OE1       33.3700   88.0910   -0.6650 O.2   133  GLN133     -0.2717
      9  NE2       31.8130   88.9160   -2.0590 N.am  133  GLN133     -0.0878
     10  N         29.4600   89.8510    2.9230 N.am  134  ALA134     -0.1980
     11  CA        29.0330   90.9170    1.9920 C.3   134  ALA134      0.1597
     12  C         28.8640   92.2880    2.6490 C.2   134  ALA134      0.2287
     13  O         29.4590   93.2830    2.1900 O.2   134  ALA134     -0.2864
     14  CB        27.7030   90.4950    1.3040 C.3   134  ALA134      0.0319
     15  N         35.0520   80.7120    5.7580 N.3   264  TYR264     -0.1241
     16  CA        35.1640   80.4000    4.3140 C.3   264  TYR264      0.1605
     17  C         36.4220   79.6010    3.9770 C.2   264  TYR264      0.2264
     18  O         37.3410   79.5190    4.7950 O.2   264  TYR264     -0.2867
     19  CB        35.1300   81.6950    3.4970 C.3   264  TYR264      0.0534
     20  CG        33.8030   82.3800    3.6550 C.ar  264  TYR264     -0.0201
     21  CD1       32.6980   81.9660    2.9040 C.ar  264  TYR264     -0.0009
     22  CD2       33.6370   83.4010    4.5980 C.ar  264  TYR264     -0.0009
     23  CE1       31.4450   82.5530    3.0820 C.ar  264  TYR264      0.0417
     24  CE2       32.4020   84.0150    4.7760 C.ar  264  TYR264      0.0417
     25  CZ        31.3070   83.5720    4.0180 C.ar  264  TYR264      0.1957
     26  OH        30.0840   84.1660    4.1630 O.3   264  TYR264     -0.2866
     27  N         24.7000   93.2950   -4.6710 N.3   308  TRP308     -0.1241
     28  CA        24.7970   91.8630   -4.3980 C.3   308  TRP308      0.1605
     29  C         23.8140   91.0190   -5.2270 C.2   308  TRP308      0.2264
     30  O         23.9700   89.7950   -5.3280 O.2   308  TRP308     -0.2867
     31  CB        24.7080   91.5970   -2.8880 C.3   308  TRP308      0.0550
     32  CG        25.8520   92.2970   -2.1390 C.ar  308  TRP308      0.0003
     33  CD1       25.7460   93.3350   -1.2670 C.ar  308  TRP308      0.0946
     34  CD2       27.2600   92.0290   -2.2830 C.ar  308  TRP308      0.0152
     35  NE1       27.0030   93.7150   -0.8250 N.ar  308  TRP308     -0.2442
     36  CE2       27.9480   92.9300   -1.4330 C.ar  308  TRP308      0.0810
     37  CE3       28.0010   91.1010   -3.0300 C.ar  308  TRP308      0.0012
     38  CZ2       29.3480   92.9440   -1.3180 C.ar  308  TRP308      0.0191
     39  CZ3       29.3980   91.1120   -2.9240 C.ar  308  TRP308      0.0001
     40  CH2       30.0580   92.0280   -2.0600 C.ar  308  TRP308      0.0015
     41  N         25.9620   89.3660   -7.7690 N.3   311  PHE311     -0.1241
     42  CA        27.0520   88.5230   -7.2100 C.3   311  PHE311      0.1605
     43  C         27.6170   87.4880   -8.1930 C.2   311  PHE311      0.2264
     44  O         28.8310   87.2610   -8.2130 O.2   311  PHE311     -0.2867
     45  CB        26.5480   87.8600   -5.9070 C.3   311  PHE311      0.0534
     46  CG        27.5900   87.0630   -5.1190 C.ar  311  PHE311     -0.0203
     47  CD1       28.8310   87.6120   -4.7610 C.ar  311  PHE311     -0.0042
     48  CD2       27.2660   85.7750   -4.6640 C.ar  311  PHE311     -0.0042
     49  CE1       29.7460   86.8700   -4.0030 C.ar  311  PHE311     -0.0003
     50  CE2       28.1710   85.0100   -3.8990 C.ar  311  PHE311     -0.0003
     51  CZ        29.4130   85.5580   -3.5680 C.ar  311  PHE311     -0.0000
     52  N         19.4950   87.4950   -8.6240 N.3   364  VAL364     -0.1245
     53  CA        18.5350   87.4260   -7.5300 C.3   364  VAL364      0.1561
     54  C         18.0490   88.8150   -7.1360 C.2   364  VAL364      0.2260
     55  O         18.6160   89.8170   -7.5720 O.2   364  VAL364     -0.2867
     56  CB        19.1460   86.7120   -6.3140 C.3   364  VAL364      0.0252
     57  CG1       19.4810   85.2560   -6.6710 C.3   364  VAL364      0.0019
     58  CG2       20.3990   87.4600   -5.8190 C.3   364  VAL364      0.0019
     59  N         17.6460   90.6820   -3.7010 N.3   366  LEU366     -0.1245
     60  CA        17.9420   90.5560   -2.2740 C.3   366  LEU366      0.1561
     61  C         17.2050   91.5310   -1.3470 C.2   366  LEU366      0.2260
     62  O         17.5900   91.6770   -0.1910 O.2   366  LEU366     -0.2867
     63  CB        19.4530   90.6160   -2.0160 C.3   366  LEU366      0.0270
     64  CG        20.2490   89.4570   -2.6210 C.3   366  LEU366      0.0019
     65  CD1       21.7410   89.7350   -2.5440 C.3   366  LEU366      0.0001
     66  CD2       19.8950   88.1080   -1.9640 C.3   366  LEU366      0.0001
     67  N         22.0760   88.5470    2.7480 N.3   371  PRO371     -0.2102
     68  CA        22.9780   87.7790    1.8690 C.3   371  PRO371      0.1504
     69  C         23.5410   86.4690    2.4710 C.2   371  PRO371      0.2575
     70  O         23.7440   85.5000    1.7260 O.2   371  PRO371     -0.2718
     71  CB        24.1190   88.7690    1.5870 C.3   371  PRO371      0.0282
     72  CG        23.4280   90.1240    1.6590 C.3   371  PRO371      0.0208
     73  CD        22.4490   89.9750    2.8050 C.3   371  PRO371      0.0893
     74  N         23.7920   86.4360    3.7840 N.am  372  ASP372     -0.1974
     75  CA        24.3640   85.2410    4.4230 C.3   372  ASP372      0.1708
     76  C         23.3990   84.0590    4.3830 C.2   372  ASP372      0.2293
     77  O         23.8340   82.9080    4.3430 O.2   372  ASP372     -0.2864
     78  CB        24.8000   85.5220    5.8600 C.3   372  ASP372      0.1436
     79  CG        26.0790   86.3390    5.9270 C.2   372  ASP372      0.3671
     80  OD1       26.9370   86.1590    5.0380 O.co2 372  ASP372     -0.2456
     81  OD2       26.2270   87.1540    6.8540 O.co2 372  ASP372     -0.2456
     82  N         20.9060   83.7120    1.9430 N.3   374  ALA374     -0.1231
     83  CA        20.7610   83.3750    0.5230 C.3   374  ALA374      0.1694
     84  C         22.0020   82.6960   -0.1080 C.2   374  ALA374      0.2592
     85  O         21.8970   82.0820   -1.1670 O.2   374  ALA374     -0.2718
     86  CB        20.3620   84.6150   -0.2640 C.3   374  ALA374      0.0304
     87  N         23.1650   82.8290    0.5270 N.am  375  TYR375     -0.1976
     88  CA        24.4230   82.2780    0.0110 C.3   375  TYR375      0.1639
     89  C         24.3950   80.7690   -0.2910 C.2   375  TYR375      0.2290
     90  O         23.9370   79.9660    0.5240 O.2   375  TYR375     -0.2864
     91  CB        25.5660   82.5810    0.9860 C.3   375  TYR375      0.0560
     92  CG        26.9500   82.1430    0.5270 C.ar  375  TYR375     -0.0198
     93  CD1       27.6590   82.8800   -0.4250 C.ar  375  TYR375     -0.0009
     94  CD2       27.5790   81.0320    1.0990 C.ar  375  TYR375     -0.0009
     95  CE1       28.9410   82.4970   -0.8260 C.ar  375  TYR375      0.0417
     96  CE2       28.8740   80.6540    0.7160 C.ar  375  TYR375      0.0417
     97  CZ        29.5430   81.3780   -0.2510 C.ar  375  TYR375      0.1957
     98  OH        30.8200   80.9980   -0.6470 O.3   375  TYR375     -0.2866
     99  N         25.2960   81.0330   -7.5400 N.3   379  PRO379     -0.2116
    100  CA        25.9990   82.0460   -8.3610 C.3   379  PRO379      0.1372
    101  C         27.3140   81.5450   -8.9140 C.2   379  PRO379      0.2244
    102  O         27.7000   81.9350  -10.0240 O.2   379  PRO379     -0.2868
    103  CB        26.2300   83.2290   -7.3940 C.3   379  PRO379      0.0268
    104  CG        25.9490   82.6880   -6.0020 C.3   379  PRO379      0.0207
    105  CD        24.9870   81.5270   -6.1830 C.3   379  PRO379      0.0892
@<TRIPOS>BOND
     1   102   101    2
     2   101   100    1
     3    52    53    1
     4   100    99    1
     5   100   103    1
     6    44    43    2
     7    43    42    1
     8    41    42    1
     9    55    54    2
    10    99   105    1
    11    53    54    1
    12    53    56    1
    13   103   104    1
    14    42    45    1
    15    57    56    1
    16    56    58    1
    17   105   104    1
    18    45    46    1
    19    30    29    2
    20    29    28    1
    21    46    47   ar
    22    46    48   ar
    23    47    49   ar
    24    27    28    1
    25    48    50   ar
    26    28    31    1
    27    49    51   ar
    28    50    51   ar
    29    59    60    1
    30    37    39   ar
    31    37    34   ar
    32    39    40   ar
    33    31    32    1
    34    64    65    1
    35    64    63    1
    36    64    66    1
    37    34    32   ar
    38    34    36   ar
    39    60    63    1
    40    60    61    1
    41    32    33   ar
    42    40    38   ar
    43     9     7   am
    44    36    38   ar
    45    36    35   ar
    46    61    62    2
    47    33    35   ar
    48    85    84    2
    49     7     8    2
    50     7     6    1
    51    95    93   ar
    52    95    97   ar
    53    98    97    1
    54    93    92   ar
    55    89    88    1
    56    89    90    2
    57    86    83    1
    58    97    96   ar
    59    84    83    1
    60    84    87   am
    61    88    87    1
    62    88    91    1
    63     6     5    1
    64    83    82    1
    65    92    91    1
    66    92    94   ar
    67    96    94   ar
    68    14    11    1
    69     5     2    1
    70    71    72    1
    71    71    68    1
    72    72    73    1
    73    70    69    2
    74    68    69    1
    75    68    67    1
    76    11    12    1
    77    11    10    1
    78    13    12    2
    79    69    74   am
    80     2     3    1
    81     2     1    1
    82    67    73    1
    83    21    23   ar
    84    21    20   ar
    85    10     3   am
    86    23    25   ar
    87     3     4    2
    88    19    20    1
    89    19    16    1
    90    20    22   ar
    91    74    75    1
    92    17    16    1
    93    17    18    2
    94    25    26    1
    95    25    24   ar
    96    16    15    1
    97    77    76    2
    98    76    75    1
    99    75    78    1
   100    22    24   ar
   101    80    79   ar
   102    78    79    1
   103    79    81   ar
