@<TRIPOS>MOLECULE
tmp/3fuiA00.pdb
 212 209 0 0 0
SMALL
GASTEIGER

@<TRIPOS>ATOM
      1  N          3.4550    2.1800   -8.6300 N.3   130  GLN130     -0.1245
      2  CA         4.0070    1.7300   -7.3490 C.3   130  GLN130      0.1566
      3  C          5.2510    2.5640   -6.9400 C.2   130  GLN130      0.2260
      4  O          6.4120    2.3260   -7.3630 O.2   130  GLN130     -0.2867
      5  CB         4.1010    0.1750   -7.2950 C.3   130  GLN130      0.0367
      6  CG         5.3180   -0.4600   -6.7340 C.3   130  GLN130      0.0905
      7  CD         5.4710   -0.3040   -5.2580 C.2   130  GLN130      0.2608
      8  OE1        4.7070   -0.8450   -4.4540 O.2   130  GLN130     -0.2717
      9  NE2        6.5090    0.3900   -4.8860 N.am  130  GLN130     -0.0878
     10  N          6.5620    3.3010   -3.8470 N.3   132  GLN132     -0.1231
     11  CA         7.4660    2.9180   -2.7580 C.3   132  GLN132      0.1698
     12  C          8.6560    2.1110   -3.2970 C.2   132  GLN132      0.2592
     13  O          8.4510    1.1260   -4.0030 O.2   132  GLN132     -0.2718
     14  CB         6.7300    2.1080   -1.6700 C.3   132  GLN132      0.0381
     15  CG         7.4180    2.1790   -0.3040 C.3   132  GLN132      0.0905
     16  CD         6.7610    1.3320    0.7480 C.2   132  GLN132      0.2608
     17  OE1        6.0920    0.3550    0.4390 O.2   132  GLN132     -0.2717
     18  NE2        6.9640    1.6830    2.0080 N.am  132  GLN132     -0.0878
     19  N          9.8980    2.4770   -2.9440 N.am  133  ALA133     -0.1980
     20  CA        10.2430    3.5430   -1.9930 C.3   133  ALA133      0.1597
     21  C         10.3900    4.8840   -2.6850 C.2   133  ALA133      0.2287
     22  O          9.7610    5.8740   -2.2820 O.2   133  ALA133     -0.2864
     23  CB        11.5940    3.1860   -1.2870 C.3   133  ALA133      0.0319
     24  N          4.2960   -6.6890   -5.9450 N.3   263  TYR263     -0.1241
     25  CA         4.3210   -7.0330   -4.5240 C.3   263  TYR263      0.1605
     26  C          3.0130   -7.6730   -4.0350 C.2   263  TYR263      0.2264
     27  O          2.0250   -7.6990   -4.7580 O.2   263  TYR263     -0.2867
     28  CB         4.6360   -5.7890   -3.7060 C.3   263  TYR263      0.0534
     29  CG         5.9760   -5.1830   -4.0400 C.ar  263  TYR263     -0.0201
     30  CD1        7.1380   -5.7150   -3.5050 C.ar  263  TYR263     -0.0009
     31  CD2        6.0950   -4.1010   -4.9070 C.ar  263  TYR263     -0.0009
     32  CE1        8.3780   -5.1880   -3.7960 C.ar  263  TYR263      0.0417
     33  CE2        7.3590   -3.5520   -5.1950 C.ar  263  TYR263      0.0417
     34  CZ         8.4920   -4.1090   -4.6370 C.ar  263  TYR263      0.1957
     35  OH         9.7630   -3.5960   -4.8720 O.3   263  TYR263     -0.2866
     36  N          1.1070   -6.4270   -1.6490 N.3   265  GLY265     -0.1210
     37  CA         0.1770   -5.3630   -1.3650 C.3   265  GLY265      0.1956
     38  C          0.9140   -4.0550   -1.1070 C.2   265  GLY265      0.2612
     39  O          2.1120   -4.0490   -0.8010 O.2   265  GLY265     -0.2717
     40  N          0.1990   -2.9430   -1.2750 N.am  266  MET266     -0.1965
     41  CA         0.7360   -1.6260   -1.0280 C.3   266  MET266      0.1736
     42  C         -0.3830   -0.8270   -0.3690 C.2   266  MET266      0.2616
     43  O         -1.4560   -0.6670   -0.9490 O.2   266  MET266     -0.2715
     44  CB         1.1760   -0.9760   -2.3360 C.3   266  MET266      0.0427
     45  CG         1.5660    0.4640   -2.1840 C.3   266  MET266      0.0599
     46  SD         3.0840    0.5640   -1.1950 S.3   266  MET266     -0.1393
     47  CE         2.8300    2.1450   -0.3970 C.3   266  MET266      0.0692
     48  N         -0.1060   -0.3530    0.8540 N.am  267  GLU267     -0.1977
     49  CA        -1.0730    0.2780    1.7650 C.3   267  GLU267      0.1602
     50  C         -1.5160    1.7000    1.3290 C.2   267  GLU267      0.2287
     51  O         -1.5590    2.6380    2.1390 O.2   267  GLU267     -0.2864
     52  CB        -0.4450    0.3390    3.1620 C.3   267  GLU267      0.0415
     53  CG         0.7780    1.2750    3.2510 C.3   267  GLU267      0.1163
     54  CD         2.1640    0.5840    3.1450 C.2   267  GLU267      0.3649
     55  OE1        2.3100   -0.4550    2.4690 O.co2 267  GLU267     -0.2457
     56  OE2        3.1270    1.1190    3.7410 O.co2 267  GLU267     -0.2457
     57  N         14.4580    5.9240    4.7360 N.3   307  TRP307     -0.1227
     58  CA        14.2970    4.5170    4.4150 C.3   307  TRP307      0.1737
     59  C         15.2340    3.6120    5.2070 C.2   307  TRP307      0.2595
     60  O         15.0330    2.3990    5.2240 O.2   307  TRP307     -0.2718
     61  CB        14.4780    4.3030    2.9160 C.3   307  TRP307      0.0564
     62  CG        13.4120    4.9560    2.1550 C.ar  307  TRP307      0.0003
     63  CD1       13.5360    5.9770    1.2160 C.ar  307  TRP307      0.0946
     64  CD2       12.0200    4.6580    2.2520 C.ar  307  TRP307      0.0152
     65  NE1       12.2910    6.2960    0.7160 N.ar  307  TRP307     -0.2442
     66  CE2       11.3430    5.5190    1.3540 C.ar  307  TRP307      0.0810
     67  CE3       11.2750    3.7400    3.0150 C.ar  307  TRP307      0.0012
     68  CZ2        9.9540    5.4980    1.2090 C.ar  307  TRP307      0.0191
     69  CZ3        9.8960    3.7170    2.8590 C.ar  307  TRP307      0.0001
     70  CH2        9.2510    4.5940    1.9630 C.ar  307  TRP307      0.0015
     71  N         16.2680    4.2010    5.8240 N.am  308  ASP308     -0.1974
     72  CA        17.1220    3.5070    6.7780 C.3   308  ASP308      0.1709
     73  C         16.2700    2.9730    7.9120 C.2   308  ASP308      0.2293
     74  O         16.6700    2.0430    8.6140 O.2   308  ASP308     -0.2864
     75  CB        18.1600    4.4630    7.3890 C.3   308  ASP308      0.1436
     76  CG        19.2400    4.8550    6.4240 C.2   308  ASP308      0.3671
     77  OD1       19.2200    4.3610    5.2810 O.co2 308  ASP308     -0.2456
     78  OD2       20.1430    5.6500    6.8070 O.co2 308  ASP308     -0.2456
     79  N         13.0170    1.9220    7.7380 N.3   310  PHE310     -0.1227
     80  CA        11.9340    1.1450    7.1380 C.3   310  PHE310      0.1736
     81  C         11.3770    0.1060    8.0840 C.2   310  PHE310      0.2595
     82  O         10.1690   -0.0660    8.1450 O.2   310  PHE310     -0.2718
     83  CB        12.4110    0.5520    5.7990 C.3   310  PHE310      0.0547
     84  CG        11.3650   -0.2560    5.0420 C.ar  310  PHE310     -0.0202
     85  CD1       10.1560    0.2960    4.6720 C.ar  310  PHE310     -0.0042
     86  CD2       11.6360   -1.5630    4.6390 C.ar  310  PHE310     -0.0042
     87  CE1        9.2270   -0.4370    3.9810 C.ar  310  PHE310     -0.0003
     88  CE2       10.7120   -2.3020    3.9300 C.ar  310  PHE310     -0.0003
     89  CZ         9.4990   -1.7470    3.6110 C.ar  310  PHE310     -0.0000
     90  N         12.2260   -0.5460    8.8860 N.am  311  TRP311     -0.1976
     91  CA        11.7180   -1.5170    9.9060 C.3   311  TRP311      0.1640
     92  C         10.6330   -0.9560   10.8270 C.2   311  TRP311      0.2290
     93  O          9.7620   -1.6820   11.3180 O.2   311  TRP311     -0.2864
     94  CB        12.8930   -2.1020   10.7210 C.3   311  TRP311      0.0576
     95  CG        13.2370   -1.3080   11.9800 C.ar  311  TRP311      0.0006
     96  CD1       14.1600   -0.2920   12.1040 C.ar  311  TRP311      0.0946
     97  CD2       12.6520   -1.4780   13.2850 C.ar  311  TRP311      0.0152
     98  NE1       14.1700    0.1690   13.3920 N.ar  311  TRP311     -0.2442
     99  CE2       13.2730   -0.5510   14.1420 C.ar  311  TRP311      0.0810
    100  CE3       11.6690   -2.3470   13.8130 C.ar  311  TRP311      0.0012
    101  CZ2       12.9350   -0.4400   15.4960 C.ar  311  TRP311      0.0191
    102  CZ3       11.3410   -2.2480   15.1520 C.ar  311  TRP311      0.0001
    103  CH2       11.9670   -1.2920   15.9810 C.ar  311  TRP311      0.0015
    104  N          7.4640   -1.6830    8.8900 N.3   314  GLU314     -0.1245
    105  CA         7.1170   -3.0930    8.6880 C.3   314  GLU314      0.1567
    106  C          6.9890   -3.9280    9.9590 C.2   314  GLU314      0.2260
    107  O          6.0760   -4.7590   10.0770 O.2   314  GLU314     -0.2867
    108  CB         8.0880   -3.7540    7.6980 C.3   314  GLU314      0.0388
    109  CG         8.0910   -3.1000    6.3200 C.3   314  GLU314      0.1160
    110  CD         6.7010   -2.7820    5.8100 C.2   314  GLU314      0.3649
    111  OE1        5.7590   -3.5170    6.1510 O.co2 314  GLU314     -0.2457
    112  OE2        6.5290   -1.7980    5.0630 O.co2 314  GLU314     -0.2457
    113  N         22.5800   -5.8670    4.6290 N.3   358  PHE358     -0.1241
    114  CA        21.1210   -5.8430    4.4160 C.3   358  PHE358      0.1605
    115  C         20.3660   -6.6570    5.4610 C.2   358  PHE358      0.2264
    116  O         19.1280   -6.6850    5.4460 O.2   358  PHE358     -0.2867
    117  CB        20.6990   -6.2950    3.0090 C.3   358  PHE358      0.0534
    118  CG        21.2500   -5.4310    1.8850 C.ar  358  PHE358     -0.0203
    119  CD1       21.8730   -4.2060    2.1610 C.ar  358  PHE358     -0.0042
    120  CD2       21.1340   -5.8420    0.5450 C.ar  358  PHE358     -0.0042
    121  CE1       22.3660   -3.4130    1.1270 C.ar  358  PHE358     -0.0003
    122  CE2       21.6340   -5.0610   -0.4840 C.ar  358  PHE358     -0.0003
    123  CZ        22.2520   -3.8430   -0.2030 C.ar  358  PHE358     -0.0000
    124  N         21.0420   -6.2160    8.6450 N.3   360  LYS360     -0.1231
    125  CA        20.9200   -5.2740    9.7380 C.3   360  LYS360      0.1693
    126  C         19.4880   -4.7930    9.7940 C.2   360  LYS360      0.2591
    127  O         18.8570   -4.6190    8.7380 O.2   360  LYS360     -0.2718
    128  CB        21.8550   -4.0740    9.5040 C.3   360  LYS360      0.0285
    129  CG        23.3310   -4.4290    9.5800 C.3   360  LYS360      0.0035
    130  CD        24.1610   -3.2020    9.4110 C.3   360  LYS360      0.0206
    131  CE        25.6360   -3.5680    9.4690 C.3   360  LYS360      0.1093
    132  NZ        26.4860   -2.3640    9.5710 N.3   360  LYS360     -0.1314
    133  N         18.9840   -4.5690   11.0070 N.am  361  LEU361     -0.1980
    134  CA        17.6260   -4.0360   11.1920 C.3   361  LEU361      0.1596
    135  C         17.5130   -2.6060   10.6680 C.2   361  LEU361      0.2287
    136  O         16.6160   -2.2790    9.8750 O.2   361  LEU361     -0.2864
    137  CB        17.2100   -4.1140   12.6620 C.3   361  LEU361      0.0297
    138  CG        15.7740   -3.7150   13.0750 C.3   361  LEU361      0.0022
    139  CD1       14.7270   -4.5190   12.3340 C.3   361  LEU361      0.0001
    140  CD2       15.5720   -3.8260   14.5680 C.3   361  LEU361      0.0001
    141  N         19.3090   -0.0470    8.3500 N.3   363  VAL363     -0.1245
    142  CA        20.3140   -0.1810    7.2810 C.3   363  VAL363      0.1561
    143  C         20.8940    1.1740    6.9050 C.2   363  VAL363      0.2260
    144  O         20.2980    2.1830    7.1960 O.2   363  VAL363     -0.2867
    145  CB        19.7500   -0.8810    6.0560 C.3   363  VAL363      0.0252
    146  CG1       19.1860   -2.2400    6.4680 C.3   363  VAL363      0.0019
    147  CG2       18.6760   -0.0340    5.4350 C.3   363  VAL363      0.0019
    148  N         21.5310    3.2300    3.7470 N.3   365  LEU365     -0.1245
    149  CA        21.2270    3.1850    2.3180 C.3   365  LEU365      0.1561
    150  C         22.0770    4.1240    1.4300 C.2   365  LEU365      0.2260
    151  O         21.7870    4.2890    0.2650 O.2   365  LEU365     -0.2867
    152  CB        19.7230    3.4140    2.1000 C.3   365  LEU365      0.0270
    153  CG        18.8500    2.1990    2.4840 C.3   365  LEU365      0.0019
    154  CD1       17.3670    2.5530    2.4740 C.3   365  LEU365      0.0001
    155  CD2       19.1110    0.9160    1.6300 C.3   365  LEU365      0.0001
    156  N         17.3620    1.3080   -2.8970 N.3   370  PRO370     -0.2102
    157  CA        16.4570    0.6840   -1.9440 C.3   370  PRO370      0.1504
    158  C         15.7640   -0.5720   -2.4640 C.2   370  PRO370      0.2575
    159  O         15.4390   -1.4250   -1.6640 O.2   370  PRO370     -0.2718
    160  CB        15.4110    1.7930   -1.6730 C.3   370  PRO370      0.0282
    161  CG        16.1450    3.0350   -1.9160 C.3   370  PRO370      0.0208
    162  CD        17.0710    2.7340   -3.0780 C.3   370  PRO370      0.0893
    163  N         15.5130   -0.6760   -3.7780 N.am  371  ASP371     -0.1974
    164  CA        14.8840   -1.8860   -4.3570 C.3   371  ASP371      0.1708
    165  C         15.7560   -3.1350   -4.2440 C.2   371  ASP371      0.2293
    166  O         15.2240   -4.2740   -4.2200 O.2   371  ASP371     -0.2864
    167  CB        14.4830   -1.7090   -5.8350 C.3   371  ASP371      0.1436
    168  CG        13.3530   -0.6930   -6.0330 C.2   371  ASP371      0.3671
    169  OD1       12.5530   -0.4660   -5.0990 O.co2 371  ASP371     -0.2456
    170  OD2       13.2760   -0.1000   -7.1290 O.co2 371  ASP371     -0.2456
    171  N         17.9160   -3.5750   -1.7280 N.3   373  ALA373     -0.1231
    172  CA        18.0660   -3.8580   -0.2950 C.3   373  ALA373      0.1694
    173  C         16.8000   -4.5380    0.2450 C.2   373  ALA373      0.2592
    174  O         16.8530   -5.2630    1.2530 O.2   373  ALA373     -0.2718
    175  CB        18.3300   -2.5610    0.4440 C.3   373  ALA373      0.0304
    176  N         15.6710   -4.2750   -0.4170 N.am  374  TYR374     -0.1962
    177  CA        14.3720   -4.8150   -0.0070 C.3   374  TYR374      0.1771
    178  C         14.3830   -6.3440    0.2170 C.2   374  TYR374      0.2620
    179  O         14.8600   -7.0870   -0.6180 O.2   374  TYR374     -0.2715
    180  CB        13.2610   -4.4220   -0.9830 C.3   374  TYR374      0.0574
    181  CG        11.8910   -4.9090   -0.5230 C.ar  374  TYR374     -0.0198
    182  CD1       11.1490   -4.1650    0.3810 C.ar  374  TYR374     -0.0009
    183  CD2       11.3460   -6.1330   -0.9900 C.ar  374  TYR374     -0.0009
    184  CE1        9.9310   -4.6020    0.8120 C.ar  374  TYR374      0.0417
    185  CE2       10.1060   -6.5760   -0.5630 C.ar  374  TYR374      0.0417
    186  CZ         9.4070   -5.8070    0.3470 C.ar  374  TYR374      0.1957
    187  OH         8.1740   -6.2100    0.8230 O.3   374  TYR374     -0.2866
    188  N         13.8350   -6.7830    1.3500 N.am  375  SER375     -0.1950
    189  CA        13.7220   -8.2000    1.7080 C.3   375  SER375      0.1924
    190  C         12.8630   -8.3200    2.9690 C.2   375  SER375      0.2314
    191  O         12.3390   -7.3430    3.4610 O.2   375  SER375     -0.2863
    192  CB        15.0910   -8.7910    2.0120 C.3   375  SER375      0.2116
    193  OG        15.4990   -8.4100    3.3110 O.3   375  SER375     -0.2180
    194  N         13.5540   -6.3560    7.3830 N.3   378  PRO378     -0.2102
    195  CA        12.8520   -5.3590    8.1980 C.3   378  PRO378      0.1504
    196  C         11.5360   -5.8540    8.8220 C.2   378  PRO378      0.2575
    197  O         11.2320   -5.4920    9.9780 O.2   378  PRO378     -0.2718
    198  CB        12.6040   -4.2050    7.2080 C.3   378  PRO378      0.0282
    199  CG        12.7210   -4.8080    5.8580 C.3   378  PRO378      0.0208
    200  CD        13.7790   -5.8760    6.0080 C.3   378  PRO378      0.0893
    201  N         10.7650   -6.6640    8.0620 N.am  379  TYR379     -0.1977
    202  CA         9.5380   -7.3680    8.5420 C.3   379  TYR379      0.1639
    203  C          9.7940   -8.3010    9.7390 C.2   379  TYR379      0.2290
    204  O          9.2000   -8.1450   10.8380 O.2   379  TYR379     -0.2864
    205  CB         8.9420   -8.2160    7.4140 C.3   379  TYR379      0.0560
    206  CG         8.4800   -7.4240    6.1980 C.ar  379  TYR379     -0.0198
    207  CD1        9.3600   -7.0780    5.1790 C.ar  379  TYR379     -0.0009
    208  CD2        7.1660   -7.0170    6.0870 C.ar  379  TYR379     -0.0009
    209  CE1        8.9300   -6.3380    4.0510 C.ar  379  TYR379      0.0417
    210  CE2        6.7200   -6.2940    4.9610 C.ar  379  TYR379      0.0417
    211  CZ         7.5960   -5.9450    3.9630 C.ar  379  TYR379      0.1957
    212  OH         7.1060   -5.2260    2.8870 O.3   379  TYR379     -0.2866
@<TRIPOS>BOND
     1     1     2    1
     2     4     3    2
     3     2     5    1
     4     2     3    1
     5     5     6    1
     6   170   168   ar
     7     6     7    1
     8   168   167    1
     9   168   169   ar
    10    24    25    1
    11   167   164    1
    12     7     9   am
    13     7     8    2
    14    33    31   ar
    15    33    34   ar
    16    31    29   ar
    17    35    34    1
    18    27    26    2
    19    34    32   ar
    20    25    26    1
    21    25    28    1
    22   164   165    1
    23   164   163    1
    24   165   166    2
    25    29    28    1
    26    29    30   ar
    27    13    12    2
    28    10    11    1
    29    32    30   ar
    30   163   158   am
    31    12    19   am
    32    12    11    1
    33   162   156    1
    34   162   161    1
    35    19    20    1
    36   156   157    1
    37    11    14    1
    38    21    22    2
    39    21    20    1
    40   158   157    1
    41   158   159    2
    42    44    45    1
    43    44    41    1
    44    45    46    1
    45    20    23    1
    46   157   160    1
    47   161   160    1
    48   171   172    1
    49    14    15    1
    50    36    37    1
    51    37    38    1
    52    40    38   am
    53    40    41    1
    54    46    47    1
    55    38    39    2
    56    41    42    1
    57   183   185   ar
    58   183   181   ar
    59   180   181    1
    60   180   177    1
    61    43    42    2
    62   179   178    2
    63   185   186   ar
    64   181   182   ar
    65   122   123   ar
    66   122   120   ar
    67   176   177    1
    68   176   173   am
    69    42    48   am
    70    15    16    1
    71   172   173    1
    72   172   175    1
    73   123   121   ar
    74   177   178    1
    75   178   188   am
    76   173   174    2
    77   151   150    2
    78   186   184   ar
    79   186   187    1
    80   182   184   ar
    81    17    16    2
    82   120   118   ar
    83    65    63   ar
    84    65    66   ar
    85    16    18   am
    86    48    49    1
    87   121   119   ar
    88    68    66   ar
    89    68    70   ar
    90    63    62   ar
    91    50    49    1
    92    50    51    2
    93   188   189    1
    94    66    64   ar
    95   150   149    1
    96   155   153    1
    97   189   192    1
    98   189   190    1
    99    49    52    1
   100   118   119   ar
   101   118   117    1
   102    70    69   ar
   103   192   193    1
   104   152   149    1
   105   152   153    1
   106    62    64   ar
   107    62    61    1
   108    64    67   ar
   109   149   148    1
   110    55    54   ar
   111   154   153    1
   112    69    67   ar
   113   212   211    1
   114    61    58    1
   115   190   191    2
   116   117   114    1
   117    54    53    1
   118    54    56   ar
   119    52    53    1
   120    89    88   ar
   121    89    87   ar
   122    88    86   ar
   123   211   209   ar
   124   211   210   ar
   125    87    85   ar
   126   209   207   ar
   127    58    57    1
   128    58    59    1
   129   114   113    1
   130   114   115    1
   131    86    84   ar
   132    85    84   ar
   133   210   208   ar
   134    84    83    1
   135   112   110   ar
   136   207   206   ar
   137    59    60    2
   138    59    71   am
   139    77    76   ar
   140   147   145    1
   141   116   115    2
   142    83    80    1
   143   110   111   ar
   144   110   109    1
   145    71    72    1
   146   199   200    1
   147   199   198    1
   148   200   194    1
   149   145   146    1
   150   145   142    1
   151   208   206   ar
   152   206   205    1
   153   109   108    1
   154    76    78   ar
   155    76    75    1
   156    72    75    1
   157    72    73    1
   158   143   144    2
   159   143   142    1
   160    80    79    1
   161    80    81    1
   162   198   195    1
   163   142   141    1
   164   194   195    1
   165   205   202    1
   166   108   105    1
   167    73    74    2
   168   201   202    1
   169   201   196   am
   170    81    82    2
   171    81    90   am
   172   195   196    1
   173   202   203    1
   174   124   125    1
   175   105   104    1
   176   105   106    1
   177   127   126    2
   178   196   197    2
   179    90    91    1
   180   130   131    1
   181   130   129    1
   182   131   132    1
   183   128   129    1
   184   128   125    1
   185   125   126    1
   186   203   204    2
   187   126   133   am
   188   136   135    2
   189    91    94    1
   190    91    92    1
   191   106   107    2
   192   135   134    1
   193    94    95    1
   194    92    93    2
   195   133   134    1
   196   134   137    1
   197    95    96   ar
   198    95    97   ar
   199    96    98   ar
   200   139   138    1
   201   137   138    1
   202   138   140    1
   203    97   100   ar
   204    97    99   ar
   205    98    99   ar
   206   100   102   ar
   207    99   101   ar
   208   102   103   ar
   209   101   103   ar
