@<TRIPOS>MOLECULE
tmp/3fujA00.pdb
 156 152 0 0 0
SMALL
GASTEIGER

@<TRIPOS>ATOM
      1  N        -35.6550    2.4820   -8.5770 N.3   131  GLN131     -0.1245
      2  CA       -35.1530    1.9800   -7.2880 C.3   131  GLN131      0.1566
      3  C        -33.9630    2.8620   -6.9330 C.2   131  GLN131      0.2260
      4  O        -32.8650    2.7050   -7.5090 O.2   131  GLN131     -0.2867
      5  CB       -34.7410    0.4850   -7.3260 C.3   131  GLN131      0.0367
      6  CG       -34.7860   -0.2080   -5.8780 C.3   131  GLN131      0.0905
      7  CD       -33.7890    0.3630   -4.9230 C.2   131  GLN131      0.2608
      8  OE1      -34.1500    1.0300   -3.9610 O.2   131  GLN131     -0.2717
      9  NE2      -32.5110    0.1270   -5.1900 N.am  131  GLN131     -0.0878
     10  N        -32.5750    3.4950   -3.7270 N.3   133  GLN133     -0.1231
     11  CA       -31.6310    3.1480   -2.6310 C.3   133  GLN133      0.1698
     12  C        -30.4420    2.3920   -3.2310 C.2   133  GLN133      0.2592
     13  O        -30.6740    1.5070   -4.0720 O.2   133  GLN133     -0.2718
     14  CB       -32.3270    2.3130   -1.5290 C.3   133  GLN133      0.0381
     15  CG       -31.4630    2.2290   -0.2510 C.3   133  GLN133      0.0905
     16  CD       -32.0400    1.3200    0.8260 C.2   133  GLN133      0.2608
     17  OE1      -32.0690    0.1090    0.6600 O.2   133  GLN133     -0.2717
     18  NE2      -32.4000    1.8990    1.9690 N.am  133  GLN133     -0.0878
     19  N        -29.1890    2.7070   -2.8480 N.am  134  ALA134     -0.1980
     20  CA       -28.8320    3.7870   -1.9020 C.3   134  ALA134      0.1597
     21  C        -28.6620    5.1400   -2.5680 C.2   134  ALA134      0.2287
     22  O        -29.2030    6.1350   -2.0900 O.2   134  ALA134     -0.2864
     23  CB       -27.4970    3.4450   -1.1600 C.3   134  ALA134      0.0319
     24  N        -34.8880   -6.7480   -5.6240 N.3   264  TYR264     -0.1241
     25  CA       -34.9070   -7.0190   -4.1790 C.3   264  TYR264      0.1605
     26  C        -36.2160   -7.7160   -3.7640 C.2   264  TYR264      0.2264
     27  O        -37.1920   -7.7250   -4.5300 O.2   264  TYR264     -0.2867
     28  CB       -34.7200   -5.7140   -3.4190 C.3   264  TYR264      0.0534
     29  CG       -33.4250   -5.0370   -3.8070 C.ar  264  TYR264     -0.0201
     30  CD1      -32.1970   -5.4850   -3.3000 C.ar  264  TYR264     -0.0009
     31  CD2      -33.4140   -4.0310   -4.7460 C.ar  264  TYR264     -0.0009
     32  CE1      -30.9880   -4.8790   -3.6950 C.ar  264  TYR264      0.0417
     33  CE2      -32.2340   -3.4330   -5.1350 C.ar  264  TYR264      0.0417
     34  CZ       -31.0330   -3.8540   -4.6090 C.ar  264  TYR264      0.1957
     35  OH       -29.8790   -3.2390   -5.0350 O.3   264  TYR264     -0.2866
     36  N        -38.0240   -6.6130   -1.3450 N.3   266  GLY266     -0.1210
     37  CA       -38.9240   -5.4420   -1.2350 C.3   266  GLY266      0.1956
     38  C        -38.1500   -4.1250   -1.1290 C.2   266  GLY266      0.2612
     39  O        -36.9270   -4.1190   -0.9400 O.2   266  GLY266     -0.2717
     40  N        -38.8650   -3.0150   -1.2430 N.am  267  MET267     -0.1965
     41  CA       -38.2890   -1.6900   -1.0480 C.3   267  MET267      0.1736
     42  C        -39.3840   -0.8620   -0.3720 C.2   267  MET267      0.2616
     43  O        -40.5010   -0.7310   -0.8860 O.2   267  MET267     -0.2715
     44  CB       -37.8260   -1.0520   -2.3750 C.3   267  MET267      0.0427
     45  CG       -37.1780    0.3700   -2.1860 C.3   267  MET267      0.0599
     46  SD       -35.7610    0.2970   -1.0110 S.3   267  MET267     -0.1393
     47  CE       -35.8390    1.9060   -0.1780 C.3   267  MET267      0.0692
     48  N        -39.0320   -0.2780    0.7750 N.am  268  GLU268     -0.1977
     49  CA       -39.9970    0.3060    1.7070 C.3   268  GLU268      0.1602
     50  C        -40.4580    1.7150    1.2900 C.2   268  GLU268      0.2287
     51  O        -40.5660    2.6230    2.1400 O.2   268  GLU268     -0.2864
     52  CB       -39.3470    0.3450    3.1070 C.3   268  GLU268      0.0415
     53  CG       -38.1070    1.2850    3.2150 C.3   268  GLU268      0.1163
     54  CD       -36.7190    0.5900    3.0170 C.2   268  GLU268      0.3649
     55  OE1      -36.6340   -0.4340    2.3350 O.co2 268  GLU268     -0.2457
     56  OE2      -35.7110    1.1160    3.5150 O.co2 268  GLU268     -0.2457
     57  N        -24.6790    6.0430    4.8080 N.3   308  TRP308     -0.1241
     58  CA       -24.8540    4.6110    4.5240 C.3   308  TRP308      0.1605
     59  C        -23.8700    3.7280    5.2990 C.2   308  TRP308      0.2264
     60  O        -23.9820    2.5020    5.3100 O.2   308  TRP308     -0.2867
     61  CB       -24.7430    4.3760    3.0090 C.3   308  TRP308      0.0550
     62  CG       -25.8750    5.0860    2.2580 C.ar  308  TRP308      0.0003
     63  CD1      -25.7470    6.1110    1.3400 C.ar  308  TRP308      0.0946
     64  CD2      -27.2910    4.8100    2.3640 C.ar  308  TRP308      0.0152
     65  NE1      -26.9960    6.4770    0.8760 N.ar  308  TRP308     -0.2442
     66  CE2      -27.9580    5.7190    1.5030 C.ar  308  TRP308      0.0810
     67  CE3      -28.0560    3.8980    3.1180 C.ar  308  TRP308      0.0012
     68  CZ2      -29.3530    5.7220    1.3460 C.ar  308  TRP308      0.0191
     69  CZ3      -29.4330    3.9000    2.9800 C.ar  308  TRP308      0.0001
     70  CH2      -30.0790    4.8210    2.0840 C.ar  308  TRP308      0.0015
     71  N        -26.0280    1.9100    7.8620 N.3   311  PHE311     -0.1241
     72  CA       -27.1330    1.1420    7.2770 C.3   311  PHE311      0.1605
     73  C        -27.6910    0.0830    8.2380 C.2   311  PHE311      0.2264
     74  O        -28.8960   -0.1730    8.2320 O.2   311  PHE311     -0.2867
     75  CB       -26.6440    0.4870    5.9700 C.3   311  PHE311      0.0534
     76  CG       -27.7220   -0.1900    5.1360 C.ar  311  PHE311     -0.0203
     77  CD1      -28.8760    0.4900    4.7580 C.ar  311  PHE311     -0.0042
     78  CD2      -27.5190   -1.4920    4.6440 C.ar  311  PHE311     -0.0042
     79  CE1      -29.8260   -0.1330    3.9220 C.ar  311  PHE311     -0.0003
     80  CE2      -28.4790   -2.1300    3.8260 C.ar  311  PHE311     -0.0003
     81  CZ       -29.6240   -1.4430    3.4630 C.ar  311  PHE311     -0.0000
     82  N        -31.5310   -1.4650    8.9140 N.3   315  GLU315     -0.1245
     83  CA       -31.8350   -2.8890    8.6250 C.3   315  GLU315      0.1567
     84  C        -31.9550   -3.7640    9.8530 C.2   315  GLU315      0.2260
     85  O        -32.8690   -4.5980    9.9550 O.2   315  GLU315     -0.2867
     86  CB       -30.7820   -3.4700    7.6580 C.3   315  GLU315      0.0388
     87  CG       -30.8500   -2.7730    6.2800 C.3   315  GLU315      0.1160
     88  CD       -32.3100   -2.7340    5.7940 C.2   315  GLU315      0.3649
     89  OE1      -33.1050   -3.6810    6.1150 O.co2 315  GLU315     -0.2457
     90  OE2      -32.6770   -1.7740    5.1180 O.co2 315  GLU315     -0.2457
     91  N        -19.6840    0.0370    8.6280 N.3   364  VAL364     -0.1245
     92  CA       -18.7050   -0.0490    7.5450 C.3   364  VAL364      0.1561
     93  C        -18.1780    1.3150    7.1200 C.2   364  VAL364      0.2260
     94  O        -18.7840    2.3340    7.4140 O.2   364  VAL364     -0.2867
     95  CB       -19.2950   -0.7710    6.3240 C.3   364  VAL364      0.0252
     96  CG1      -19.5740   -2.2270    6.6760 C.3   364  VAL364      0.0019
     97  CG2      -20.5480   -0.0590    5.8270 C.3   364  VAL364      0.0019
     98  N        -17.5750    3.2640    3.8180 N.3   366  LEU366     -0.1245
     99  CA       -17.8660    3.2060    2.3920 C.3   366  LEU366      0.1561
    100  C        -17.0450    4.2010    1.5570 C.2   366  LEU366      0.2260
    101  O        -17.3650    4.4300    0.3940 O.2   366  LEU366     -0.2867
    102  CB       -19.3690    3.4080    2.1310 C.3   366  LEU366      0.0270
    103  CG       -20.2480    2.2320    2.5920 C.3   366  LEU366      0.0019
    104  CD1      -21.7410    2.6040    2.5200 C.3   366  LEU366      0.0001
    105  CD2      -19.9270    0.9370    1.7850 C.3   366  LEU366      0.0001
    106  N        -21.9130    1.2720   -2.6600 N.3   371  PRO371     -0.2102
    107  CA       -22.8200    0.5360   -1.7570 C.3   371  PRO371      0.1504
    108  C        -23.4160   -0.7570   -2.3770 C.2   371  PRO371      0.2575
    109  O        -23.6640   -1.7190   -1.6440 O.2   371  PRO371     -0.2718
    110  CB       -23.9360    1.5580   -1.4800 C.3   371  PRO371      0.0282
    111  CG       -23.2440    2.9130   -1.6360 C.3   371  PRO371      0.0208
    112  CD       -22.2800    2.6970   -2.7930 C.3   371  PRO371      0.0893
    113  N        -23.6470   -0.7750   -3.7060 N.am  372  ASP372     -0.1974
    114  CA       -24.2030   -1.9600   -4.3670 C.3   372  ASP372      0.1708
    115  C        -23.2590   -3.1690   -4.3270 C.2   372  ASP372      0.2293
    116  O        -23.7220   -4.3170   -4.2730 O.2   372  ASP372     -0.2864
    117  CB       -24.6230   -1.6760   -5.8260 C.3   372  ASP372      0.1436
    118  CG       -25.8280   -0.7560   -5.9180 C.2   372  ASP372      0.3671
    119  OD1      -26.6530   -0.7800   -4.9760 O.co2 372  ASP372     -0.2456
    120  OD2      -25.9660   -0.0170   -6.9210 O.co2 372  ASP372     -0.2456
    121  N        -20.8790   -3.5330   -1.8250 N.3   374  ALA374     -0.1231
    122  CA       -20.7730   -3.8620   -0.4050 C.3   374  ALA374      0.1694
    123  C        -22.0310   -4.5660    0.1600 C.2   374  ALA374      0.2592
    124  O        -21.9430   -5.3070    1.1400 O.2   374  ALA374     -0.2718
    125  CB       -20.4730   -2.5910    0.3970 C.3   374  ALA374      0.0304
    126  N        -23.1880   -4.3410   -0.4620 N.am  375  TYR375     -0.1976
    127  CA       -24.4720   -4.8680    0.0480 C.3   375  TYR375      0.1639
    128  C        -24.4580   -6.3720    0.3980 C.2   375  TYR375      0.2290
    129  O        -24.0190   -7.1840   -0.4000 O.2   375  TYR375     -0.2864
    130  CB       -25.5970   -4.5940   -0.9630 C.3   375  TYR375      0.0560
    131  CG       -26.9620   -5.0650   -0.4810 C.ar  375  TYR375     -0.0198
    132  CD1      -27.6090   -4.4070    0.5650 C.ar  375  TYR375     -0.0009
    133  CD2      -27.6010   -6.1670   -1.0710 C.ar  375  TYR375     -0.0009
    134  CE1      -28.8480   -4.8130    1.0060 C.ar  375  TYR375      0.0417
    135  CE2      -28.8500   -6.5770   -0.6390 C.ar  375  TYR375      0.0417
    136  CZ       -29.4610   -5.8900    0.4030 C.ar  375  TYR375      0.1957
    137  OH       -30.6890   -6.2890    0.8680 O.3   375  TYR375     -0.2866
    138  N        -25.4450   -6.2680    7.6030 N.3   379  PRO379     -0.2102
    139  CA       -26.1270   -5.2420    8.4210 C.3   379  PRO379      0.1504
    140  C        -27.4490   -5.7560    8.9700 C.2   379  PRO379      0.2575
    141  O        -27.8520   -5.3660   10.0840 O.2   379  PRO379     -0.2718
    142  CB       -26.3800   -4.0810    7.4350 C.3   379  PRO379      0.0282
    143  CG       -26.0950   -4.6460    6.0640 C.3   379  PRO379      0.0208
    144  CD       -25.1130   -5.7790    6.2560 C.3   379  PRO379      0.0893
    145  N        -28.1120   -6.6380    8.2110 N.am  380  TYR380     -0.1977
    146  CA       -29.3740   -7.2520    8.6410 C.3   380  TYR380      0.1639
    147  C        -29.1760   -8.1680    9.8280 C.2   380  TYR380      0.2290
    148  O        -29.8790   -8.0380   10.8240 O.2   380  TYR380     -0.2864
    149  CB       -29.9980   -8.1150    7.5210 C.3   380  TYR380      0.0560
    150  CG       -30.4440   -7.3230    6.3180 C.ar  380  TYR380     -0.0198
    151  CD1      -29.5210   -6.9440    5.3430 C.ar  380  TYR380     -0.0009
    152  CD2      -31.7750   -6.9650    6.1510 C.ar  380  TYR380     -0.0009
    153  CE1      -29.9000   -6.1990    4.2400 C.ar  380  TYR380      0.0417
    154  CE2      -32.1880   -6.2180    5.0060 C.ar  380  TYR380      0.0417
    155  CZ       -31.2180   -5.8420    4.0590 C.ar  380  TYR380      0.1957
    156  OH       -31.5430   -5.1140    2.9200 O.3   380  TYR380     -0.2866
@<TRIPOS>BOND
     1     1     2    1
     2     4     3    2
     3     5     2    1
     4     5     6    1
     5     2     3    1
     6   120   118   ar
     7   118   117    1
     8   118   119   ar
     9     6     7    1
    10   117   114    1
    11    24    25    1
    12     9     7   am
    13    33    31   ar
    14    33    34   ar
    15    35    34    1
    16     7     8    2
    17    31    29   ar
    18    34    32   ar
    19    27    26    2
    20   114   115    1
    21   114   113    1
    22   115   116    2
    23    25    26    1
    24    25    28    1
    25    13    12    2
    26    29    28    1
    27    29    30   ar
    28    10    11    1
    29   113   108   am
    30    32    30   ar
    31    12    19   am
    32    12    11    1
    33    19    20    1
    34   112   106    1
    35   112   111    1
    36   106   107    1
    37    11    14    1
    38    21    22    2
    39    21    20    1
    40   108   107    1
    41   108   109    2
    42    44    45    1
    43    44    41    1
    44    45    46    1
    45    20    23    1
    46   121   122    1
    47   107   110    1
    48   111   110    1
    49    14    15    1
    50    36    37    1
    51    40    38   am
    52    40    41    1
    53    37    38    1
    54    38    39    2
    55   133   135   ar
    56   133   131   ar
    57    41    42    1
    58    46    47    1
    59   130   131    1
    60   130   127    1
    61    43    42    2
    62   135   136   ar
    63   131   132   ar
    64   126   127    1
    65   126   123   am
    66   122   123    1
    67   122   125    1
    68   129   128    2
    69    42    48   am
    70    15    16    1
    71   127   128    1
    72   123   124    2
    73   101   100    2
    74   136   137    1
    75   136   134   ar
    76   132   134   ar
    77    17    16    2
    78    48    49    1
    79    16    18   am
    80    65    63   ar
    81    65    66   ar
    82    50    49    1
    83    50    51    2
    84    63    62   ar
    85    68    66   ar
    86    68    70   ar
    87    66    64   ar
    88   100    99    1
    89    49    52    1
    90   105   103    1
    91    70    69   ar
    92   102    99    1
    93   102   103    1
    94    62    64   ar
    95    62    61    1
    96    55    54   ar
    97    64    67   ar
    98    99    98    1
    99   104   103    1
   100   156   155    1
   101    69    67   ar
   102    61    58    1
   103    54    53    1
   104    54    56   ar
   105    52    53    1
   106    81    80   ar
   107    81    79   ar
   108    80    78   ar
   109    79    77   ar
   110   155   153   ar
   111   155   154   ar
   112   153   151   ar
   113    58    57    1
   114    58    59    1
   115    78    76   ar
   116    77    76   ar
   117   154   152   ar
   118    90    88   ar
   119    76    75    1
   120    59    60    2
   121   151   150   ar
   122    88    89   ar
   123    88    87    1
   124    97    95    1
   125    75    72    1
   126   143   144    1
   127   143   142    1
   128   152   150   ar
   129   144   138    1
   130    87    86    1
   131   150   149    1
   132    95    96    1
   133    95    92    1
   134    93    94    2
   135    93    92    1
   136    72    71    1
   137    72    73    1
   138   142   139    1
   139   149   146    1
   140    92    91    1
   141   138   139    1
   142    86    83    1
   143   145   146    1
   144   145   140   am
   145    74    73    2
   146   139   140    1
   147    83    82    1
   148    83    84    1
   149   146   147    1
   150   140   141    2
   151   147   148    2
   152    84    85    2
