@<TRIPOS>MOLECULE
tmp/3fukA00.pdb
 182 178 0 0 0
SMALL
GASTEIGER

@<TRIPOS>ATOM
      1  N        -35.9060    2.3770   -8.6390 N.3   132  GLN132     -0.1245
      2  CA       -35.3330    1.8750   -7.3940 C.3   132  GLN132      0.1566
      3  C        -34.1640    2.8040   -7.0230 C.2   132  GLN132      0.2260
      4  O        -33.0770    2.7060   -7.6150 O.2   132  GLN132     -0.2867
      5  CB       -34.8700    0.4190   -7.5620 C.3   132  GLN132      0.0367
      6  CG       -34.0440   -0.1220   -6.3900 C.3   132  GLN132      0.0905
      7  CD       -34.8120   -0.0360   -5.0890 C.2   132  GLN132      0.2608
      8  OE1      -34.3690    0.5960   -4.1290 O.2   132  GLN132     -0.2717
      9  NE2      -35.9930   -0.6370   -5.0680 N.am  132  GLN132     -0.0878
     10  N        -32.7430    3.4760   -3.7580 N.3   134  GLN134     -0.1231
     11  CA       -31.8210    3.0990   -2.6910 C.3   134  GLN134      0.1698
     12  C        -30.6490    2.3140   -3.3020 C.2   134  GLN134      0.2592
     13  O        -30.8840    1.3860   -4.0820 O.2   134  GLN134     -0.2718
     14  CB       -32.5500    2.2890   -1.6060 C.3   134  GLN134      0.0381
     15  CG       -31.9390    2.4440   -0.2230 C.3   134  GLN134      0.0905
     16  CD       -32.4630    1.4480    0.8160 C.2   134  GLN134      0.2608
     17  OE1      -32.8090    0.3210    0.4960 O.2   134  GLN134     -0.2717
     18  NE2      -32.4800    1.8630    2.0680 N.am  134  GLN134     -0.0878
     19  N        -29.4000    2.6620   -2.9680 N.am  135  ALA135     -0.1980
     20  CA       -29.0490    3.7210   -1.9970 C.3   135  ALA135      0.1597
     21  C        -28.9300    5.1000   -2.6160 C.2   135  ALA135      0.2287
     22  O        -29.4690    6.0890   -2.0730 O.2   135  ALA135     -0.2864
     23  CB       -27.7230    3.3690   -1.2820 C.3   135  ALA135      0.0319
     24  N        -35.1270   -6.6150   -5.6100 N.3   265  TYR265     -0.1227
     25  CA       -35.1520   -6.9850   -4.1920 C.3   265  TYR265      0.1736
     26  C        -36.4720   -7.6370   -3.7890 C.2   265  TYR265      0.2596
     27  O        -37.4640   -7.5660   -4.5270 O.2   265  TYR265     -0.2718
     28  CB       -34.8950   -5.7420   -3.3290 C.3   265  TYR265      0.0548
     29  CG       -33.5740   -5.0740   -3.6500 C.ar  265  TYR265     -0.0200
     30  CD1      -32.3860   -5.5420   -3.0800 C.ar  265  TYR265     -0.0009
     31  CD2      -33.5060   -4.0040   -4.5390 C.ar  265  TYR265     -0.0009
     32  CE1      -31.1700   -4.9490   -3.3760 C.ar  265  TYR265      0.0417
     33  CE2      -32.2840   -3.4010   -4.8500 C.ar  265  TYR265      0.0417
     34  CZ       -31.1270   -3.8810   -4.2540 C.ar  265  TYR265      0.1957
     35  OH       -29.9140   -3.3020   -4.5310 O.3   265  TYR265     -0.2866
     36  N        -36.4820   -8.2510   -2.6090 N.am  266  GLY266     -0.1942
     37  CA       -37.7100   -8.8210   -2.0390 C.3   266  GLY266      0.2014
     38  C        -38.7910   -7.7550   -1.8920 C.2   266  GLY266      0.2639
     39  O        -39.9650   -7.9740   -2.2320 O.2   266  GLY266     -0.2714
     40  N        -38.3830   -6.5820   -1.3970 N.am  267  GLY267     -0.1939
     41  CA       -39.3060   -5.4610   -1.2840 C.3   267  GLY267      0.2014
     42  C        -38.5330   -4.1560   -1.2060 C.2   267  GLY267      0.2639
     43  O        -37.3150   -4.1640   -1.1240 O.2   267  GLY267     -0.2714
     44  N        -39.2330   -3.0350   -1.2550 N.am  268  MET268     -0.1963
     45  CA       -38.5950   -1.7340   -1.0240 C.3   268  MET268      0.1736
     46  C        -39.6260   -0.8670   -0.3280 C.2   268  MET268      0.2616
     47  O        -40.7590   -0.7350   -0.8060 O.2   268  MET268     -0.2715
     48  CB       -38.0600   -1.0890   -2.3190 C.3   268  MET268      0.0427
     49  CG       -37.4990    0.3330   -2.0930 C.3   268  MET268      0.0599
     50  SD       -36.0430    0.2220   -1.0460 S.3   268  MET268     -0.1393
     51  CE       -36.0790    1.8600   -0.2320 C.3   268  MET268      0.0692
     52  N        -39.2350   -0.3050    0.8210 N.am  269  GLU269     -0.1977
     53  CA       -40.1690    0.3320    1.7600 C.3   269  GLU269      0.1602
     54  C        -40.6370    1.7340    1.3110 C.2   269  GLU269      0.2287
     55  O        -40.6770    2.6710    2.1230 O.2   269  GLU269     -0.2864
     56  CB       -39.4950    0.4260    3.1390 C.3   269  GLU269      0.0415
     57  CG       -38.2000    1.3170    3.1600 C.3   269  GLU269      0.1163
     58  CD       -36.8940    0.5390    3.0350 C.2   269  GLU269      0.3649
     59  OE1      -35.8870    0.9880    3.6480 O.co2 269  GLU269     -0.2457
     60  OE2      -36.8530   -0.5230    2.3410 O.co2 269  GLU269     -0.2457
     61  N        -41.4620   -7.0550    7.1420 N.3   293  HIS293     -0.1226
     62  CA       -40.2350   -6.2840    7.0600 C.3   293  HIS293      0.1752
     63  C        -40.5080   -4.8990    6.4650 C.2   293  HIS293      0.2595
     64  O        -40.0890   -3.8790    7.0210 O.2   293  HIS293     -0.2718
     65  CB       -39.2120   -7.0300    6.1900 C.3   293  HIS293      0.0759
     66  CG       -37.8760   -6.3540    6.1120 C.ar  293  HIS293      0.0818
     67  ND1      -36.8450   -6.6540    6.9760 N.ar  293  HIS293     -0.2268
     68  CD2      -37.4030   -5.3920    5.2780 C.ar  293  HIS293      0.1154
     69  CE1      -35.7920   -5.9120    6.6700 C.ar  293  HIS293      0.1986
     70  NE2      -36.1110   -5.1270    5.6590 N.ar  293  HIS293     -0.2212
     71  N        -41.2010   -4.8640    5.3250 N.am  294  GLU294     -0.1979
     72  CA       -41.4640   -3.5790    4.6680 C.3   294  GLU294      0.1602
     73  C        -42.3440   -2.6650    5.5210 C.2   294  GLU294      0.2287
     74  O        -42.1090   -1.4600    5.6150 O.2   294  GLU294     -0.2864
     75  CB       -42.0670   -3.7890    3.2790 C.3   294  GLU294      0.0415
     76  CG       -41.1330   -4.5520    2.3280 C.3   294  GLU294      0.1163
     77  CD       -39.7060   -3.9900    2.2540 C.2   294  GLU294      0.3649
     78  OE1      -39.5120   -2.7510    2.3080 O.co2 294  GLU294     -0.2457
     79  OE2      -38.7750   -4.8080    2.1170 O.co2 294  GLU294     -0.2457
     80  N        -40.2130   -0.9630    8.2990 N.3   297  HIS297     -0.1241
     81  CA       -39.4810    0.2280    7.8140 C.3   297  HIS297      0.1621
     82  C        -40.2400    1.5530    7.9110 C.2   297  HIS297      0.2264
     83  O        -39.6200    2.6230    7.8640 O.2   297  HIS297     -0.2867
     84  CB       -39.0700    0.0640    6.3530 C.3   297  HIS297      0.0745
     85  CG       -37.7620   -0.6340    6.1460 C.ar  297  HIS297      0.0817
     86  ND1      -36.5910   -0.2280    6.7560 N.ar  297  HIS297     -0.2268
     87  CD2      -37.4280   -1.6800    5.3510 C.ar  297  HIS297      0.1154
     88  CE1      -35.5960   -1.0010    6.3570 C.ar  297  HIS297      0.1986
     89  NE2      -36.0700   -1.8760    5.4860 N.ar  297  HIS297     -0.2212
     90  N        -24.6960    5.9600    4.5970 N.3   309  TRP309     -0.1241
     91  CA       -24.8360    4.5440    4.2970 C.3   309  TRP309      0.1605
     92  C        -23.8700    3.6760    5.0940 C.2   309  TRP309      0.2264
     93  O        -24.0270    2.4710    5.1380 O.2   309  TRP309     -0.2867
     94  CB       -24.7450    4.3250    2.7900 C.3   309  TRP309      0.0550
     95  CG       -25.8840    5.0330    2.0640 C.ar  309  TRP309      0.0003
     96  CD1      -25.7820    6.0950    1.1970 C.ar  309  TRP309      0.0946
     97  CD2      -27.2800    4.7450    2.1910 C.ar  309  TRP309      0.0152
     98  NE1      -27.0400    6.4830    0.7810 N.ar  309  TRP309     -0.2442
     99  CE2      -27.9750    5.6580    1.3610 C.ar  309  TRP309      0.0810
    100  CE3      -28.0120    3.7960    2.9210 C.ar  309  TRP309      0.0012
    101  CZ2      -29.3880    5.6550    1.2450 C.ar  309  TRP309      0.0191
    102  CZ3      -29.4070    3.7850    2.8090 C.ar  309  TRP309      0.0001
    103  CH2      -30.0790    4.7150    1.9710 C.ar  309  TRP309      0.0015
    104  N        -26.0700    1.9090    7.6790 N.3   312  PHE312     -0.1241
    105  CA       -27.1990    1.1420    7.1050 C.3   312  PHE312      0.1605
    106  C        -27.7410    0.1040    8.0640 C.2   312  PHE312      0.2264
    107  O        -28.9470   -0.1580    8.0730 O.2   312  PHE312     -0.2867
    108  CB       -26.7320    0.4510    5.8140 C.3   312  PHE312      0.0534
    109  CG       -27.8310   -0.1990    4.9930 C.ar  312  PHE312     -0.0203
    110  CD1      -28.9550    0.5200    4.5820 C.ar  312  PHE312     -0.0042
    111  CD2      -27.6920   -1.5220    4.5620 C.ar  312  PHE312     -0.0042
    112  CE1      -29.9550   -0.0840    3.7830 C.ar  312  PHE312     -0.0003
    113  CE2      -28.6720   -2.1390    3.7650 C.ar  312  PHE312     -0.0003
    114  CZ       -29.8070   -1.4250    3.3780 C.ar  312  PHE312     -0.0000
    115  N        -31.6000   -1.5470    8.8640 N.3   316  GLU316     -0.1245
    116  CA       -31.9610   -2.9500    8.5940 C.3   316  GLU316      0.1567
    117  C        -32.0510   -3.8310    9.8090 C.2   316  GLU316      0.2260
    118  O        -32.9990   -4.5860    9.9320 O.2   316  GLU316     -0.2867
    119  CB       -31.0430   -3.5610    7.5320 C.3   316  GLU316      0.0388
    120  CG       -31.0910   -2.7520    6.2400 C.3   316  GLU316      0.1160
    121  CD       -32.4820   -2.7360    5.6240 C.2   316  GLU316      0.3649
    122  OE1      -33.2840   -3.6450    5.9150 O.co2 316  GLU316     -0.2457
    123  OE2      -32.7790   -1.8390    4.8290 O.co2 316  GLU316     -0.2457
    124  N        -19.6500    0.0410    8.3560 N.3   365  VAL365     -0.1245
    125  CA       -18.6940   -0.0910    7.2660 C.3   365  VAL365      0.1561
    126  C        -18.2050    1.2910    6.8330 C.2   365  VAL365      0.2260
    127  O        -18.8170    2.2980    7.1800 O.2   365  VAL365     -0.2867
    128  CB       -19.3020   -0.8730    6.0650 C.3   365  VAL365      0.0252
    129  CG1      -19.7560   -2.2790    6.5050 C.3   365  VAL365      0.0019
    130  CG2      -20.4560   -0.1120    5.4320 C.3   365  VAL365      0.0019
    131  N        -17.6680    3.3190    3.5400 N.3   367  LEU367     -0.1245
    132  CA       -17.9960    3.2210    2.1220 C.3   367  LEU367      0.1561
    133  C        -17.2190    4.1650    1.2020 C.2   367  LEU367      0.2260
    134  O        -17.5240    4.2540    0.0170 O.2   367  LEU367     -0.2867
    135  CB       -19.5140    3.3560    1.9140 C.3   367  LEU367      0.0270
    136  CG       -20.2960    2.1440    2.4420 C.3   367  LEU367      0.0019
    137  CD1      -21.7750    2.4280    2.4560 C.3   367  LEU367      0.0001
    138  CD2      -19.9970    0.8610    1.6310 C.3   367  LEU367      0.0001
    139  N        -22.0830    1.3540   -2.8910 N.3   372  PRO372     -0.2102
    140  CA       -22.9600    0.6430   -1.9380 C.3   372  PRO372      0.1504
    141  C        -23.6120   -0.6440   -2.4980 C.2   372  PRO372      0.2575
    142  O        -23.7790   -1.6030   -1.7450 O.2   372  PRO372     -0.2718
    143  CB       -24.0230    1.6860   -1.5870 C.3   372  PRO372      0.0282
    144  CG       -23.3570    2.9840   -1.8280 C.3   372  PRO372      0.0208
    145  CD       -22.4960    2.7580   -3.0520 C.3   372  PRO372      0.0893
    146  N        -23.9320   -0.6740   -3.7960 N.am  373  ASP373     -0.1974
    147  CA       -24.4840   -1.8850   -4.4340 C.3   373  ASP373      0.1708
    148  C        -23.5690   -3.0960   -4.3870 C.2   373  ASP373      0.2293
    149  O        -24.0410   -4.2390   -4.3630 O.2   373  ASP373     -0.2864
    150  CB       -24.8440   -1.6190   -5.8820 C.3   373  ASP373      0.1436
    151  CG       -26.0660   -0.7640   -6.0190 C.2   373  ASP373      0.3671
    152  OD1      -26.9230   -0.7960   -5.1040 O.co2 373  ASP373     -0.2456
    153  OD2      -26.1750   -0.0540   -7.0360 O.co2 373  ASP373     -0.2456
    154  N        -21.2150   -3.4250   -1.9380 N.3   375  ALA375     -0.1231
    155  CA       -21.0720   -3.7280   -0.5170 C.3   375  ALA375      0.1694
    156  C        -22.3060   -4.4180    0.0880 C.2   375  ALA375      0.2592
    157  O        -22.2000   -5.0980    1.1140 O.2   375  ALA375     -0.2718
    158  CB       -20.7440   -2.4450    0.2610 C.3   375  ALA375      0.0304
    159  N        -23.4620   -4.2150   -0.5280 N.am  376  TYR376     -0.1976
    160  CA       -24.7410   -4.7810   -0.0550 C.3   376  TYR376      0.1639
    161  C        -24.6990   -6.3070    0.2230 C.2   376  TYR376      0.2290
    162  O        -24.2330   -7.0760   -0.6080 O.2   376  TYR376     -0.2864
    163  CB       -25.8490   -4.4460   -1.0610 C.3   376  TYR376      0.0560
    164  CG       -27.2180   -4.9110   -0.5960 C.ar  376  TYR376     -0.0198
    165  CD1      -27.9270   -4.2150    0.3870 C.ar  376  TYR376     -0.0009
    166  CD2      -27.7780   -6.0710   -1.1180 C.ar  376  TYR376     -0.0009
    167  CE1      -29.1770   -4.6650    0.8140 C.ar  376  TYR376      0.0417
    168  CE2      -29.0080   -6.5180   -0.7060 C.ar  376  TYR376      0.0417
    169  CZ       -29.7020   -5.8210    0.2620 C.ar  376  TYR376      0.1957
    170  OH       -30.9330   -6.3150    0.6610 O.3   376  TYR376     -0.2866
    171  N        -28.2400   -6.6230    8.0250 N.3   381  TYR381     -0.1241
    172  CA       -29.5190   -7.2290    8.4420 C.3   381  TYR381      0.1605
    173  C        -29.3340   -8.1720    9.6330 C.2   381  TYR381      0.2264
    174  O        -30.0080   -8.0310   10.6560 O.2   381  TYR381     -0.2867
    175  CB       -30.1320   -8.0550    7.3000 C.3   381  TYR381      0.0534
    176  CG       -30.5770   -7.2610    6.1020 C.ar  381  TYR381     -0.0201
    177  CD1      -29.6630   -6.8260    5.1470 C.ar  381  TYR381     -0.0009
    178  CD2      -31.9220   -6.9690    5.9140 C.ar  381  TYR381     -0.0009
    179  CE1      -30.0860   -6.0850    4.0270 C.ar  381  TYR381      0.0417
    180  CE2      -32.3550   -6.2510    4.8070 C.ar  381  TYR381      0.0417
    181  CZ       -31.4260   -5.8020    3.8740 C.ar  381  TYR381      0.1957
    182  OH       -31.8640   -5.0860    2.7830 O.3   381  TYR381     -0.2866
@<TRIPOS>BOND
     1     1     2    1
     2     4     3    2
     3     5     2    1
     4     5     6    1
     5     2     3    1
     6   153   151   ar
     7     6     7    1
     8   151   150    1
     9   151   152   ar
    10   150   147    1
    11    24    25    1
    12     7     9   am
    13     7     8    2
    14    33    31   ar
    15    33    34   ar
    16    31    29   ar
    17    35    34    1
    18    27    26    2
    19   147   148    1
    20   147   146    1
    21   148   149    2
    22    34    32   ar
    23    25    26    1
    24    25    28    1
    25    13    12    2
    26   146   141   am
    27    26    36   am
    28    10    11    1
    29    29    28    1
    30    29    30   ar
    31    32    30   ar
    32    12    19   am
    33    12    11    1
    34   145   139    1
    35   145   144    1
    36    19    20    1
    37   139   140    1
    38    11    14    1
    39    21    22    2
    40    21    20    1
    41    36    37    1
    42   141   140    1
    43   141   142    2
    44    48    49    1
    45    48    45    1
    46    39    38    2
    47    49    50    1
    48    37    38    1
    49    20    23    1
    50   140   143    1
    51   154   155    1
    52    38    40   am
    53   144   143    1
    54    14    15    1
    55    40    41    1
    56    41    42    1
    57    44    42   am
    58    44    45    1
    59    42    43    2
    60   166   168   ar
    61   166   164   ar
    62   163   164    1
    63   163   160    1
    64    50    51    1
    65    45    46    1
    66    47    46    2
    67   168   169   ar
    68   162   161    2
    69   164   165   ar
    70   159   160    1
    71   159   156   am
    72   155   156    1
    73   155   158    1
    74    46    52   am
    75    15    16    1
    76   160   161    1
    77   134   133    2
    78   156   157    2
    79   169   170    1
    80   169   167   ar
    81   165   167   ar
    82    17    16    2
    83    98    96   ar
    84    98    99   ar
    85    16    18   am
    86    52    53    1
    87    96    95   ar
    88   133   132    1
    89   101    99   ar
    90   101   103   ar
    91    54    53    1
    92    54    55    2
    93    99    97   ar
    94   138   136    1
    95    53    56    1
    96   135   132    1
    97   135   136    1
    98   103   102   ar
    99    95    97   ar
   100    95    94    1
   101    79    77   ar
   102   132   131    1
   103    97   100   ar
   104    77    78   ar
   105    77    76    1
   106    76    75    1
   107    60    58   ar
   108   136   137    1
   109   182   181    1
   110    94    91    1
   111   102   100   ar
   112    58    57    1
   113    58    59   ar
   114    56    57    1
   115    75    72    1
   116   114   113   ar
   117   114   112   ar
   118   113   111   ar
   119   112   110   ar
   120   181   179   ar
   121   181   180   ar
   122   179   177   ar
   123    91    90    1
   124    91    92    1
   125   111   109   ar
   126   110   109   ar
   127    72    71    1
   128    72    73    1
   129   180   178   ar
   130   123   121   ar
   131   109   108    1
   132    92    93    2
   133   177   176   ar
   134    68    70   ar
   135    68    66   ar
   136    71    63   am
   137    87    89   ar
   138    87    85   ar
   139   130   128    1
   140    89    88   ar
   141    73    74    2
   142   121   122   ar
   143   121   120    1
   144    70    69   ar
   145   108   105    1
   146   178   176   ar
   147   128   129    1
   148   128   125    1
   149   176   175    1
   150    66    65    1
   151    66    67   ar
   152    85    84    1
   153    85    86   ar
   154    65    62    1
   155   120   119    1
   156    84    81    1
   157    88    86   ar
   158    63    64    2
   159    63    62    1
   160    69    67   ar
   161   126   127    2
   162   126   125    1
   163    62    61    1
   164   105   104    1
   165   105   106    1
   166   125   124    1
   167   175   172    1
   168   119   116    1
   169    81    82    1
   170    81    80    1
   171    83    82    2
   172   171   172    1
   173   106   107    2
   174   172   173    1
   175   116   115    1
   176   116   117    1
   177   173   174    2
   178   117   118    2
