@<TRIPOS>MOLECULE
tmp/3fumA00.pdb
 212 209 0 0 0
SMALL
GASTEIGER

@<TRIPOS>ATOM
      1  N        -35.5770   -2.4310    8.6030 N.3   130  GLN130     -0.1245
      2  CA       -35.0390   -1.9580    7.3390 C.3   130  GLN130      0.1566
      3  C        -33.8480   -2.8350    6.9090 C.2   130  GLN130      0.2260
      4  O        -32.7400   -2.7110    7.4360 O.2   130  GLN130     -0.2867
      5  CB       -34.6840   -0.4560    7.3570 C.3   130  GLN130      0.0367
      6  CG       -34.9130    0.2520    5.9840 C.3   130  GLN130      0.0905
      7  CD       -34.0270   -0.2840    4.9360 C.2   130  GLN130      0.2608
      8  OE1      -34.4980   -0.7600    3.9080 O.2   130  GLN130     -0.2717
      9  NE2      -32.7140   -0.2390    5.1760 N.am  130  GLN130     -0.0878
     10  N        -32.4160   -3.4860    3.6560 N.3   132  GLN132     -0.1231
     11  CA       -31.5080   -3.1250    2.5900 C.3   132  GLN132      0.1698
     12  C        -30.3170   -2.3450    3.2070 C.2   132  GLN132      0.2592
     13  O        -30.5300   -1.4370    3.9880 O.2   132  GLN132     -0.2718
     14  CB       -32.2360   -2.2850    1.5120 C.3   132  GLN132      0.0381
     15  CG       -31.3980   -2.1150    0.2320 C.3   132  GLN132      0.0905
     16  CD       -32.0620   -1.2780   -0.8200 C.2   132  GLN132      0.2608
     17  OE1      -32.3010   -0.1030   -0.6180 O.2   132  GLN132     -0.2717
     18  NE2      -32.3750   -1.8770   -1.9520 N.am  132  GLN132     -0.0878
     19  N        -29.0760   -2.6940    2.8710 N.am  133  ALA133     -0.1980
     20  CA       -28.7590   -3.7070    1.8970 C.3   133  ALA133      0.1597
     21  C        -28.6000   -5.0930    2.5460 C.2   133  ALA133      0.2287
     22  O        -29.1840   -6.0960    2.0810 O.2   133  ALA133     -0.2864
     23  CB       -27.4770   -3.2860    1.1820 C.3   133  ALA133      0.0319
     24  N        -34.9820    6.9180    5.7010 N.3   263  TYR263     -0.1241
     25  CA       -35.0390    7.1400    4.2410 C.3   263  TYR263      0.1605
     26  C        -36.3430    7.8030    3.7770 C.2   263  TYR263      0.2264
     27  O        -37.3480    7.7670    4.4970 O.2   263  TYR263     -0.2867
     28  CB       -34.8200    5.8310    3.4830 C.3   263  TYR263      0.0534
     29  CG       -33.5300    5.0860    3.8740 C.ar  263  TYR263     -0.0201
     30  CD1      -32.3310    5.4900    3.3530 C.ar  263  TYR263     -0.0009
     31  CD2      -33.5310    4.0040    4.7370 C.ar  263  TYR263     -0.0009
     32  CE1      -31.1410    4.9060    3.6830 C.ar  263  TYR263      0.0417
     33  CE2      -32.3050    3.3690    5.0740 C.ar  263  TYR263      0.0417
     34  CZ       -31.1120    3.8400    4.5100 C.ar  263  TYR263      0.1957
     35  OH       -29.8440    3.3140    4.7160 O.3   263  TYR263     -0.2866
     36  N        -38.0310    6.6270    1.3450 N.3   265  GLY265     -0.1210
     37  CA       -38.9070    5.4750    1.0950 C.3   265  GLY265      0.1956
     38  C        -38.1470    4.1570    0.9770 C.2   265  GLY265      0.2612
     39  O        -36.9500    4.1400    0.7540 O.2   265  GLY265     -0.2717
     40  N        -38.8460    3.0490    1.1200 N.am  266  MET266     -0.1965
     41  CA       -38.2680    1.7190    0.9640 C.3   266  MET266      0.1736
     42  C        -39.3490    0.8440    0.3530 C.2   266  MET266      0.2616
     43  O        -40.4390    0.7020    0.9220 O.2   266  MET266     -0.2715
     44  CB       -37.7790    1.1660    2.3010 C.3   266  MET266      0.0427
     45  CG       -37.1250   -0.2700    2.1700 C.3   266  MET266      0.0599
     46  SD       -35.7140   -0.3020    1.0550 S.3   266  MET266     -0.1393
     47  CE       -36.0240   -1.8480    0.1390 C.3   266  MET266      0.0692
     48  N        -39.0510    0.3260   -0.8450 N.am  267  GLU267     -0.1977
     49  CA       -40.0100   -0.2960   -1.7770 C.3   267  GLU267      0.1602
     50  C        -40.3730   -1.7250   -1.3670 C.2   267  GLU267      0.2287
     51  O        -40.4950   -2.6250   -2.2090 O.2   267  GLU267     -0.2864
     52  CB       -39.3770   -0.3010   -3.1880 C.3   267  GLU267      0.0415
     53  CG       -38.1450   -1.2400   -3.2920 C.3   267  GLU267      0.1163
     54  CD       -36.7230   -0.5980   -3.1130 C.2   267  GLU267      0.3649
     55  OE1      -36.5330    0.4650   -2.4800 O.co2 267  GLU267     -0.2457
     56  OE2      -35.7500   -1.2420   -3.5740 O.co2 267  GLU267     -0.2457
     57  N        -24.5700   -5.9460   -4.7010 N.3   307  TRP307     -0.1227
     58  CA       -24.7070   -4.5240   -4.3970 C.3   307  TRP307      0.1737
     59  C        -23.7530   -3.6380   -5.2010 C.2   307  TRP307      0.2595
     60  O        -23.8820   -2.4090   -5.2010 O.2   307  TRP307     -0.2718
     61  CB       -24.5180   -4.3300   -2.8810 C.3   307  TRP307      0.0564
     62  CG       -25.6110   -5.0390   -2.1750 C.ar  307  TRP307      0.0003
     63  CD1      -25.5090   -6.1260   -1.3590 C.ar  307  TRP307      0.0946
     64  CD2      -27.0110   -4.7180   -2.2640 C.ar  307  TRP307      0.0152
     65  NE1      -26.7790   -6.5160   -0.9350 N.ar  307  TRP307     -0.2442
     66  CE2      -27.7100   -5.6650   -1.4780 C.ar  307  TRP307      0.0810
     67  CE3      -27.7360   -3.7000   -2.9160 C.ar  307  TRP307      0.0012
     68  CZ2      -29.1200   -5.6430   -1.3370 C.ar  307  TRP307      0.0191
     69  CZ3      -29.1270   -3.6870   -2.7960 C.ar  307  TRP307      0.0001
     70  CH2      -29.8030   -4.6560   -2.0000 C.ar  307  TRP307      0.0015
     71  N        -22.7960   -4.2590   -5.8910 N.am  308  ASP308     -0.1974
     72  CA       -21.9220   -3.5430   -6.7870 C.3   308  ASP308      0.1709
     73  C        -22.7250   -3.0160   -7.9580 C.2   308  ASP308      0.2293
     74  O        -22.2430   -2.1350   -8.6750 O.2   308  ASP308     -0.2864
     75  CB       -20.8520   -4.4650   -7.3540 C.3   308  ASP308      0.1436
     76  CG       -19.8130   -4.8970   -6.3430 C.2   308  ASP308      0.3671
     77  OD1      -19.8330   -4.4920   -5.1580 O.co2 308  ASP308     -0.2456
     78  OD2      -18.9220   -5.6660   -6.7720 O.co2 308  ASP308     -0.2456
     79  N        -26.0720   -2.0040   -7.7830 N.3   310  PHE310     -0.1227
     80  CA       -27.1590   -1.2280   -7.2350 C.3   310  PHE310      0.1736
     81  C        -27.6650   -0.2060   -8.2200 C.2   310  PHE310      0.2595
     82  O        -28.8740    0.0050   -8.3110 O.2   310  PHE310     -0.2718
     83  CB       -26.6250   -0.5500   -5.9670 C.3   310  PHE310      0.0547
     84  CG       -27.6530    0.1980   -5.1510 C.ar  310  PHE310     -0.0202
     85  CD1      -28.8550   -0.4120   -4.7700 C.ar  310  PHE310     -0.0042
     86  CD2      -27.3680    1.4920   -4.6630 C.ar  310  PHE310     -0.0042
     87  CE1      -29.7830    0.2710   -3.9670 C.ar  310  PHE310     -0.0003
     88  CE2      -28.3150    2.2000   -3.8690 C.ar  310  PHE310     -0.0003
     89  CZ       -29.5130    1.5850   -3.5210 C.ar  310  PHE310     -0.0000
     90  N        -26.7710    0.4580   -8.9640 N.am  311  TRP311     -0.1976
     91  CA       -27.2210    1.4670   -9.9430 C.3   311  TRP311      0.1640
     92  C        -28.3480    0.9340  -10.8560 C.2   311  TRP311      0.2290
     93  O        -29.1560    1.6920  -11.3870 O.2   311  TRP311     -0.2864
     94  CB       -26.0340    2.0200  -10.7750 C.3   311  TRP311      0.0576
     95  CG       -25.6220    1.1570  -12.0320 C.ar  311  TRP311      0.0006
     96  CD1      -24.6840    0.1550  -12.0830 C.ar  311  TRP311      0.0946
     97  CD2      -26.1550    1.2700  -13.3730 C.ar  311  TRP311      0.0152
     98  NE1      -24.6120   -0.3610  -13.3610 N.ar  311  TRP311     -0.2442
     99  CE2      -25.5040    0.2980  -14.1680 C.ar  311  TRP311      0.0810
    100  CE3      -27.1480    2.0820  -13.9660 C.ar  311  TRP311      0.0012
    101  CZ2      -25.7920    0.1270  -15.5440 C.ar  311  TRP311      0.0191
    102  CZ3      -27.4260    1.9330  -15.3260 C.ar  311  TRP311      0.0001
    103  CH2      -26.7580    0.9510  -16.0990 C.ar  311  TRP311      0.0015
    104  N        -31.4780    1.5830   -8.9000 N.3   314  GLU314     -0.1245
    105  CA       -31.7860    3.0130   -8.6780 C.3   314  GLU314      0.1567
    106  C        -31.9190    3.8770   -9.8940 C.2   314  GLU314      0.2260
    107  O        -32.8010    4.7490   -9.9390 O.2   314  GLU314     -0.2867
    108  CB       -30.7850    3.6280   -7.6850 C.3   314  GLU314      0.0388
    109  CG       -30.8050    2.9080   -6.3620 C.3   314  GLU314      0.1160
    110  CD       -32.2270    2.7300   -5.8490 C.2   314  GLU314      0.3649
    111  OE1      -33.1270    3.4920   -6.2610 O.co2 314  GLU314     -0.2457
    112  OE2      -32.4740    1.8390   -5.0370 O.co2 314  GLU314     -0.2457
    113  N        -16.3300    5.6720   -4.5960 N.3   358  PHE358     -0.1241
    114  CA       -17.7790    5.6470   -4.4270 C.3   358  PHE358      0.1605
    115  C        -18.4870    6.4900   -5.4810 C.2   358  PHE358      0.2264
    116  O        -19.7230    6.5480   -5.4720 O.2   358  PHE358     -0.2867
    117  CB       -18.2300    6.1190   -3.0400 C.3   358  PHE358      0.0534
    118  CG       -17.6820    5.2910   -1.8670 C.ar  358  PHE358     -0.0203
    119  CD1      -17.0410    4.0640   -2.0750 C.ar  358  PHE358     -0.0042
    120  CD2      -17.8490    5.7430   -0.5520 C.ar  358  PHE358     -0.0042
    121  CE1      -16.5360    3.3360   -0.9930 C.ar  358  PHE358     -0.0003
    122  CE2      -17.3590    5.0170    0.5210 C.ar  358  PHE358     -0.0003
    123  CZ       -16.7000    3.8140    0.3030 C.ar  358  PHE358     -0.0000
    124  N        -17.8990    6.0020   -8.7530 N.3   360  LYS360     -0.1231
    125  CA       -18.1120    5.0790   -9.8540 C.3   360  LYS360      0.1693
    126  C        -19.5710    4.5720   -9.9820 C.2   360  LYS360      0.2591
    127  O        -20.2890    4.3790   -8.9710 O.2   360  LYS360     -0.2718
    128  CB       -17.1600    3.8880   -9.7020 C.3   360  LYS360      0.0285
    129  CG       -15.6980    4.2560   -9.9010 C.3   360  LYS360      0.0035
    130  CD       -14.8340    3.1570   -9.4370 C.3   360  LYS360      0.0206
    131  CE       -13.3600    3.5070   -9.6380 C.3   360  LYS360      0.1093
    132  NZ       -12.5210    2.2750   -9.7370 N.3   360  LYS360     -0.1314
    133  N        -20.0100    4.2930  -11.2130 N.am  361  LEU361     -0.1980
    134  CA       -21.3490    3.7280  -11.3700 C.3   361  LEU361      0.1596
    135  C        -21.4430    2.2940  -10.8110 C.2   361  LEU361      0.2287
    136  O        -22.3320    1.9700   -9.9740 O.2   361  LEU361     -0.2864
    137  CB       -21.7650    3.7650  -12.8170 C.3   361  LEU361      0.0297
    138  CG       -23.2680    3.6570  -13.1340 C.3   361  LEU361      0.0022
    139  CD1      -24.1720    4.6080  -12.2860 C.3   361  LEU361      0.0001
    140  CD2      -23.4330    3.8670  -14.6100 C.3   361  LEU361      0.0001
    141  N        -19.5350   -0.0620   -8.4870 N.3   363  VAL363     -0.1245
    142  CA       -18.5580   -0.0250   -7.4120 C.3   363  VAL363      0.1561
    143  C        -18.0590   -1.4350   -7.0340 C.2   363  VAL363      0.2260
    144  O        -18.5940   -2.4330   -7.4660 O.2   363  VAL363     -0.2867
    145  CB       -19.1780    0.6560   -6.2060 C.3   363  VAL363      0.0252
    146  CG1      -19.4070    2.1330   -6.5330 C.3   363  VAL363      0.0019
    147  CG2      -20.4880   -0.0180   -5.8910 C.3   363  VAL363      0.0019
    148  N        -17.7020   -3.2650   -3.6720 N.3   365  LEU365     -0.1245
    149  CA       -17.9570   -3.1940   -2.2260 C.3   365  LEU365      0.1561
    150  C        -17.2740   -4.2670   -1.3350 C.2   365  LEU365      0.2260
    151  O        -17.7050   -4.5020   -0.2070 O.2   365  LEU365     -0.2867
    152  CB       -19.4640   -3.1980   -1.9900 C.3   365  LEU365      0.0270
    153  CG       -20.2050   -1.9080   -2.3740 C.3   365  LEU365      0.0019
    154  CD1      -21.7210   -2.0900   -2.2770 C.3   365  LEU365      0.0001
    155  CD2      -19.7750   -0.7440   -1.5280 C.3   365  LEU365      0.0001
    156  N        -21.8640   -1.2810    2.8950 N.3   370  PRO370     -0.2102
    157  CA       -22.7060   -0.5920    1.9100 C.3   370  PRO370      0.1504
    158  C        -23.3600    0.6940    2.4700 C.2   370  PRO370      0.2575
    159  O        -23.6790    1.5760    1.7010 O.2   370  PRO370     -0.2718
    160  CB       -23.7890   -1.6470    1.5780 C.3   370  PRO370      0.0282
    161  CG       -23.1580   -2.9710    1.9220 C.3   370  PRO370      0.0208
    162  CD       -22.3590   -2.6500    3.1650 C.3   370  PRO370      0.0893
    163  N        -23.5650    0.7800    3.7920 N.am  371  ASP371     -0.1974
    164  CA       -24.1760    1.9670    4.4190 C.3   371  ASP371      0.1708
    165  C        -23.2540    3.1690    4.4100 C.2   371  ASP371      0.2293
    166  O        -23.7260    4.3070    4.4810 O.2   371  ASP371     -0.2864
    167  CB       -24.6400    1.7030    5.8580 C.3   371  ASP371      0.1436
    168  CG       -25.8630    0.7970    5.9210 C.2   371  ASP371      0.3671
    169  OD1      -26.5470    0.6460    4.8770 O.co2 371  ASP371     -0.2456
    170  OD2      -26.1130    0.2010    7.0020 O.co2 371  ASP371     -0.2456
    171  N        -20.9360    3.5820    1.8520 N.3   373  ALA373     -0.1231
    172  CA       -20.8500    3.8580    0.4080 C.3   373  ALA373      0.1694
    173  C        -22.0970    4.5380   -0.2020 C.2   373  ALA373      0.2592
    174  O        -22.0020    5.1490   -1.2450 O.2   373  ALA373     -0.2718
    175  CB       -20.5480    2.5700   -0.3240 C.3   373  ALA373      0.0304
    176  N        -23.2500    4.4050    0.4500 N.am  374  TYR374     -0.1962
    177  CA       -24.5450    4.8750   -0.0450 C.3   374  TYR374      0.1771
    178  C        -24.5640    6.3860   -0.2610 C.2   374  TYR374      0.2620
    179  O        -24.1140    7.1420    0.6060 O.2   374  TYR374     -0.2715
    180  CB       -25.7020    4.4330    0.9180 C.3   374  TYR374      0.0574
    181  CG       -27.1150    4.9070    0.4950 C.ar  374  TYR374     -0.0198
    182  CD1      -27.7710    4.3200   -0.5840 C.ar  374  TYR374     -0.0009
    183  CD2      -27.7720    5.9520    1.1640 C.ar  374  TYR374     -0.0009
    184  CE1      -29.0150    4.7500   -0.9750 C.ar  374  TYR374      0.0417
    185  CE2      -29.0450    6.3920    0.7750 C.ar  374  TYR374      0.0417
    186  CZ       -29.6470    5.8010   -0.2970 C.ar  374  TYR374      0.1957
    187  OH       -30.9120    6.2060   -0.7140 O.3   374  TYR374     -0.2866
    188  N        -25.1000    6.8160   -1.4110 N.am  375  SER375     -0.1950
    189  CA       -25.2140    8.2250   -1.8010 C.3   375  SER375      0.1924
    190  C        -26.0940    8.3620   -3.0620 C.2   375  SER375      0.2314
    191  O        -26.7570    7.4240   -3.4940 O.2   375  SER375     -0.2863
    192  CB       -23.8550    8.7590   -2.1860 C.3   375  SER375      0.2116
    193  OG       -23.5270    8.3940   -3.5340 O.3   375  SER375     -0.2180
    194  N        -25.4640    6.3240   -7.4710 N.3   378  PRO378     -0.2102
    195  CA       -26.1440    5.2870   -8.2480 C.3   378  PRO378      0.1504
    196  C        -27.4720    5.7300   -8.8300 C.2   378  PRO378      0.2575
    197  O        -27.8700    5.2530   -9.9070 O.2   378  PRO378     -0.2718
    198  CB       -26.3910    4.1510   -7.1940 C.3   378  PRO378      0.0282
    199  CG       -26.1550    4.7920   -5.8760 C.3   378  PRO378      0.0208
    200  CD       -25.0780    5.8050   -6.1450 C.3   378  PRO378      0.0893
    201  N        -28.1570    6.6180   -8.1130 N.am  379  TYR379     -0.1977
    202  CA       -29.4190    7.2530   -8.5530 C.3   379  TYR379      0.1639
    203  C        -29.1990    8.2190   -9.7220 C.2   379  TYR379      0.2290
    204  O        -29.7920    8.0650  -10.7920 O.2   379  TYR379     -0.2864
    205  CB       -30.0140    8.1010   -7.4100 C.3   379  TYR379      0.0560
    206  CG       -30.4540    7.3060   -6.1740 C.ar  379  TYR379     -0.0198
    207  CD1      -29.5400    6.9380   -5.1860 C.ar  379  TYR379     -0.0009
    208  CD2      -31.7950    6.9730   -5.9880 C.ar  379  TYR379     -0.0009
    209  CE1      -29.9550    6.2120   -4.0270 C.ar  379  TYR379      0.0417
    210  CE2      -32.2180    6.2730   -4.8400 C.ar  379  TYR379      0.0417
    211  CZ       -31.2930    5.8950   -3.8650 C.ar  379  TYR379      0.1957
    212  OH       -31.7410    5.1970   -2.7650 O.3   379  TYR379     -0.2866
@<TRIPOS>BOND
     1   103   101   ar
     2   103   102   ar
     3   101    99   ar
     4   102   100   ar
     5   140   138    1
     6    99    97   ar
     7    99    98   ar
     8   100    97   ar
     9    97    95   ar
    10    98    96   ar
    11   138   137    1
    12   138   139    1
    13   137   134    1
    14    96    95   ar
    15    95    94    1
    16    93    92    2
    17   134   133    1
    18   134   135    1
    19   133   126   am
    20    92    91    1
    21   135   136    2
    22   204   203    2
    23    94    91    1
    24   126   125    1
    25   126   127    2
    26    91    90    1
    27   107   106    2
    28   197   196    2
    29   129   128    1
    30   129   130    1
    31   106   105    1
    32   125   128    1
    33   125   124    1
    34   132   131    1
    35   203   202    1
    36   131   130    1
    37    90    81   am
    38   104   105    1
    39   196   195    1
    40   196   201   am
    41   105   108    1
    42    74    73    2
    43   202   201    1
    44   202   205    1
    45   141   142    1
    46    82    81    2
    47   195   194    1
    48   195   198    1
    49    81    80    1
    50    73    72    1
    51    79    80    1
    52   108   109    1
    53   194   200    1
    54   144   143    2
    55   142   143    1
    56   142   145    1
    57   205   206    1
    58    75    72    1
    59    75    76    1
    60    80    83    1
    61   198   199    1
    62    72    71    1
    63    78    76   ar
    64   146   145    1
    65   109   110    1
    66    76    77   ar
    67   111   110   ar
    68   145   147    1
    69   206   208   ar
    70   206   207   ar
    71   200   199    1
    72   208   210   ar
    73    83    84    1
    74    71    59   am
    75   110   112   ar
    76   115   116    2
    77   115   114    1
    78    60    59    2
    79    59    58    1
    80   207   209   ar
    81    84    85   ar
    82    84    86   ar
    83   210   211   ar
    84    85    87   ar
    85    57    58    1
    86    86    88   ar
    87   113   114    1
    88   114   117    1
    89    58    61    1
    90   209   211   ar
    91    87    89   ar
    92    88    89   ar
    93   211   212    1
    94   148   149    1
    95    56    54   ar
    96   193   192    1
    97   191   190    2
    98    53    52    1
    99    53    54    1
   100    52    49    1
   101    54    55   ar
   102   190   189    1
   103   117   118    1
   104    67    69   ar
   105    67    64   ar
   106    61    62    1
   107    69    70   ar
   108   153   154    1
   109   153   152    1
   110   153   155    1
   111    64    62   ar
   112    64    66   ar
   113   149   152    1
   114   149   150    1
   115    51    50    2
   116   192   189    1
   117    62    63   ar
   118   119   118   ar
   119   119   121   ar
   120    70    68   ar
   121    18    16   am
   122   118   120   ar
   123   189   188    1
   124    49    50    1
   125    49    48    1
   126    66    68   ar
   127    66    65   ar
   128   188   178   am
   129    63    65   ar
   130   150   151    2
   131   174   173    2
   132   121   123   ar
   133   184   182   ar
   134   184   186   ar
   135    48    42   am
   136    16    17    2
   137    16    15    1
   138   187   186    1
   139   182   181   ar
   140   120   122   ar
   141   175   172    1
   142   186   185   ar
   143   178   177    1
   144   178   179    2
   145   173   172    1
   146   173   176   am
   147   177   176    1
   148   177   180    1
   149    47    46    1
   150    15    14    1
   151   123   122   ar
   152    42    43    2
   153    42    41    1
   154   172   171    1
   155   181   180    1
   156   181   183   ar
   157    39    38    2
   158   185   183   ar
   159    41    40    1
   160    41    44    1
   161    38    37    1
   162    38    40   am
   163    46    45    1
   164    37    36    1
   165    23    20    1
   166    14    11    1
   167   160   157    1
   168   160   161    1
   169   159   158    2
   170    20    21    1
   171    20    19    1
   172   157   158    1
   173   157   156    1
   174   161   162    1
   175    22    21    2
   176    45    44    1
   177   158   163   am
   178    11    12    1
   179    11    10    1
   180    19    12   am
   181   156   162    1
   182    12    13    2
   183    30    32   ar
   184    30    29   ar
   185    28    29    1
   186    28    25    1
   187    32    34   ar
   188    26    25    1
   189    26    27    2
   190   163   164    1
   191    29    31   ar
   192     8     7    2
   193    25    24    1
   194   165   164    1
   195   165   166    2
   196   164   167    1
   197    34    35    1
   198    34    33   ar
   199    31    33   ar
   200   169   168   ar
   201     7     9   am
   202     7     6    1
   203   167   168    1
   204   168   170   ar
   205     6     5    1
   206     3     2    1
   207     3     4    2
   208     2     5    1
   209     2     1    1
