@<TRIPOS>MOLECULE
tmp/3funA00.pdb
 219 216 0 0 0
SMALL
GASTEIGER

@<TRIPOS>ATOM
      1  N        -35.4730    2.4010   -8.5710 N.3   131  GLN131     -0.1245
      2  CA       -34.9540    1.8060   -7.3330 C.3   131  GLN131      0.1566
      3  C        -33.7500    2.6600   -6.9430 C.2   131  GLN131      0.2260
      4  O        -32.6100    2.3970   -7.3500 O.2   131  GLN131     -0.2867
      5  CB       -34.5830    0.3310   -7.5390 C.3   131  GLN131      0.0367
      6  CG       -34.8740   -0.5770   -6.3230 C.3   131  GLN131      0.0905
      7  CD       -33.9500   -0.3890   -5.1050 C.2   131  GLN131      0.2608
      8  OE1      -34.3330   -0.7460   -4.0010 O.2   131  GLN131     -0.2717
      9  NE2      -32.7250    0.1020   -5.3070 N.am  131  GLN131     -0.0878
     10  N        -32.4160    3.3540   -3.8850 N.3   133  GLN133     -0.1231
     11  CA       -31.5430    3.0270   -2.7350 C.3   133  GLN133      0.1698
     12  C        -30.3540    2.2080   -3.2150 C.2   133  GLN133      0.2592
     13  O        -30.5660    1.2770   -3.9760 O.2   133  GLN133     -0.2718
     14  CB       -32.3400    2.2580   -1.6660 C.3   133  GLN133      0.0381
     15  CG       -31.5810    2.1300   -0.3700 C.3   133  GLN133      0.0905
     16  CD       -32.2960    1.3090    0.6620 C.2   133  GLN133      0.2608
     17  OE1      -32.9880    0.3460    0.3290 O.2   133  GLN133     -0.2717
     18  NE2      -32.1400    1.6780    1.9300 N.am  133  GLN133     -0.0878
     19  N        -29.1070    2.5410   -2.8370 N.am  134  ALA134     -0.1980
     20  CA       -28.7490    3.6260   -1.9090 C.3   134  ALA134      0.1597
     21  C        -28.5850    4.9940   -2.5850 C.2   134  ALA134      0.2287
     22  O        -29.1370    5.9910   -2.0820 O.2   134  ALA134     -0.2864
     23  CB       -27.4230    3.2430   -1.1850 C.3   134  ALA134      0.0319
     24  N        -34.8230   -6.7690   -5.8680 N.3   264  TYR264     -0.1241
     25  CA       -34.8080   -7.0930   -4.4460 C.3   264  TYR264      0.1605
     26  C        -36.1290   -7.6860   -3.9620 C.2   264  TYR264      0.2264
     27  O        -37.1230   -7.6530   -4.6830 O.2   264  TYR264     -0.2867
     28  CB       -34.4820   -5.8360   -3.6430 C.3   264  TYR264      0.0534
     29  CG       -33.1910   -5.1810   -4.0640 C.ar  264  TYR264     -0.0201
     30  CD1      -31.9760   -5.6560   -3.5880 C.ar  264  TYR264     -0.0009
     31  CD2      -33.1900   -4.0930   -4.9320 C.ar  264  TYR264     -0.0009
     32  CE1      -30.7730   -5.0690   -3.9640 C.ar  264  TYR264      0.0417
     33  CE2      -31.9880   -3.5030   -5.3150 C.ar  264  TYR264      0.0417
     34  CZ       -30.7950   -3.9940   -4.8280 C.ar  264  TYR264      0.1957
     35  OH       -29.5780   -3.4160   -5.1720 O.3   264  TYR264     -0.2866
     36  N        -37.9750   -6.5320   -1.4820 N.3   266  GLY266     -0.1210
     37  CA       -38.9070   -5.4450   -1.2380 C.3   266  GLY266      0.1956
     38  C        -38.1770   -4.1360   -1.0740 C.2   266  GLY266      0.2612
     39  O        -36.9760   -4.1070   -0.7640 O.2   266  GLY266     -0.2717
     40  N        -38.9120   -3.0500   -1.2790 N.am  267  MET267     -0.1965
     41  CA       -38.3790   -1.7290   -1.0130 C.3   267  MET267      0.1736
     42  C        -39.4630   -0.9500   -0.2980 C.2   267  MET267      0.2616
     43  O        -40.6010   -0.8530   -0.7820 O.2   267  MET267     -0.2715
     44  CB       -38.0010   -1.0140   -2.3140 C.3   267  MET267      0.0427
     45  CG       -37.5220    0.4410   -2.0970 C.3   267  MET267      0.0599
     46  SD       -35.9950    0.4820   -1.0910 S.3   267  MET267     -0.1393
     47  CE       -36.0950    2.0850   -0.2950 C.3   267  MET267      0.0692
     48  N        -39.0840   -0.3650    0.8240 N.am  268  GLU268     -0.1977
     49  CA       -40.0260    0.2450    1.7650 C.3   268  GLU268      0.1602
     50  C        -40.4750    1.6620    1.3180 C.2   268  GLU268      0.2287
     51  O        -40.5410    2.5970    2.1260 O.2   268  GLU268     -0.2864
     52  CB       -39.3930    0.2800    3.1690 C.3   268  GLU268      0.0415
     53  CG       -38.1390    1.1730    3.2780 C.3   268  GLU268      0.1163
     54  CD       -36.8080    0.4770    2.9820 C.2   268  GLU268      0.3649
     55  OE1      -36.7420   -0.5430    2.2460 O.co2 268  GLU268     -0.2457
     56  OE2      -35.7870    1.0250    3.4820 O.co2 268  GLU268     -0.2457
     57  N        -24.5620    6.0310    4.7170 N.3   308  TRP308     -0.1227
     58  CA       -24.6970    4.6020    4.4550 C.3   308  TRP308      0.1737
     59  C        -23.7590    3.7590    5.3300 C.2   308  TRP308      0.2595
     60  O        -23.9530    2.5580    5.4660 O.2   308  TRP308     -0.2718
     61  CB       -24.5490    4.3030    2.9510 C.3   308  TRP308      0.0564
     62  CG       -25.6760    4.9950    2.2030 C.ar  308  TRP308      0.0003
     63  CD1      -25.5770    6.0730    1.3550 C.ar  308  TRP308      0.0946
     64  CD2      -27.0790    4.6960    2.3160 C.ar  308  TRP308      0.0152
     65  NE1      -26.8360    6.4340    0.9010 N.ar  308  TRP308     -0.2442
     66  CE2      -27.7700    5.6150    1.4870 C.ar  308  TRP308      0.0810
     67  CE3      -27.8170    3.7290    3.0170 C.ar  308  TRP308      0.0012
     68  CZ2      -29.1640    5.5960    1.3460 C.ar  308  TRP308      0.0191
     69  CZ3      -29.2260    3.7200    2.9020 C.ar  308  TRP308      0.0001
     70  CH2      -29.8790    4.6530    2.0550 C.ar  308  TRP308      0.0015
     71  N        -22.7440    4.3840    5.9370 N.am  309  ASP309     -0.1974
     72  CA       -21.9000    3.6460    6.8760 C.3   309  ASP309      0.1709
     73  C        -22.7100    3.0620    8.0220 C.2   309  ASP309      0.2293
     74  O        -22.2970    2.0640    8.6230 O.2   309  ASP309     -0.2864
     75  CB       -20.8150    4.5750    7.4420 C.3   309  ASP309      0.1436
     76  CG       -19.7590    4.9480    6.4160 C.2   309  ASP309      0.3671
     77  OD1      -19.7290    4.3990    5.2820 O.co2 309  ASP309     -0.2456
     78  OD2      -18.9210    5.8130    6.7870 O.co2 309  ASP309     -0.2456
     79  N        -25.9380    2.0160    7.8540 N.3   311  PHE311     -0.1227
     80  CA       -27.0620    1.2390    7.2960 C.3   311  PHE311      0.1736
     81  C        -27.6110    0.1840    8.2520 C.2   311  PHE311      0.2595
     82  O        -28.8140   -0.0890    8.2380 O.2   311  PHE311     -0.2718
     83  CB       -26.6000    0.5850    5.9840 C.3   311  PHE311      0.0547
     84  CG       -27.6790   -0.1660    5.2120 C.ar  311  PHE311     -0.0202
     85  CD1      -28.9180    0.4280    4.9320 C.ar  311  PHE311     -0.0042
     86  CD2      -27.4490   -1.4520    4.7730 C.ar  311  PHE311     -0.0042
     87  CE1      -29.9070   -0.2830    4.1880 C.ar  311  PHE311     -0.0003
     88  CE2      -28.4220   -2.1470    4.0150 C.ar  311  PHE311     -0.0003
     89  CZ       -29.6390   -1.5590    3.7290 C.ar  311  PHE311     -0.0000
     90  N        -26.7650   -0.4210    9.0940 N.am  312  TRP312     -0.1976
     91  CA       -27.2880   -1.4230   10.0380 C.3   312  TRP312      0.1640
     92  C        -28.3780   -0.8630   10.9520 C.2   312  TRP312      0.2290
     93  O        -29.2160   -1.6150   11.4690 O.2   312  TRP312     -0.2864
     94  CB       -26.1570   -2.0120   10.9060 C.3   312  TRP312      0.0576
     95  CG       -25.8100   -1.1940   12.1010 C.ar  312  TRP312      0.0006
     96  CD1      -24.8740   -0.1860   12.1810 C.ar  312  TRP312      0.0946
     97  CD2      -26.3630   -1.3420   13.4080 C.ar  312  TRP312      0.0152
     98  NE1      -24.8430    0.3100   13.4600 N.ar  312  TRP312     -0.2442
     99  CE2      -25.7390   -0.3850   14.2400 C.ar  312  TRP312      0.0810
    100  CE3      -27.3220   -2.2020   13.9630 C.ar  312  TRP312      0.0012
    101  CZ2      -26.0590   -0.2480   15.5990 C.ar  312  TRP312      0.0191
    102  CZ3      -27.6460   -2.0770   15.3290 C.ar  312  TRP312      0.0001
    103  CH2      -27.0090   -1.1040   16.1320 C.ar  312  TRP312      0.0015
    104  N        -31.4720   -1.5440    9.1130 N.3   315  GLU315     -0.1245
    105  CA       -31.8630   -2.9540    8.8730 C.3   315  GLU315      0.1567
    106  C        -31.9360   -3.8030   10.1320 C.2   315  GLU315      0.2260
    107  O        -32.8440   -4.6330   10.2710 O.2   315  GLU315     -0.2867
    108  CB       -30.9260   -3.5970    7.8520 C.3   315  GLU315      0.0388
    109  CG       -30.9520   -2.8630    6.5260 C.3   315  GLU315      0.1160
    110  CD       -32.3680   -2.7820    5.9620 C.2   315  GLU315      0.3649
    111  OE1      -33.1740   -3.6910    6.2510 O.co2 315  GLU315     -0.2457
    112  OE2      -32.6620   -1.8140    5.2470 O.co2 315  GLU315     -0.2457
    113  N        -16.2940   -5.8450    4.8270 N.3   359  PHE359     -0.1241
    114  CA       -17.7500   -5.8210    4.5960 C.3   359  PHE359      0.1605
    115  C        -18.4820   -6.7380    5.5820 C.2   359  PHE359      0.2264
    116  O        -19.6970   -6.9220    5.4560 O.2   359  PHE359     -0.2867
    117  CB       -18.1140   -6.2680    3.1740 C.3   359  PHE359      0.0534
    118  CG       -17.6270   -5.3490    2.0680 C.ar  359  PHE359     -0.0203
    119  CD1      -17.0790   -4.0920    2.3550 C.ar  359  PHE359     -0.0042
    120  CD2      -17.7400   -5.7530    0.7350 C.ar  359  PHE359     -0.0042
    121  CE1      -16.6370   -3.2620    1.3160 C.ar  359  PHE359     -0.0003
    122  CE2      -17.3030   -4.9230   -0.3100 C.ar  359  PHE359     -0.0003
    123  CZ       -16.7600   -3.6800   -0.0090 C.ar  359  PHE359     -0.0000
    124  N        -17.9400   -6.1200    8.9160 N.3   361  LYS361     -0.1231
    125  CA       -18.0910   -5.2350   10.0640 C.3   361  LYS361      0.1693
    126  C        -19.5440   -4.7590   10.1180 C.2   361  LYS361      0.2591
    127  O        -20.1810   -4.6690    9.0810 O.2   361  LYS361     -0.2718
    128  CB       -17.1960   -4.0140    9.8890 C.3   361  LYS361      0.0285
    129  CG       -15.7040   -4.3590    9.8920 C.3   361  LYS361      0.0035
    130  CD       -14.8850   -3.0980    9.7560 C.3   361  LYS361      0.0206
    131  CE       -13.3960   -3.4170    9.9550 C.3   361  LYS361      0.1093
    132  NZ       -12.5430   -2.1950    9.7160 N.3   361  LYS361     -0.1314
    133  N        -20.0200   -4.3760   11.2980 N.am  362  LEU362     -0.1980
    134  CA       -21.3970   -3.8700   11.4280 C.3   362  LEU362      0.1596
    135  C        -21.4930   -2.4340   10.9550 C.2   362  LEU362      0.2287
    136  O        -22.4760   -2.0530   10.2850 O.2   362  LEU362     -0.2864
    137  CB       -21.8650   -3.9570   12.8700 C.3   362  LEU362      0.0297
    138  CG       -23.3330   -3.5990   13.1480 C.3   362  LEU362      0.0022
    139  CD1      -24.2440   -4.5350   12.3240 C.3   362  LEU362      0.0001
    140  CD2      -23.6300   -3.7220   14.6640 C.3   362  LEU362      0.0001
    141  N        -19.5160    0.1760    8.6330 N.3   364  VAL364     -0.1245
    142  CA       -18.5410    0.0830    7.5480 C.3   364  VAL364      0.1561
    143  C        -18.0220    1.4480    7.1170 C.2   364  VAL364      0.2260
    144  O        -18.5260    2.4820    7.5540 O.2   364  VAL364     -0.2867
    145  CB       -19.1280   -0.6570    6.3370 C.3   364  VAL364      0.0252
    146  CG1      -19.3630   -2.1300    6.7230 C.3   364  VAL364      0.0019
    147  CG2      -20.4080    0.0050    5.8950 C.3   364  VAL364      0.0019
    148  N        -17.5110    3.2530    3.6380 N.3   366  LEU366     -0.1245
    149  CA       -17.7710    3.1530    2.2280 C.3   366  LEU366      0.1561
    150  C        -17.0280    4.1910    1.3780 C.2   366  LEU366      0.2260
    151  O        -17.3900    4.4230    0.2370 O.2   366  LEU366     -0.2867
    152  CB       -19.2790    3.2440    1.9760 C.3   366  LEU366      0.0270
    153  CG       -20.0750    2.0440    2.5200 C.3   366  LEU366      0.0019
    154  CD1      -21.5620    2.3150    2.3630 C.3   366  LEU366      0.0001
    155  CD2      -19.7020    0.7250    1.8310 C.3   366  LEU366      0.0001
    156  N        -21.6890    1.4140   -3.0240 N.3   371  PRO371     -0.2102
    157  CA       -22.6060    0.8470   -2.0500 C.3   371  PRO371      0.1504
    158  C        -23.2090   -0.4870   -2.5060 C.2   371  PRO371      0.2575
    159  O        -23.4410   -1.3640   -1.6770 O.2   371  PRO371     -0.2718
    160  CB       -23.6850    1.9220   -1.9410 C.3   371  PRO371      0.0282
    161  CG       -22.8890    3.2120   -2.1400 C.3   371  PRO371      0.0208
    162  CD       -21.9660    2.8450   -3.2740 C.3   371  PRO371      0.0893
    163  N        -23.4810   -0.6260   -3.8000 N.am  372  ASP372     -0.1974
    164  CA       -24.1490   -1.8510   -4.2840 C.3   372  ASP372      0.1708
    165  C        -23.2520   -3.0750   -4.1660 C.2   372  ASP372      0.2293
    166  O        -23.7360   -4.1960   -4.1330 O.2   372  ASP372     -0.2864
    167  CB       -24.5890   -1.7000   -5.7290 C.3   372  ASP372      0.1436
    168  CG       -25.7370   -0.7210   -5.8840 C.2   372  ASP372      0.3671
    169  OD1      -26.5230   -0.5520   -4.9120 O.co2 372  ASP372     -0.2456
    170  OD2      -25.8190   -0.1140   -6.9730 O.co2 372  ASP372     -0.2456
    171  N        -21.0810   -3.5020   -1.5640 N.3   374  ALA374     -0.1231
    172  CA       -21.0130   -3.8360   -0.1570 C.3   374  ALA374      0.1694
    173  C        -22.2790   -4.5420    0.3260 C.2   374  ALA374      0.2592
    174  O        -22.2690   -5.1740    1.3710 O.2   374  ALA374     -0.2718
    175  CB       -20.8110   -2.5540    0.6850 C.3   374  ALA374      0.0304
    176  N        -23.3770   -4.3630   -0.4060 N.am  375  TYR375     -0.1962
    177  CA       -24.6700   -4.8640    0.0520 C.3   375  TYR375      0.1771
    178  C        -24.6850   -6.3820    0.3000 C.2   375  TYR375      0.2620
    179  O        -24.1920   -7.1640   -0.5080 O.2   375  TYR375     -0.2715
    180  CB       -25.7930   -4.4340   -0.9070 C.3   375  TYR375      0.0574
    181  CG       -27.1520   -4.8890   -0.4350 C.ar  375  TYR375     -0.0198
    182  CD1      -27.8760   -4.1560    0.4970 C.ar  375  TYR375     -0.0009
    183  CD2      -27.7280   -6.0690   -0.9350 C.ar  375  TYR375     -0.0009
    184  CE1      -29.1240   -4.5860    0.9630 C.ar  375  TYR375      0.0417
    185  CE2      -28.9840   -6.5010   -0.4890 C.ar  375  TYR375      0.0417
    186  CZ       -29.6760   -5.7660    0.4700 C.ar  375  TYR375      0.1957
    187  OH       -30.9280   -6.2110    0.9040 O.3   375  TYR375     -0.2866
    188  N        -25.2420   -6.7750    1.4540 N.am  376  SER376     -0.1950
    189  CA       -25.3590   -8.2050    1.8350 C.3   376  SER376      0.1924
    190  C        -26.2500   -8.3460    3.0360 C.2   376  SER376      0.2314
    191  O        -26.7610   -7.3490    3.5570 O.2   376  SER376     -0.2863
    192  CB       -24.0120   -8.8300    2.2140 C.3   376  SER376      0.2116
    193  OG       -23.6380   -8.4820    3.5510 O.3   376  SER376     -0.2180
    194  N        -25.2160   -8.9150    5.9330 N.3   378  VAL378     -0.1231
    195  CA       -24.5220   -8.5980    7.1610 C.3   378  VAL378      0.1678
    196  C        -25.2370   -7.5200    8.0160 C.2   378  VAL378      0.2434
    197  O        -25.4690   -7.7010    9.2050 O.2   378  VAL378     -0.2733
    198  CB       -23.0550   -8.2480    6.9120 C.3   378  VAL378      0.0265
    199  CG1      -22.3960   -7.7120    8.2020 C.3   378  VAL378      0.0020
    200  CG2      -22.2990   -9.5170    6.3970 C.3   378  VAL378      0.0020
    201  N        -25.5790   -6.3720    7.4060 N.am  379  PRO379     -0.2718
    202  CA       -26.2270   -5.3770    8.2640 C.3   379  PRO379      0.1535
    203  C        -27.5650   -5.8490    8.8560 C.2   379  PRO379      0.2598
    204  O        -27.8920   -5.4920    9.9970 O.2   379  PRO379     -0.2715
    205  CB       -26.4360   -4.1860    7.2950 C.3   379  PRO379      0.0310
    206  CG       -26.2860   -4.7390    5.9170 C.3   379  PRO379      0.0237
    207  CD       -25.2470   -5.8250    6.0810 C.3   379  PRO379      0.0939
    208  N        -28.2790   -6.6920    8.1090 N.am  380  TYR380     -0.1974
    209  CA       -29.5310   -7.2560    8.5530 C.3   380  TYR380      0.1639
    210  C        -29.3170   -8.1740    9.7430 C.2   380  TYR380      0.2290
    211  O        -29.9550   -8.0420   10.7760 O.2   380  TYR380     -0.2864
    212  CB       -30.1310   -8.1000    7.4310 C.3   380  TYR380      0.0560
    213  CG       -30.6250   -7.3020    6.2280 C.ar  380  TYR380     -0.0198
    214  CD1      -29.7260   -6.8460    5.2510 C.ar  380  TYR380     -0.0009
    215  CD2      -31.9900   -7.0430    6.0690 C.ar  380  TYR380     -0.0009
    216  CE1      -30.1700   -6.1040    4.1310 C.ar  380  TYR380      0.0417
    217  CE2      -32.4500   -6.3420    4.9660 C.ar  380  TYR380      0.0417
    218  CZ       -31.5390   -5.8500    4.0090 C.ar  380  TYR380      0.1957
    219  OH       -31.9430   -5.1430    2.9090 O.3   380  TYR380     -0.2866
@<TRIPOS>BOND
     1     1     2    1
     2     5     2    1
     3     5     6    1
     4     4     3    2
     5     2     3    1
     6   170   168   ar
     7     6     7    1
     8   168   167    1
     9   168   169   ar
    10    24    25    1
    11   167   164    1
    12    33    31   ar
    13    33    34   ar
    14     9     7   am
    15    35    34    1
    16     7     8    2
    17    31    29   ar
    18    34    32   ar
    19    27    26    2
    20    25    26    1
    21    25    28    1
    22   164   165    1
    23   164   163    1
    24   165   166    2
    25    29    28    1
    26    29    30   ar
    27    13    12    2
    28    32    30   ar
    29    10    11    1
    30   163   158   am
    31   162   156    1
    32   162   161    1
    33    12    19   am
    34    12    11    1
    35   156   157    1
    36    19    20    1
    37    11    14    1
    38    21    22    2
    39    21    20    1
    40   158   157    1
    41   158   159    2
    42    44    45    1
    43    44    41    1
    44   161   160    1
    45    45    46    1
    46   157   160    1
    47    20    23    1
    48    14    15    1
    49   171   172    1
    50    36    37    1
    51    40    38   am
    52    40    41    1
    53    37    38    1
    54    46    47    1
    55    38    39    2
    56    41    42    1
    57   183   185   ar
    58   183   181   ar
    59   180   181    1
    60   180   177    1
    61    43    42    2
    62   179   178    2
    63   185   186   ar
    64   181   182   ar
    65   176   177    1
    66   176   173   am
    67    15    16    1
    68   122   123   ar
    69   122   120   ar
    70    42    48   am
    71   172   173    1
    72   172   175    1
    73   123   121   ar
    74   177   178    1
    75   151   150    2
    76   178   188   am
    77   173   174    2
    78    17    16    2
    79   186   187    1
    80   186   184   ar
    81   182   184   ar
    82    16    18   am
    83   120   118   ar
    84    48    49    1
    85    65    63   ar
    86    65    66   ar
    87   121   119   ar
    88    50    49    1
    89    50    51    2
    90    68    66   ar
    91    68    70   ar
    92    63    62   ar
    93   150   149    1
    94   188   189    1
    95    66    64   ar
    96    49    52    1
    97   155   153    1
    98   189   192    1
    99   189   190    1
   100   152   149    1
   101   152   153    1
   102    70    69   ar
   103   118   119   ar
   104   118   117    1
   105    62    64   ar
   106    62    61    1
   107   192   193    1
   108   149   148    1
   109    55    54   ar
   110    64    67   ar
   111   154   153    1
   112    69    67   ar
   113   219   218    1
   114    61    58    1
   115    54    53    1
   116    54    56   ar
   117   190   191    2
   118    52    53    1
   119   117   114    1
   120    89    88   ar
   121    89    87   ar
   122   218   216   ar
   123   218   217   ar
   124    88    86   ar
   125   216   214   ar
   126    87    85   ar
   127    58    57    1
   128    58    59    1
   129   114   113    1
   130   114   115    1
   131    86    84   ar
   132    85    84   ar
   133   217   215   ar
   134    84    83    1
   135   112   110   ar
   136   214   213   ar
   137    77    76   ar
   138    59    60    2
   139    59    71   am
   140   116   115    2
   141   147   145    1
   142   206   207    1
   143   206   205    1
   144   194   195    1
   145    71    72    1
   146   110   111   ar
   147   110   109    1
   148    83    80    1
   149   215   213   ar
   150   207   201    1
   151   213   212    1
   152   145   146    1
   153   145   142    1
   154   200   198    1
   155    76    78   ar
   156    76    75    1
   157   109   108    1
   158    72    75    1
   159    72    73    1
   160   198   195    1
   161   198   199    1
   162   143   142    1
   163   143   144    2
   164   195   196    1
   165   205   202    1
   166    80    79    1
   167    80    81    1
   168   201   196   am
   169   201   202    1
   170   212   209    1
   171   142   141    1
   172   108   105    1
   173   196   197    2
   174    73    74    2
   175   208   209    1
   176   208   203   am
   177    82    81    2
   178    81    90   am
   179   202   203    1
   180   209   210    1
   181   203   204    2
   182   105   104    1
   183   105   106    1
   184   124   125    1
   185   127   126    2
   186    90    91    1
   187   132   131    1
   188   210   211    2
   189   130   129    1
   190   130   131    1
   191   128   129    1
   192   128   125    1
   193    91    94    1
   194    91    92    1
   195   125   126    1
   196   126   133   am
   197   106   107    2
   198   136   135    2
   199    94    95    1
   200    92    93    2
   201   135   134    1
   202   133   134    1
   203   134   137    1
   204    95    96   ar
   205    95    97   ar
   206    96    98   ar
   207   139   138    1
   208   137   138    1
   209   138   140    1
   210    97   100   ar
   211    97    99   ar
   212    98    99   ar
   213   100   102   ar
   214    99   101   ar
   215   102   103   ar
   216   101   103   ar
