@<TRIPOS>MOLECULE
tmp/3fupB00.pdb
 149 140 0 0 0
SMALL
GASTEIGER

@<TRIPOS>ATOM
      1  N        -18.2660   57.6310  -16.7080 N.3    16  LEU16      -0.1231
      2  CA       -18.3220   56.6960  -15.5670 C.3    16  LEU16       0.1693
      3  C        -18.7580   55.3060  -16.0090 C.2    16  LEU16       0.2593
      4  O        -18.3410   54.3320  -15.4270 O.2    16  LEU16      -0.2718
      5  CB       -19.2840   57.1860  -14.4870 C.3    16  LEU16       0.0284
      6  CG       -18.9970   58.5400  -13.8240 C.3    16  LEU16       0.0019
      7  CD1      -20.1300   59.0990  -12.9540 C.3    16  LEU16       0.0001
      8  CD2      -17.7290   58.5030  -13.0320 C.3    16  LEU16       0.0001
      9  N        -19.6120   55.1870  -17.0230 N.am   17  GLY17      -0.1942
     10  CA       -19.9270   53.8550  -17.5250 C.3    17  GLY17       0.2014
     11  C        -20.9530   53.8570  -18.6100 C.2    17  GLY17       0.2639
     12  O        -21.4800   54.9040  -18.9510 O.2    17  GLY17      -0.2714
     13  N        -21.2280   52.6650  -19.1170 N.am   18  LYS18      -0.1963
     14  CA       -22.1370   52.4230  -20.2320 C.3    18  LYS18       0.1728
     15  C        -23.1370   51.3300  -19.9150 C.2    18  LYS18       0.2616
     16  O        -22.8490   50.4390  -19.1370 O.2    18  LYS18      -0.2715
     17  CB       -21.3520   51.9560  -21.4680 C.3    18  LYS18       0.0311
     18  CG       -21.1200   53.0610  -22.4530 C.3    18  LYS18       0.0038
     19  CD       -21.1010   52.5360  -23.8780 C.3    18  LYS18       0.0206
     20  CE       -21.0360   53.6900  -24.8850 C.3    18  LYS18       0.1093
     21  NZ       -20.8410   53.1500  -26.2680 N.3    18  LYS18      -0.1314
     22  N        -24.3040   51.3930  -20.5480 N.am   19  GLY19      -0.1955
     23  CA       -25.2710   50.3000  -20.5520 C.3    19  GLY19       0.1869
     24  C        -25.4120   49.9190  -22.0180 C.2    19  GLY19       0.2309
     25  O        -24.5360   50.2320  -22.8400 O.2    19  GLY19      -0.2863
     26  N        -27.3350   53.3640  -23.3070 N.3    22  GLY22      -0.1210
     27  CA       -27.1190   54.4970  -22.4340 C.3    22  GLY22       0.1956
     28  C        -25.7850   54.5140  -21.7230 C.2    22  GLY22       0.2613
     29  O        -24.9970   53.5690  -21.8270 O.2    22  GLY22      -0.2717
     30  N        -25.5880   55.5740  -20.9480 N.am   23  SER23      -0.1938
     31  CA       -24.2760   56.0220  -20.5710 C.3    23  SER23       0.2055
     32  C        -24.4130   56.9530  -19.3590 C.2    23  SER23       0.2642
     33  O        -25.3820   57.6940  -19.2500 O.2    23  SER23      -0.2714
     34  CB       -23.7380   56.8060  -21.7890 C.3    23  SER23       0.2130
     35  OG       -22.3820   57.0940  -21.6940 O.3    23  SER23      -0.2179
     36  N        -23.4530   56.8730  -18.4450 N.am   24  VAL24      -0.1977
     37  CA       -23.3120   57.7520  -17.2700 C.3    24  VAL24       0.1596
     38  C        -21.9540   58.5110  -17.2630 C.2    24  VAL24       0.2287
     39  O        -20.8820   57.9430  -17.4720 O.2    24  VAL24      -0.2864
     40  CB       -23.4840   56.9750  -15.9230 C.3    24  VAL24       0.0276
     41  CG1      -23.4440   57.9520  -14.7310 C.3    24  VAL24       0.0022
     42  CG2      -24.8150   56.2090  -15.9090 C.3    24  VAL24       0.0022
     43  N        -23.5910   62.6940  -11.2080 N.3    41  ALA41      -0.1245
     44  CA       -23.6200   61.7360  -12.2560 C.3    41  ALA41       0.1562
     45  C        -24.8550   61.9920  -13.1700 C.2    41  ALA41       0.2260
     46  O        -25.9980   62.1520  -12.7000 O.2    41  ALA41      -0.2867
     47  CB       -23.6230   60.3140  -11.6560 C.3    41  ALA41       0.0290
     48  N        -26.9350   60.3040  -16.2340 N.3    43  LYS43      -0.1245
     49  CA       -27.2770   59.2280  -17.1560 C.3    43  LYS43       0.1561
     50  C        -27.9180   59.7750  -18.4270 C.2    43  LYS43       0.2260
     51  O        -28.9330   60.4700  -18.3730 O.2    43  LYS43      -0.2867
     52  CB       -28.2150   58.2240  -16.4840 C.3    43  LYS43       0.0271
     53  CG       -28.5790   57.0340  -17.3570 C.3    43  LYS43       0.0035
     54  CD       -28.9200   55.8150  -16.5150 C.3    43  LYS43       0.0206
     55  CE       -28.8530   54.5390  -17.3390 C.3    43  LYS43       0.1093
     56  NZ       -29.7410   53.4770  -16.7910 N.3    43  LYS43      -0.1314
     57  N        -29.1510   54.8950   -4.6730 N.3    72  VAL72      -0.1245
     58  CA       -28.6320   56.1240   -5.2980 C.3    72  VAL72       0.1561
     59  C        -29.6950   57.1890   -5.4200 C.2    72  VAL72       0.2260
     60  O        -30.8570   56.9260   -5.7860 O.2    72  VAL72      -0.2867
     61  CB       -27.9130   55.8390   -6.7130 C.3    72  VAL72       0.0252
     62  CG1      -28.9200   55.6360   -7.8530 C.3    72  VAL72       0.0019
     63  CG2      -26.9980   56.9670   -7.1210 C.3    72  VAL72       0.0019
     64  N        -28.1210   62.3250  -11.0300 N.3    86  MET86      -0.1230
     65  CA       -28.0380   61.7050   -9.7130 C.3    86  MET86       0.1702
     66  C        -26.8440   62.2380   -8.9290 C.2    86  MET86       0.2592
     67  O        -25.9720   62.9060   -9.4850 O.2    86  MET86      -0.2718
     68  CB       -27.9470   60.1840   -9.8410 C.3    86  MET86       0.0401
     69  CG       -28.9710   59.5780  -10.7870 C.3    86  MET86       0.0596
     70  SD       -28.5420   57.9030  -11.2980 S.3    86  MET86      -0.1393
     71  CE       -27.4020   58.2400  -12.6370 C.3    86  MET86       0.0692
     72  N        -26.8090   61.9370   -7.6350 N.am   87  GLU87      -0.1966
     73  CA       -25.5970   62.1030   -6.8420 C.3    87  GLU87       0.1733
     74  C        -24.4400   61.3020   -7.4310 C.2    87  GLU87       0.2616
     75  O        -24.6360   60.2110   -7.9660 O.2    87  GLU87      -0.2715
     76  CB       -25.8440   61.6830   -5.3920 C.3    87  GLU87       0.0429
     77  CG       -25.8390   60.1790   -5.1720 C.3    87  GLU87       0.1163
     78  CD       -26.1470   59.7990   -3.7370 C.2    87  GLU87       0.3649
     79  OE1      -26.2200   60.7070   -2.8830 O.co2  87  GLU87      -0.2457
     80  OE2      -26.3160   58.5920   -3.4630 O.co2  87  GLU87      -0.2457
     81  N        -23.2340   61.8510   -7.3270 N.am   88  TYR88      -0.1960
     82  CA       -22.0380   61.1710   -7.8100 C.3    88  TYR88       0.1771
     83  C        -21.3010   60.4780   -6.6690 C.2    88  TYR88       0.2619
     84  O        -20.9850   61.0980   -5.6540 O.2    88  TYR88      -0.2715
     85  CB       -21.1070   62.1610   -8.5130 C.3    88  TYR88       0.0574
     86  CG       -19.6800   61.6760   -8.6380 C.ar   88  TYR88      -0.0198
     87  CD1      -19.3340   60.7100   -9.5730 C.ar   88  TYR88      -0.0009
     88  CD2      -18.6790   62.1860   -7.8220 C.ar   88  TYR88      -0.0009
     89  CE1      -18.0310   60.2640   -9.6910 C.ar   88  TYR88       0.0417
     90  CE2      -17.3730   61.7470   -7.9330 C.ar   88  TYR88       0.0417
     91  CZ       -17.0550   60.7860   -8.8690 C.ar   88  TYR88       0.1957
     92  OH       -15.7570   60.3440   -8.9840 O.3    88  TYR88      -0.2866
     93  N        -21.0320   59.1880   -6.8440 N.am   89  LEU89      -0.1977
     94  CA       -20.3310   58.4070   -5.8310 C.3    89  LEU89       0.1596
     95  C        -18.9510   57.9830   -6.3200 C.2    89  LEU89       0.2287
     96  O        -18.8280   57.1410   -7.2090 O.2    89  LEU89      -0.2864
     97  CB       -21.1520   57.1760   -5.4410 C.3    89  LEU89       0.0297
     98  CG       -22.4960   57.4440   -4.7610 C.3    89  LEU89       0.0022
     99  CD1      -23.2370   56.1400   -4.5040 C.3    89  LEU89       0.0001
    100  CD2      -22.2990   58.2180   -3.4670 C.3    89  LEU89       0.0001
    101  N        -17.1890   54.4430   -7.0350 N.3    92  GLY92      -0.1210
    102  CA       -17.5100   53.7050   -8.2430 C.3    92  GLY92       0.1956
    103  C        -18.2320   52.4040   -7.9540 C.2    92  GLY92       0.2612
    104  O        -18.8110   52.2290   -6.8810 O.2    92  GLY92      -0.2717
    105  N        -18.1970   51.4870   -8.9150 N.am   93  SER93      -0.1952
    106  CA       -18.9820   50.2610   -8.8340 C.3    93  SER93       0.1924
    107  C        -18.4240   49.3190   -7.7730 C.2    93  SER93       0.2314
    108  O        -17.2110   49.2360   -7.5790 O.2    93  SER93      -0.2863
    109  CB       -19.0210   49.5590  -10.1920 C.3    93  SER93       0.2116
    110  OG       -18.0480   48.5310  -10.2630 O.3    93  SER93      -0.2180
    111  N        -21.8390   45.0220  -10.5990 N.3   137  ARG137     -0.1231
    112  CA       -21.5540   46.1250  -11.5070 C.3   137  ARG137      0.1694
    113  C        -22.5820   47.2550  -11.4100 C.2   137  ARG137      0.2592
    114  O        -22.3500   48.3790  -11.9000 O.2   137  ARG137     -0.2718
    115  CB       -21.4770   45.6180  -12.9440 C.3   137  ARG137      0.0321
    116  CG       -22.8020   45.2430  -13.5980 C.3   137  ARG137      0.0489
    117  CD       -22.6760   44.8990  -15.1170 C.3   137  ARG137      0.2205
    118  NE       -24.0080   44.8960  -15.7540 N.pl3 137  ARG137     -0.0865
    119  CZ       -24.8770   43.8760  -15.7340 C.cat 137  ARG137      0.5346
    120  NH1      -24.5940   42.7090  -15.1340 N.pl3 137  ARG137      0.1354
    121  NH2      -26.0490   44.0140  -16.3290 N.pl3 137  ARG137      0.1354
    122  N        -23.7250   46.9580  -10.8080 N.am  138  ASN138     -0.1974
    123  CA       -24.7660   47.9320  -10.6610 C.3   138  ASN138      0.1688
    124  C        -24.9110   48.4760   -9.2530 C.2   138  ASN138      0.2292
    125  O        -25.8950   49.1710   -8.9780 O.2   138  ASN138     -0.2864
    126  CB       -26.0830   47.3500  -11.1520 C.3   138  ASN138      0.1181
    127  CG       -26.1810   47.3820  -12.6580 C.2   138  ASN138      0.2629
    128  OD1      -25.5450   48.2240  -13.3000 O.2   138  ASN138     -0.2716
    129  ND2      -26.9580   46.4610  -13.2350 N.am  138  ASN138     -0.0877
    130  N        -23.2250   50.6390   -6.0680 N.3   140  LEU140     -0.1245
    131  CA       -22.2630   51.7130   -5.9490 C.3   140  LEU140      0.1561
    132  C        -21.7850   51.6810   -4.5510 C.2   140  LEU140      0.2260
    133  O        -22.5340   51.2640   -3.6550 O.2   140  LEU140     -0.2867
    134  CB       -22.9240   53.0400   -6.2330 C.3   140  LEU140      0.0270
    135  CG       -23.3080   53.2310   -7.7120 C.3   140  LEU140      0.0019
    136  CD1      -24.1980   54.4800   -7.8130 C.3   140  LEU140      0.0001
    137  CD2      -22.0400   53.3970   -8.5490 C.3   140  LEU140      0.0001
    138  N        -27.4670   51.2050   -7.7160 N.3   150  GLY150     -0.1210
    139  CA       -27.1220   52.4210   -8.4540 C.3   150  GLY150      0.1956
    140  C        -27.5870   52.5310   -9.8820 C.2   150  GLY150      0.2611
    141  O        -27.2180   53.4800  -10.5940 O.2   150  GLY150     -0.2717
    142  N        -28.4100   51.5890  -10.3300 N.am  151  ASP151     -0.1973
    143  CA       -28.9240   51.7150  -11.6620 C.3   151  ASP151      0.1709
    144  C        -30.2420   51.0350  -11.6870 C.2   151  ASP151      0.2293
    145  O        -30.3970   49.9880  -11.0630 O.2   151  ASP151     -0.2864
    146  CB       -27.9930   51.1280  -12.7480 C.3   151  ASP151      0.1436
    147  CG       -28.4380   51.5470  -14.1760 C.2   151  ASP151      0.3671
    148  OD1      -27.8630   52.5250  -14.7300 O.co2 151  ASP151     -0.2456
    149  OD2      -29.4030   50.9450  -14.7200 O.co2 151  ASP151     -0.2456
@<TRIPOS>BOND
     1    21    20    1
     2    20    19    1
     3    19    18    1
     4    26    27    1
     5    25    24    2
     6    18    17    1
     7    27    28    1
     8    24    23    1
     9    29    28    2
    10    34    35    1
    11    34    31    1
    12    28    30   am
    13    17    14    1
    14    30    31    1
    15    31    32    1
    16    23    22    1
    17    22    15   am
    18    14    15    1
    19    14    13    1
    20    15    16    2
    21    32    33    2
    22    32    36   am
    23    13    11   am
    24    12    11    2
    25    11    10    1
    26    36    37    1
    27    50    51    2
    28    50    49    1
    29    10     9    1
    30    39    38    2
    31    53    54    1
    32    53    52    1
    33    55    56    1
    34    55    54    1
    35    37    38    1
    36    37    40    1
    37    49    52    1
    38    49    48    1
    39     9     3   am
    40     1     2    1
    41   121   119    1
    42     3     2    1
    43     3     4    2
    44    40    42    1
    45    40    41    1
    46   118   119    2
    47   118   117    1
    48   119   120    1
    49     2     5    1
    50   117   116    1
    51   148   147   ar
    52   149   147   ar
    53     5     6    1
    54   147   146    1
    55     6     8    1
    56     6     7    1
    57   116   115    1
    58   128   127    2
    59   129   127   am
    60    45    46    2
    61    45    44    1
    62   115   112    1
    63   146   143    1
    64   127   126    1
    65    71    70    1
    66    44    47    1
    67    44    43    1
    68   114   113    2
    69   144   143    1
    70   144   145    2
    71   143   142    1
    72   112   113    1
    73   112   111    1
    74   113   122   am
    75    70    69    1
    76   126   123    1
    77    64    65    1
    78   122   123    1
    79    69    68    1
    80   123   124    1
    81   141   140    2
    82   142   140   am
    83   110   109    1
    84   109   106    1
    85   140   139    1
    86    68    65    1
    87    65    66    1
    88    89    87   ar
    89    89    91   ar
    90    87    86   ar
    91    67    66    2
    92   124   125    2
    93    92    91    1
    94    66    72   am
    95   105   106    1
    96   105   103   am
    97    91    90   ar
    98   106   107    1
    99    86    85    1
   100    86    88   ar
   101   137   135    1
   102    85    82    1
   103   139   138    1
   104   102   103    1
   105   102   101    1
   106    75    74    2
   107   103   104    2
   108    90    88   ar
   109    62    61    1
   110   136   135    1
   111    82    81    1
   112    82    83    1
   113   107   108    2
   114   135   134    1
   115    72    73    1
   116    74    81   am
   117    74    73    1
   118    96    95    2
   119    63    61    1
   120    93    83   am
   121    93    94    1
   122    73    76    1
   123    61    58    1
   124    83    84    2
   125    95    94    1
   126   134   131    1
   127   130   131    1
   128   131   132    1
   129    94    97    1
   130    60    59    2
   131    97    98    1
   132    59    58    1
   133    76    77    1
   134    58    57    1
   135    77    78    1
   136    98    99    1
   137    98   100    1
   138   132   133    2
   139    78    80   ar
   140    78    79   ar
