@<TRIPOS>MOLECULE
tmp/3furA00.pdb
 142 136 0 0 0
SMALL
GASTEIGER

@<TRIPOS>ATOM
      1  N         -2.5400   13.7180   19.1710 N.3    72  VAL72      -0.1231
      2  CA        -3.7230   13.3650   18.3740 C.3    72  VAL72       0.1692
      3  C         -4.3000   14.6020   17.6630 C.2    72  VAL72       0.2591
      4  O         -4.7250   14.5090   16.4910 O.2    72  VAL72      -0.2718
      5  CB        -4.8400   12.7300   19.2470 C.3    72  VAL72       0.0266
      6  CG1       -6.1770   12.6730   18.4610 C.3    72  VAL72       0.0020
      7  CG2       -4.4030   11.3680   19.7820 C.3    72  VAL72       0.0020
      8  N         -4.2880   15.7450   18.3730 N.am   73  GLN73      -0.1979
      9  CA        -4.7890   17.0360   17.8530 C.3    73  GLN73       0.1601
     10  C         -3.9610   17.5690   16.6800 C.2    73  GLN73       0.2287
     11  O         -4.5090   18.1370   15.7510 O.2    73  GLN73      -0.2864
     12  CB        -4.8770   18.1080   18.9690 C.3    73  GLN73       0.0394
     13  CG        -5.7290   17.6480   20.1560 C.3    73  GLN73       0.0908
     14  CD        -5.8050   18.6390   21.3240 C.2    73  GLN73       0.2608
     15  OE1       -6.7480   18.5890   22.1170 O.2    73  GLN73      -0.2717
     16  NE2       -4.8190   19.5330   21.4340 N.am   73  GLN73      -0.0878
     17  N         -4.4500   15.1830   13.7480 N.3    76  THR76      -0.1203
     18  CA        -5.7710   15.4700   13.1300 C.3    76  THR76       0.1994
     19  C         -5.6790   16.6640   12.1410 C.2    76  THR76       0.2617
     20  O         -6.1060   16.5630   10.9900 O.2    76  THR76      -0.2717
     21  CB        -6.8940   15.6660   14.2410 C.3    76  THR76       0.1784
     22  OG1       -7.0310   14.4570   15.0180 O.3    76  THR76      -0.2211
     23  CG2       -8.2600   16.0080   13.6390 C.3    76  THR76       0.0376
     24  N         -5.0740   17.7590   12.5970 N.am   77  GLU77      -0.1979
     25  CA        -4.8250   18.9290   11.7640 C.3    77  GLU77       0.1602
     26  C         -4.0330   18.5540   10.5090 C.2    77  GLU77       0.2287
     27  O         -4.3970   18.9770    9.3930 O.2    77  GLU77      -0.2864
     28  CB        -4.1440   20.0640   12.5660 C.3    77  GLU77       0.0415
     29  CG        -5.0890   20.7640   13.5520 C.3    77  GLU77       0.1163
     30  CD        -6.4270   21.1940   12.8990 C.2    77  GLU77       0.3649
     31  OE1       -6.4350   22.0870   12.0240 O.co2  77  GLU77      -0.2457
     32  OE2       -7.4810   20.6210   13.2450 O.co2  77  GLU77      -0.2457
     33  N         -6.1860   16.4410    8.0910 N.3    80  LYS80      -0.1245
     34  CA        -7.0580   17.4080    7.4310 C.3    80  LYS80       0.1561
     35  C         -6.4260   18.1470    6.2460 C.2    80  LYS80       0.2260
     36  O         -7.1540   18.6700    5.4010 O.2    80  LYS80      -0.2867
     37  CB        -7.6230   18.4180    8.4490 C.3    80  LYS80       0.0271
     38  CG        -8.8280   17.9180    9.2420 C.3    80  LYS80       0.0035
     39  CD        -8.9910   18.6320   10.5770 C.3    80  LYS80       0.0206
     40  CE        -9.5390   20.0310   10.3830 C.3    80  LYS80       0.1093
     41  NZ        -9.8830   20.6460   11.6880 N.3    80  LYS80      -0.1314
     42  N         -9.0190   14.0960    2.0100 N.3    85  PHE85      -0.1227
     43  CA        -9.3680   13.6010    3.3500 C.3    85  PHE85       0.1736
     44  C        -10.6290   14.2220    3.9300 C.2    85  PHE85       0.2595
     45  O        -11.4400   13.4950    4.4670 O.2    85  PHE85      -0.2718
     46  CB        -8.2050   13.7710    4.3560 C.3    85  PHE85       0.0547
     47  CG        -8.4930   13.1650    5.7240 C.ar   85  PHE85      -0.0202
     48  CD1       -8.2100   11.8380    5.9820 C.ar   85  PHE85      -0.0042
     49  CD2       -9.0580   13.9280    6.7380 C.ar   85  PHE85      -0.0042
     50  CE1       -8.4760   11.2620    7.2630 C.ar   85  PHE85      -0.0003
     51  CE2       -9.3380   13.3760    7.9920 C.ar   85  PHE85      -0.0003
     52  CZ        -9.0440   12.0440    8.2580 C.ar   85  PHE85      -0.0000
     53  N        -10.7910   15.5470    3.8360 N.am   86  VAL86      -0.1980
     54  CA       -11.9600   16.2080    4.4190 C.3    86  VAL86       0.1595
     55  C        -13.2780   15.9500    3.6480 C.2    86  VAL86       0.2287
     56  O        -14.3870   16.2300    4.1550 O.2    86  VAL86      -0.2864
     57  CB       -11.7280   17.7350    4.6970 C.3    86  VAL86       0.0276
     58  CG1      -10.4230   17.9540    5.5910 C.3    86  VAL86       0.0022
     59  CG2      -11.6650   18.5350    3.3860 C.3    86  VAL86       0.0022
     60  N        -17.4280   11.4300    6.9700 N.3    90  LEU90      -0.1245
     61  CA       -16.9080   11.8330    8.2680 C.3    90  LEU90       0.1561
     62  C        -16.8040   10.6620    9.2450 C.2    90  LEU90       0.2260
     63  O        -15.9630   10.6870   10.1460 O.2    90  LEU90      -0.2867
     64  CB       -17.7390   12.9930    8.8700 C.3    90  LEU90       0.0270
     65  CG       -17.2220   13.7000   10.1400 C.3    90  LEU90       0.0019
     66  CD1      -15.9710   14.5110    9.8840 C.3    90  LEU90       0.0001
     67  CD2      -18.2590   14.5970   10.7720 C.3    90  LEU90       0.0001
     68  N        -13.4280    9.2400    8.2740 N.3    93  GLN93      -0.1231
     69  CA       -12.3610   10.0910    8.8610 C.3    93  GLN93       0.1698
     70  C        -12.1040    9.6940   10.3140 C.2    93  GLN93       0.2592
     71  O        -10.9730    9.5120   10.7150 O.2    93  GLN93      -0.2718
     72  CB       -12.6870   11.6070    8.7860 C.3    93  GLN93       0.0381
     73  CG       -12.8360   12.1870    7.3590 C.3    93  GLN93       0.0905
     74  CD       -13.1940   13.6400    7.3660 C.2    93  GLN93       0.2608
     75  OE1      -12.5490   14.4570    8.0510 O.2    93  GLN93      -0.2717
     76  NE2      -14.2420   13.9910    6.6210 N.am   93  GLN93      -0.0878
     77  N        -13.1670    9.6010   11.1010 N.am   94  VAL94      -0.1980
     78  CA       -13.0660    9.1630   12.5020 C.3    94  VAL94       0.1595
     79  C        -12.3740    7.7970   12.6660 C.2    94  VAL94       0.2287
     80  O        -11.4510    7.6990   13.4530 O.2    94  VAL94      -0.2864
     81  CB       -14.4720    9.1430   13.2140 C.3    94  VAL94       0.0276
     82  CG1      -14.4240    8.3510   14.5480 C.3    94  VAL94       0.0022
     83  CG2      -14.9650   10.5430   13.4350 C.3    94  VAL94       0.0022
     84  N         -8.5500    7.8120   11.8560 N.3    97  LEU97      -0.1231
     85  CA        -7.8390    8.3520   13.0030 C.3    97  LEU97       0.1693
     86  C         -7.7920    7.4150   14.2000 C.2    97  LEU97       0.2591
     87  O         -6.7210    7.2110   14.7730 O.2    97  LEU97      -0.2718
     88  CB        -8.3980    9.7210   13.3990 C.3    97  LEU97       0.0284
     89  CG        -7.9720   10.8050   12.3900 C.3    97  LEU97       0.0019
     90  CD1       -8.7460   12.0250   12.6460 C.3    97  LEU97       0.0001
     91  CD2       -6.4760   11.1070   12.4700 C.3    97  LEU97       0.0001
     92  N         -8.9350    6.8260   14.5660 N.am   98  LYS98      -0.1980
     93  CA        -8.9730    5.8790   15.6830 C.3    98  LYS98       0.1596
     94  C         -7.9640    4.7410   15.5480 C.2    98  LYS98       0.2287
     95  O         -7.2880    4.3880   16.5230 O.2    98  LYS98      -0.2864
     96  CB       -10.3660    5.2560   15.8560 C.3    98  LYS98       0.0298
     97  CG       -11.3390    6.0680   16.6430 C.3    98  LYS98       0.0038
     98  CD       -12.6730    5.3260   16.6210 C.3    98  LYS98       0.0206
     99  CE       -12.3920    3.8190   16.7790 C.3    98  LYS98       0.1093
    100  NZ       -12.2680    3.4030   18.2320 N.3    98  LYS98      -0.1314
    101  N         -8.3340   11.1710   29.5450 N.3   245  HIS245     -0.1227
    102  CA        -8.8880   12.2430   28.7600 C.3   245  HIS245      0.1737
    103  C         -9.9870   11.6350   27.9040 C.2   245  HIS245      0.2438
    104  O         -9.8220   10.5540   27.3340 O.2   245  HIS245     -0.2733
    105  CB        -7.8220   12.9210   27.8980 C.3   245  HIS245      0.0758
    106  CG        -8.2690   14.2310   27.3440 C.ar  245  HIS245      0.0818
    107  ND1       -9.1030   14.3240   26.2520 N.ar  245  HIS245     -0.2268
    108  CD2       -8.0570   15.4980   27.7670 C.ar  245  HIS245      0.1154
    109  CE1       -9.3650   15.5950   26.0060 C.ar  245  HIS245      0.1986
    110  NE2       -8.7420   16.3270   26.9110 N.ar  245  HIS245     -0.2212
    111  N        -11.1350   12.3080   27.8320 N.am  246  PRO246     -0.2718
    112  CA       -12.2600   11.7960   27.0210 C.3   246  PRO246      0.1535
    113  C        -11.9120   11.5100   25.5370 C.2   246  PRO246      0.2598
    114  O        -12.4850   10.5970   24.9360 O.2   246  PRO246     -0.2715
    115  CB       -13.3310   12.8870   27.1370 C.3   246  PRO246      0.0310
    116  CG       -12.8080   13.9190   28.1190 C.3   246  PRO246      0.0237
    117  CD       -11.4820   13.4680   28.6650 C.3   246  PRO246      0.0939
    118  N        -10.9900   12.2780   24.9620 N.am  247  LEU247     -0.1978
    119  CA       -10.5150   12.0410   23.5970 C.3   247  LEU247      0.1596
    120  C         -9.8320   10.6800   23.4430 C.2   247  LEU247      0.2287
    121  O        -10.1320    9.9220   22.5190 O.2   247  LEU247     -0.2864
    122  CB        -9.5610   13.1640   23.1490 C.3   247  LEU247      0.0297
    123  CG        -9.0290   13.0570   21.7150 C.3   247  LEU247      0.0022
    124  CD1      -10.1980   13.2450   20.7500 C.3   247  LEU247      0.0001
    125  CD2       -7.9210   14.0800   21.4730 C.3   247  LEU247      0.0001
    126  N        -12.3980    7.5710   23.6870 N.3   250  GLU250     -0.1231
    127  CA       -13.0650    7.2640   22.4000 C.3   250  GLU250      0.1699
    128  C        -12.2150    6.4330   21.4720 C.2   250  GLU250      0.2592
    129  O        -12.7170    5.5240   20.8090 O.2   250  GLU250     -0.2718
    130  CB       -13.4500    8.5400   21.6340 C.3   250  GLU250      0.0402
    131  CG       -14.2350    9.5680   22.4230 C.3   250  GLU250      0.1161
    132  CD       -14.6750   10.7490   21.5680 C.2   250  GLU250      0.3649
    133  OE1      -14.2290   10.8270   20.3930 O.co2 250  GLU250     -0.2457
    134  OE2      -15.4720   11.5860   22.0730 O.co2 250  GLU250     -0.2457
    135  N        -10.9350    6.7800   21.3920 N.am  251  ILE251     -0.1980
    136  CA        -9.9900    6.0380   20.5900 C.3   251  ILE251      0.1595
    137  C         -9.7590    4.6350   21.1600 C.2   251  ILE251      0.2287
    138  O         -9.6760    3.6870   20.3960 O.2   251  ILE251     -0.2864
    139  CB        -8.6630    6.8100   20.4480 C.3   251  ILE251      0.0276
    140  CG1       -8.8900    8.0880   19.6540 C.3   251  ILE251      0.0022
    141  CG2       -7.6060    5.9640   19.7460 C.3   251  ILE251      0.0022
    142  CD1       -7.8330    9.1200   19.8430 C.3   251  ILE251      0.0001
@<TRIPOS>BOND
     1    42    43    1
     2    43    44    1
     3    43    46    1
     4    59    57    1
     5    55    56    2
     6    55    54    1
     7    53    44   am
     8    53    54    1
     9    44    45    2
    10    46    47    1
    11    54    57    1
    12    57    58    1
    13    36    35    2
    14    47    48   ar
    15    47    49   ar
    16    48    50   ar
    17    35    34    1
    18    76    74   am
    19    49    51   ar
    20    60    61    1
    21    50    52   ar
    22    73    74    1
    23    73    72    1
    24    74    75    2
    25    34    33    1
    26    34    37    1
    27    51    52   ar
    28    61    64    1
    29    61    62    1
    30    68    69    1
    31    37    38    1
    32    72    69    1
    33    69    70    1
    34    64    65    1
    35    38    39    1
    36    62    63    2
    37    27    26    2
    38    66    65    1
    39    65    67    1
    40    70    71    2
    41    70    77   am
    42    40    39    1
    43    40    41    1
    44    26    25    1
    45    20    19    2
    46    77    78    1
    47    25    28    1
    48    25    24    1
    49    84    85    1
    50    31    30   ar
    51    19    24   am
    52    19    18    1
    53    89    91    1
    54    89    90    1
    55    89    88    1
    56    78    79    1
    57    78    81    1
    58    28    29    1
    59    79    80    2
    60    30    32   ar
    61    30    29    1
    62    85    88    1
    63    85    86    1
    64    18    17    1
    65    18    21    1
    66    81    83    1
    67    81    82    1
    68    23    21    1
    69    86    92   am
    70    86    87    2
    71    21    22    1
    72    92    93    1
    73    94    93    1
    74    94    95    2
    75    93    96    1
    76    11    10    2
    77    96    97    1
    78     4     3    2
    79    98    97    1
    80    98    99    1
    81    10     9    1
    82    99   100    1
    83     3     8   am
    84     3     2    1
    85     9     8    1
    86     9    12    1
    87     2     1    1
    88     2     5    1
    89     6     5    1
    90    12    13    1
    91     5     7    1
    92   140   142    1
    93   140   139    1
    94   141   139    1
    95    13    14    1
    96   133   132   ar
    97   138   137    2
    98   139   136    1
    99   136   137    1
   100   136   135    1
   101   124   123    1
   102   129   128    2
   103    14    16   am
   104    14    15    2
   105   135   128   am
   106   128   127    1
   107   125   123    1
   108   132   134   ar
   109   132   131    1
   110   130   127    1
   111   130   131    1
   112   123   122    1
   113   127   126    1
   114   121   120    2
   115   122   119    1
   116   120   119    1
   117   119   118    1
   118   114   113    2
   119   118   113   am
   120   113   112    1
   121   109   107   ar
   122   109   110   ar
   123   107   106   ar
   124   110   108   ar
   125   112   115    1
   126   112   111    1
   127   115   116    1
   128   104   103    2
   129   106   108   ar
   130   106   105    1
   131   111   103   am
   132   111   117    1
   133   105   102    1
   134   103   102    1
   135   116   117    1
   136   102   101    1
