@<TRIPOS>MOLECULE
tmp/3furA01.pdb
 214 203 0 0 0
SMALL
GASTEIGER

@<TRIPOS>ATOM
      1  N          5.5700    5.7820   38.4840 N.3    57  ALA57      -0.1245
      2  CA         5.1840    5.1130   37.2590 C.3    57  ALA57       0.1562
      3  C          3.9130    5.7270   36.6850 C.2    57  ALA57       0.2260
      4  O          3.7840    5.8860   35.4810 O.2    57  ALA57      -0.2867
      5  CB         4.9730    3.6080   37.5000 C.3    57  ALA57       0.0290
      6  N          2.6070    8.8450   37.4840 N.3    59  ARG59      -0.1231
      7  CA         2.8610   10.2250   37.0770 C.3    59  ARG59       0.1694
      8  C          3.5090   10.3110   35.6920 C.2    59  ARG59       0.2592
      9  O          3.3270   11.2760   34.9560 O.2    59  ARG59      -0.2718
     10  CB         3.7770   10.9210   38.0790 C.3    59  ARG59       0.0321
     11  CG         3.1630   11.1370   39.4430 C.3    59  ARG59       0.0489
     12  CD         3.8150   12.3440   40.1760 C.3    59  ARG59       0.2205
     13  NE         5.2580   12.1980   40.3870 N.pl3  59  ARG59      -0.0865
     14  CZ         5.8050   11.4740   41.3650 C.cat  59  ARG59       0.5346
     15  NH1        5.0230   10.8160   42.2220 N.pl3  59  ARG59       0.1354
     16  NH2        7.1360   11.4070   41.4880 N.pl3  59  ARG59       0.1354
     17  N          4.3110    9.3170   35.3540 N.am   60  ILE60      -0.1966
     18  CA         4.8840    9.2460   34.0210 C.3    60  ILE60       0.1727
     19  C          3.8380    8.7940   32.9870 C.2    60  ILE60       0.2616
     20  O          3.6750    9.4230   31.9360 O.2    60  ILE60      -0.2715
     21  CB         6.1190    8.3380   33.9980 C.3    60  ILE60       0.0290
     22  CG1        7.2650    9.0390   34.7140 C.3    60  ILE60       0.0022
     23  CG2        6.5110    8.0220   32.5690 C.3    60  ILE60       0.0023
     24  CD1        8.3860    8.1000   35.0490 C.3    60  ILE60       0.0001
     25  N          3.1210    7.7200   33.2990 N.am   61  PHE61      -0.1974
     26  CA         2.0590    7.2350   32.4240 C.3    61  PHE61       0.1639
     27  C          1.0810    8.3590   32.0600 C.2    61  PHE61       0.2290
     28  O          0.6900    8.5040   30.9060 O.2    61  PHE61      -0.2864
     29  CB         1.2870    6.1070   33.0940 C.3    61  PHE61       0.0560
     30  CG         0.1550    5.5910   32.2660 C.ar   61  PHE61      -0.0200
     31  CD1        0.3820    4.6620   31.2650 C.ar   61  PHE61      -0.0042
     32  CD2       -1.1340    6.0290   32.4820 C.ar   61  PHE61      -0.0042
     33  CE1       -0.6520    4.2060   30.4910 C.ar   61  PHE61      -0.0003
     34  CE2       -2.1490    5.5490   31.7130 C.ar   61  PHE61      -0.0003
     35  CZ        -1.8960    4.6420   30.7160 C.ar   61  PHE61      -0.0000
     36  N          1.7070   11.6240   32.2180 N.3    63  GLY63      -0.1210
     37  CA         2.4010   12.5710   31.3390 C.3    63  GLY63       0.1956
     38  C          2.3910   12.1540   29.8660 C.2    63  GLY63       0.2612
     39  O          2.2240   12.9930   28.9700 O.2    63  GLY63      -0.2717
     40  N          2.5770   10.8580   29.6120 N.am   64  CYS64      -0.1956
     41  CA         2.4760   10.3090   28.2510 C.3    64  CYS64       0.1843
     42  C          1.0630   10.5350   27.6890 C.2    64  CYS64       0.2625
     43  O          0.9050   10.9600   26.5480 O.2    64  CYS64      -0.2714
     44  CB         2.8680    8.8160   28.2060 C.3    64  CYS64       0.0997
     45  SG         4.5920    8.4560   28.7460 S.3    64  CYS64      -0.0797
     46  N          0.0460   10.2890   28.5050 N.am   65  GLN65      -0.1977
     47  CA        -1.3420   10.5410   28.1090 C.3    65  GLN65       0.1601
     48  C         -1.6300   12.0110   27.7160 C.2    65  GLN65       0.2287
     49  O         -2.1980   12.2820   26.6550 O.2    65  GLN65      -0.2864
     50  CB        -2.3100   10.0960   29.2130 C.3    65  GLN65       0.0394
     51  CG        -2.3570    8.5750   29.4860 C.3    65  GLN65       0.0908
     52  CD        -2.6010    7.7310   28.2430 C.2    65  GLN65       0.2608
     53  OE1       -1.7180    6.9770   27.8130 O.2    65  GLN65      -0.2717
     54  NE2       -3.7980    7.8510   27.6510 N.am   65  GLN65      -0.0878
     55  N          0.4970   14.3400   26.7690 N.3    67  ARG67      -0.1231
     56  CA         1.2040   14.5980   25.5270 C.3    67  ARG67       0.1694
     57  C          0.5220   13.9130   24.3230 C.2    67  ARG67       0.2592
     58  O          0.4440   14.5230   23.2650 O.2    67  ARG67      -0.2718
     59  CB         2.6830   14.1880   25.6420 C.3    67  ARG67       0.0321
     60  CG         3.4840   14.2610   24.3200 C.3    67  ARG67       0.0489
     61  CD         3.5270   15.6920   23.7440 C.3    67  ARG67       0.2205
     62  NE         4.0390   15.6950   22.3750 N.pl3  67  ARG67      -0.0865
     63  CZ         3.4680   16.3100   21.3450 C.cat  67  ARG67       0.5346
     64  NH1        2.3550   17.0020   21.5010 N.pl3  67  ARG67       0.1354
     65  NH2        4.0250   16.2290   20.1520 N.pl3  67  ARG67       0.1354
     66  N          0.0160   12.6820   24.4930 N.am   68  SER68      -0.1952
     67  CA        -0.7570   11.9860   23.4440 C.3    68  SER68       0.1924
     68  C         -2.0230   12.7570   22.9920 C.2    68  SER68       0.2314
     69  O         -2.3770   12.7430   21.8130 O.2    68  SER68      -0.2863
     70  CB        -1.1440   10.5540   23.8580 C.3    68  SER68       0.2116
     71  OG        -0.0050    9.7040   23.8610 O.3    68  SER68      -0.2180
     72  N         -0.7610   15.3950   20.7080 N.3    71  ALA71      -0.1245
     73  CA        -0.3170   14.7340   19.4930 C.3    71  ALA71       0.1562
     74  C         -1.5010   14.3250   18.6070 C.2    71  ALA71       0.2260
     75  O         -1.4930   14.6000   17.4140 O.2    71  ALA71      -0.2867
     76  CB         0.5970   13.5660   19.8000 C.3    71  ALA71       0.0290
     77  N          1.9210    8.3270   16.1910 N.3   105  ILE105     -0.1231
     78  CA         2.5770    8.7610   17.4150 C.3   105  ILE105      0.1692
     79  C          3.9460    8.0520   17.5920 C.2   105  ILE105      0.2592
     80  O          4.9420    8.7150   17.9180 O.2   105  ILE105     -0.2718
     81  CB         1.6460    8.5140   18.6380 C.3   105  ILE105      0.0266
     82  CG1        0.4900    9.5310   18.6180 C.3   105  ILE105      0.0019
     83  CG2        2.4530    8.5120   19.9850 C.3   105  ILE105      0.0020
     84  CD1       -0.6020    9.2310   19.5970 C.3   105  ILE105      0.0001
     85  N          4.0010    6.7360   17.3540 N.am  106  TYR106     -0.1976
     86  CA         5.2480    5.9710   17.5490 C.3   106  TYR106      0.1639
     87  C          6.2730    6.0500   16.3730 C.2   106  TYR106      0.2290
     88  O          7.4980    6.0550   16.5830 O.2   106  TYR106     -0.2864
     89  CB         4.9500    4.5630   18.1100 C.3   106  TYR106      0.0560
     90  CG         4.3000    4.7370   19.4840 C.ar  106  TYR106     -0.0198
     91  CD1        4.9630    5.4560   20.4870 C.ar  106  TYR106     -0.0009
     92  CD2        2.9970    4.2980   19.7490 C.ar  106  TYR106     -0.0009
     93  CE1        4.3780    5.6880   21.7280 C.ar  106  TYR106      0.0417
     94  CE2        2.3950    4.5260   21.0040 C.ar  106  TYR106      0.0417
     95  CZ         3.0910    5.2290   21.9850 C.ar  106  TYR106      0.1957
     96  OH         2.5330    5.4790   23.2300 O.3   106  TYR106     -0.2866
     97  N          7.5710    9.5860   17.5040 N.3   109  LEU109     -0.1245
     98  CA         8.3350    9.4680   18.7180 C.3   109  LEU109      0.1561
     99  C          9.7860    9.0340   18.4160 C.2   109  LEU109      0.2260
    100  O         10.7120    9.5410   19.0410 O.2   109  LEU109     -0.2867
    101  CB         7.6380    8.4910   19.6970 C.3   109  LEU109      0.0270
    102  CG         7.8760    8.8580   21.1640 C.3   109  LEU109      0.0019
    103  CD1        7.3830   10.2770   21.4560 C.3   109  LEU109      0.0001
    104  CD2        7.2650    7.8580   22.1520 C.3   109  LEU109      0.0001
    105  N         12.4410   11.5420   18.1120 N.3   112  LEU112     -0.1245
    106  CA        12.8930   12.0760   19.3960 C.3   112  LEU112      0.1561
    107  C         13.7780   11.0900   20.1970 C.2   112  LEU112      0.2260
    108  O         14.2600   11.4350   21.2670 O.2   112  LEU112     -0.2867
    109  CB        11.6850   12.5390   20.2460 C.3   112  LEU112      0.0270
    110  CG        10.5050   13.3480   19.6570 C.3   112  LEU112      0.0019
    111  CD1        9.6300   13.9690   20.7690 C.3   112  LEU112      0.0001
    112  CD2       10.8800   14.4390   18.6480 C.3   112  LEU112      0.0001
    113  N         14.9340    9.4290   25.2260 N.3   118  VAL118     -0.1231
    114  CA        13.9280   10.1570   24.4640 C.3   118  VAL118      0.1692
    115  C         13.7920   11.6020   24.9760 C.2   118  VAL118      0.2592
    116  O         13.8170   11.8580   26.1890 O.2   118  VAL118     -0.2718
    117  CB        12.5410    9.4350   24.5520 C.3   118  VAL118      0.0266
    118  CG1       12.1240    9.2280   26.0050 C.3   118  VAL118      0.0020
    119  CG2       11.4470   10.2020   23.7710 C.3   118  VAL118      0.0020
    120  N         13.6530   12.5390   24.0390 N.am  119  LEU119     -0.1966
    121  CA        13.2970   13.9430   24.3370 C.3   119  LEU119      0.1728
    122  C         11.8520   14.1320   24.7740 C.2   119  LEU119      0.2616
    123  O         10.9300   13.5360   24.1970 O.2   119  LEU119     -0.2715
    124  CB        13.5360   14.8210   23.1180 C.3   119  LEU119      0.0311
    125  CG        14.9640   15.0150   22.6460 C.3   119  LEU119      0.0022
    126  CD1       14.9380   15.8020   21.3330 C.3   119  LEU119      0.0001
    127  CD2       15.8360   15.7340   23.6960 C.3   119  LEU119      0.0001
    128  N         11.6550   14.9760   25.7810 N.am  120  ILE120     -0.1963
    129  CA        10.3320   15.2600   26.3260 C.3   120  ILE120      0.1727
    130  C         10.2250   16.7890   26.5160 C.2   120  ILE120      0.2616
    131  O         11.2270   17.4950   26.3840 O.2   120  ILE120     -0.2715
    132  CB        10.0780   14.5080   27.6790 C.3   120  ILE120      0.0290
    133  CG1       11.0660   14.9490   28.7740 C.3   120  ILE120      0.0022
    134  CG2       10.1540   12.9870   27.5260 C.3   120  ILE120      0.0023
    135  CD1       10.5150   14.7890   30.1710 C.3   120  ILE120      0.0001
    136  N          9.0290   17.2940   26.8080 N.am  121  SER121     -0.1950
    137  CA         8.7850   18.7420   26.9710 C.3   121  SER121      0.1924
    138  C          9.3150   19.5710   25.8130 C.2   121  SER121      0.2314
    139  O         10.0590   20.5430   26.0200 O.2   121  SER121     -0.2863
    140  CB         9.4160   19.2740   28.2570 C.3   121  SER121      0.2116
    141  OG         9.1700   18.3800   29.3130 O.3   121  SER121     -0.2180
    142  N         14.6740   11.8330   28.8390 N.3   127  MET127     -0.1245
    143  CA        14.4060   10.7960   29.8050 C.3   127  MET127      0.1570
    144  C         15.0870    9.5330   29.3510 C.2   127  MET127      0.2261
    145  O         14.8450    9.0650   28.2620 O.2   127  MET127     -0.2867
    146  CB        12.9100   10.5840   29.9260 C.3   127  MET127      0.0387
    147  CG        12.5020    9.7640   31.1320 C.3   127  MET127      0.0595
    148  SD        10.7020    9.6220   31.3590 S.3   127  MET127     -0.1393
    149  CE        10.1860   11.3220   31.3670 C.3   127  MET127      0.0692
    150  N         13.1150    4.4710   32.2730 N.3   132  LEU132     -0.1245
    151  CA        11.8020    3.9850   31.9000 C.3   132  LEU132      0.1561
    152  C         11.7360    2.4670   32.0600 C.2   132  LEU132      0.2260
    153  O         10.7070    1.9120   32.4270 O.2   132  LEU132     -0.2867
    154  CB        11.5110    4.3790   30.4540 C.3   132  LEU132      0.0270
    155  CG        11.2790    5.8610   30.2100 C.3   132  LEU132      0.0019
    156  CD1       11.7990    6.2260   28.8600 C.3   132  LEU132      0.0001
    157  CD2        9.7870    6.1530   30.3190 C.3   132  LEU132      0.0001
    158  N         10.7890    1.1970   35.6930 N.3   135  LEU135     -0.1245
    159  CA         9.4150    1.3170   36.2030 C.3   135  LEU135      0.1561
    160  C          8.7610   -0.0460   36.3760 C.2   135  LEU135      0.2260
    161  O          9.0020   -0.9800   35.6020 O.2   135  LEU135     -0.2867
    162  CB         8.5300    2.1910   35.2920 C.3   135  LEU135      0.0270
    163  CG         9.0490    3.6030   34.9610 C.3   135  LEU135      0.0019
    164  CD1        8.1160    4.2800   34.0230 C.3   135  LEU135      0.0001
    165  CD2        9.2620    4.4550   36.2060 C.3   135  LEU135      0.0001
    166  N          4.0720   -0.6800   33.6390 N.3   139  PHE139     -0.1241
    167  CA         4.6000    0.5610   33.0820 C.3   139  PHE139      0.1605
    168  C          6.0140    0.5040   32.4750 C.2   139  PHE139      0.2264
    169  O          6.3060    1.2350   31.5110 O.2   139  PHE139     -0.2867
    170  CB         4.5010    1.6640   34.1250 C.3   139  PHE139      0.0534
    171  CG         3.1090    1.8880   34.6090 C.ar  139  PHE139     -0.0203
    172  CD1        2.7080    1.4280   35.8570 C.ar  139  PHE139     -0.0042
    173  CD2        2.1790    2.5170   33.7950 C.ar  139  PHE139     -0.0042
    174  CE1        1.4040    1.6050   36.2890 C.ar  139  PHE139     -0.0003
    175  CE2        0.8770    2.6940   34.2230 C.ar  139  PHE139     -0.0003
    176  CZ         0.4930    2.2350   35.4740 C.ar  139  PHE139     -0.0000
    177  N          6.2490   -0.6930   28.5760 N.3   142  PHE142     -0.1227
    178  CA         5.6880    0.0900   27.4140 C.3   142  PHE142      0.1736
    179  C          6.7330    0.5020   26.3730 C.2   142  PHE142      0.2595
    180  O          6.5500    0.3220   25.1630 O.2   142  PHE142     -0.2718
    181  CB         4.9980    1.3910   27.8760 C.3   142  PHE142      0.0547
    182  CG         3.5290    1.2330   28.2390 C.ar  142  PHE142     -0.0202
    183  CD1        2.5660    0.9950   27.2550 C.ar  142  PHE142     -0.0042
    184  CD2        3.1110    1.3410   29.5540 C.ar  142  PHE142     -0.0042
    185  CE1        1.2300    0.8550   27.5730 C.ar  142  PHE142     -0.0003
    186  CE2        1.7790    1.2010   29.8880 C.ar  142  PHE142     -0.0003
    187  CZ         0.8310    0.9640   28.8910 C.ar  142  PHE142     -0.0000
    188  N          7.8270    1.0970   26.8380 N.am  143  MET143     -0.1979
    189  CA         8.6960    1.7920   25.9090 C.3   143  MET143      0.1605
    190  C          9.8110    0.9330   25.3520 C.2   143  MET143      0.2287
    191  O         10.3390    1.2120   24.2760 O.2   143  MET143     -0.2864
    192  CB         9.2640    3.0710   26.5200 C.3   143  MET143      0.0413
    193  CG         9.8090    3.9960   25.4180 C.3   143  MET143      0.0598
    194  SD         9.7500    5.7170   25.8910 S.3   143  MET143     -0.1393
    195  CE         9.3350    6.4890   24.3370 C.3   143  MET143      0.0692
    196  N          9.3960    0.0110   21.8580 N.3   146  LYS146     -0.1245
    197  CA         9.4970    1.1710   20.9950 C.3   146  LYS146      0.1561
    198  C         10.9520    1.6010   20.7240 C.2   146  LYS146      0.2260
    199  O         11.2430    2.1080   19.6490 O.2   146  LYS146     -0.2867
    200  CB         8.6020    2.2890   21.5260 C.3   146  LYS146      0.0271
    201  CG         7.1540    1.7920   21.5800 C.3   146  LYS146      0.0035
    202  CD         6.2430    2.6170   22.4540 C.3   146  LYS146      0.0206
    203  CE         4.8310    2.0460   22.4260 C.3   146  LYS146      0.1093
    204  NZ         4.5510    0.9270   23.3950 N.3   146  LYS146     -0.1314
    205  N          0.8940   -2.7070   22.4780 N.3   228  HIS228     -0.1241
    206  CA         0.6630   -1.5080   23.2740 C.3   228  HIS228      0.1621
    207  C         -0.7740   -1.5020   23.8190 C.2   228  HIS228      0.2264
    208  O         -1.0100   -1.2040   24.9760 O.2   228  HIS228     -0.2867
    209  CB         0.9770   -0.2470   22.4550 C.3   228  HIS228      0.0745
    210  CG         0.6870    1.0310   23.1760 C.ar  228  HIS228      0.0817
    211  ND1        1.6600    1.7580   23.8300 N.ar  228  HIS228     -0.2268
    212  CD2       -0.4750    1.7160   23.3460 C.ar  228  HIS228      0.1154
    213  CE1        1.1090    2.8270   24.3830 C.ar  228  HIS228      0.1986
    214  NE2       -0.1840    2.8250   24.1010 N.ar  228  HIS228     -0.2212
@<TRIPOS>BOND
     1    77    78    1
     2    87    88    2
     3    87    86    1
     4    85    86    1
     5    85    79   am
     6    75    74    2
     7    78    79    1
     8    78    81    1
     9    97    98    1
    10    86    89    1
    11    79    80    2
    12    89    90    1
    13   105   106    1
    14    99    98    1
    15    99   100    2
    16    74    73    1
    17    82    81    1
    18    82    84    1
    19    81    83    1
    20   112   110    1
    21    98   101    1
    22   106   107    1
    23   106   109    1
    24    90    92   ar
    25    90    91   ar
    26    73    76    1
    27    73    72    1
    28   199   198    2
    29   110   109    1
    30   110   111    1
    31   101   102    1
    32    92    94   ar
    33    65    63    1
    34   107   108    2
    35    91    93   ar
    36   198   197    1
    37   197   200    1
    38   197   196    1
    39    94    95   ar
    40   102   103    1
    41   102   104    1
    42   126   125    1
    43    63    64    1
    44    63    62    2
    45   200   201    1
    46   201   202    1
    47    93    95   ar
    48    69    68    2
    49    95    96    1
    50    62    61    1
    51   203   202    1
    52   203   204    1
    53   209   210    1
    54   209   206    1
    55   205   206    1
    56   125   124    1
    57   125   127    1
    58    68    67    1
    59   124   121    1
    60   210   212   ar
    61   210   211   ar
    62    58    57    2
    63   206   207    1
    64   212   214   ar
    65    67    70    1
    66    67    66    1
    67    61    60    1
    68   119   117    1
    69   207   208    2
    70   211   213   ar
    71    70    71    1
    72   120   121    1
    73   120   115   am
    74   214   213   ar
    75   123   122    2
    76   191   190    2
    77    60    59    1
    78    57    66   am
    79    57    56    1
    80   195   194    1
    81   121   122    1
    82   114   117    1
    83   114   115    1
    84   114   113    1
    85   117   118    1
    86   122   128   am
    87   115   116    2
    88   180   179    2
    89   190   189    1
    90   193   194    1
    91   193   192    1
    92    56    59    1
    93    56    55    1
    94   128   129    1
    95   138   139    2
    96   138   137    1
    97   189   192    1
    98   189   188    1
    99   129   130    1
   100   129   132    1
   101   179   188   am
   102   179   178    1
   103   131   130    2
   104   130   136   am
   105    43    42    2
   106    49    48    2
   107   136   137    1
   108   137   140    1
   109   183   185   ar
   110   183   182   ar
   111   178   181    1
   112   178   177    1
   113   134   132    1
   114   185   187   ar
   115    54    52   am
   116   132   133    1
   117    42    41    1
   118    42    46   am
   119    48    47    1
   120    53    52    2
   121   181   182    1
   122    47    46    1
   123    47    50    1
   124    44    41    1
   125    44    45    1
   126   182   184   ar
   127    52    51    1
   128    41    40    1
   129   140   141    1
   130   145   144    2
   131   133   135    1
   132   142   143    1
   133   156   155    1
   134   187   186   ar
   135    39    38    2
   136    50    51    1
   137   144   143    1
   138   184   186   ar
   139    40    38   am
   140   143   146    1
   141    38    37    1
   142   146   147    1
   143   155   157    1
   144   155   154    1
   145   154   151    1
   146    33    35   ar
   147    33    31   ar
   148    35    34   ar
   149    28    27    2
   150   147   148    1
   151    31    30   ar
   152    37    36    1
   153   148   149    1
   154   169   168    2
   155    34    32   ar
   156   151   152    1
   157   151   150    1
   158    20    19    2
   159    27    26    1
   160   152   153    2
   161    30    32   ar
   162    30    29    1
   163    26    29    1
   164    26    25    1
   165   168   167    1
   166    23    21    1
   167    19    25   am
   168    19    18    1
   169   167   166    1
   170   167   170    1
   171   173   175   ar
   172   173   171   ar
   173    21    18    1
   174    21    22    1
   175    18    17    1
   176   164   163    1
   177   170   171    1
   178   175   176   ar
   179   171   172   ar
   180    22    24    1
   181     9     8    2
   182   163   162    1
   183   163   165    1
   184   162   159    1
   185    17     8   am
   186   176   174   ar
   187     4     3    2
   188   161   160    2
   189     8     7    1
   190   158   159    1
   191   172   174   ar
   192   159   160    1
   193     3     2    1
   194     7     6    1
   195     7    10    1
   196     2     5    1
   197     2     1    1
   198    10    11    1
   199    11    12    1
   200    12    13    1
   201    13    14    2
   202    14    16    1
   203    14    15    1
