@<TRIPOS>MOLECULE
tmp/3fusA10.pdb
 97 96 0 0 0
SMALL
GASTEIGER

@<TRIPOS>ATOM
      1  N          2.5840   13.2280   10.9480 N.3   139  THR139     -0.1203
      2  CA         3.6980   14.1740   10.9480 C.3   139  THR139      0.1994
      3  C          4.0030   14.6680    9.5540 C.2   139  THR139      0.2618
      4  O          4.0520   13.8760    8.6210 O.2   139  THR139     -0.2717
      5  CB         4.9690   13.6030   11.6100 C.3   139  THR139      0.1784
      6  OG1        6.1370   14.1190   10.9540 O.3   139  THR139     -0.2211
      7  CG2        4.9900   12.0920   11.5510 C.3   139  THR139      0.0376
      8  N          4.2250   15.9740    9.4290 N.am  140  MET140     -0.1965
      9  CA         4.4090   16.6040    8.1260 C.3   140  MET140      0.1736
     10  C          5.6600   17.4880    8.0460 C.2   140  MET140      0.2616
     11  O          5.7710   18.4680    8.7730 O.2   140  MET140     -0.2715
     12  CB         3.1590   17.4040    7.7770 C.3   140  MET140      0.0427
     13  CG         3.1160   17.9060    6.3600 C.3   140  MET140      0.0599
     14  SD         1.4260   18.2570    5.8560 S.3   140  MET140     -0.1393
     15  CE         1.1290   19.8250    6.6740 C.3   140  MET140      0.0692
     16  N          6.5920   17.1410    7.1580 N.am  141  LYS141     -0.1977
     17  CA         7.8350   17.9030    7.0000 C.3   141  LYS141      0.1596
     18  C          8.2580   18.0440    5.5390 C.2   141  LYS141      0.2287
     19  O          8.2850   17.0640    4.8120 O.2   141  LYS141     -0.2864
     20  CB         8.9650   17.2490    7.7930 C.3   141  LYS141      0.0298
     21  CG        10.2910   17.9820    7.6760 C.3   141  LYS141      0.0038
     22  CD        11.4740   17.1170    8.0050 C.3   141  LYS141      0.0206
     23  CE        12.7310   17.6890    7.3870 C.3   141  LYS141      0.1093
     24  NZ        13.6810   16.6020    7.0070 N.3   141  LYS141     -0.1314
     25  N          7.1750   15.4040    3.3680 N.3   149  TRP149     -0.1227
     26  CA         7.3020   14.0810    3.9840 C.3   149  TRP149      0.1737
     27  C          6.3240   13.8980    5.1330 C.2   149  TRP149      0.2595
     28  O          5.8020   14.8790    5.6680 O.2   149  TRP149     -0.2718
     29  CB         8.7010   13.9170    4.5520 C.3   149  TRP149      0.0564
     30  CG         9.7820   14.3790    3.6580 C.ar  149  TRP149      0.0003
     31  CD1       10.1220   15.6700    3.3670 C.ar  149  TRP149      0.0946
     32  CD2       10.6960   13.5520    2.9480 C.ar  149  TRP149      0.0152
     33  NE1       11.1840   15.6940    2.5050 N.ar  149  TRP149     -0.2442
     34  CE2       11.5620   14.4050    2.2370 C.ar  149  TRP149      0.0810
     35  CE3       10.8700   12.1640    2.8400 C.ar  149  TRP149      0.0012
     36  CZ2       12.5830   13.9180    1.4350 C.ar  149  TRP149      0.0191
     37  CZ3       11.8890   11.6810    2.0390 C.ar  149  TRP149      0.0001
     38  CH2       12.7360   12.5540    1.3600 C.ar  149  TRP149      0.0015
     39  N          6.1020   12.6400    5.5240 N.am  150  PHE150     -0.1962
     40  CA         5.0750   12.3020    6.5160 C.3   150  PHE150      0.1771
     41  C          5.3910   11.0810    7.3810 C.2   150  PHE150      0.2620
     42  O          6.3700   10.3630    7.1520 O.2   150  PHE150     -0.2715
     43  CB         3.7040   12.0770    5.8490 C.3   150  PHE150      0.0574
     44  CG         3.3400   13.1030    4.8100 C.ar  150  PHE150     -0.0200
     45  CD1        3.8150   12.9950    3.5060 C.ar  150  PHE150     -0.0042
     46  CD2        2.5050   14.1600    5.1280 C.ar  150  PHE150     -0.0042
     47  CE1        3.4850   13.9340    2.5490 C.ar  150  PHE150     -0.0003
     48  CE2        2.1600   15.1010    4.1700 C.ar  150  PHE150     -0.0003
     49  CZ         2.6510   14.9870    2.8810 C.ar  150  PHE150     -0.0000
     50  N          4.5250   10.8750    8.3710 N.am  151  GLY151     -0.1940
     51  CA         4.4570    9.6630    9.1810 C.3   151  GLY151      0.2014
     52  C          3.0800    9.6630    9.8280 C.2   151  GLY151      0.2639
     53  O          2.4400   10.7150    9.8980 O.2   151  GLY151     -0.2714
     54  N          2.6120    8.4990   10.2850 N.am  152  GLY152     -0.1954
     55  CA         1.2880    8.3730   10.9270 C.3   152  GLY152      0.1869
     56  C          0.2390    7.6160   10.1200 C.2   152  GLY152      0.2309
     57  O          0.4130    7.4040    8.9200 O.2   152  GLY152     -0.2863
     58  N          2.5740    4.9880   -3.2960 N.3   231  ARG231     -0.1231
     59  CA         3.1630    5.6430   -2.1280 C.3   231  ARG231      0.1694
     60  C          3.2000    7.1680   -2.2940 C.2   231  ARG231      0.2592
     61  O          2.7080    7.6960   -3.2940 O.2   231  ARG231     -0.2718
     62  CB         4.5480    5.0700   -1.8280 C.3   231  ARG231      0.0321
     63  CG         4.5860    3.5460   -1.7700 C.3   231  ARG231      0.0489
     64  CD         5.8150    3.0040   -1.0700 C.3   231  ARG231      0.2205
     65  NE         7.0740    3.3050   -1.7510 N.pl3 231  ARG231     -0.0865
     66  CZ         7.7610    4.4380   -1.6140 C.cat 231  ARG231      0.5346
     67  NH1        7.3170    5.4110   -0.8160 N.pl3 231  ARG231      0.1354
     68  NH2        8.9020    4.5950   -2.2750 N.pl3 231  ARG231      0.1354
     69  N          3.7750    7.8740   -1.3200 N.am  232  ASN232     -0.1974
     70  CA         3.5960    9.3210   -1.2390 C.3   232  ASN232      0.1688
     71  C          4.7290   10.2400   -0.8170 C.2   232  ASN232      0.2292
     72  O          5.5990    9.8830   -0.0260 O.2   232  ASN232     -0.2864
     73  CB         2.3380    9.6650   -0.4580 C.3   232  ASN232      0.1181
     74  CG         1.1190    9.7110   -1.3370 C.2   232  ASN232      0.2629
     75  OD1        0.6630   10.7880   -1.7190 O.2   232  ASN232     -0.2716
     76  ND2        0.5880    8.5420   -1.6810 N.am  232  ASN232     -0.0877
     77  N          9.9130   21.8330    8.5080 N.3   264  ASN264     -0.1225
     78  CA         9.2460   20.8500    9.3820 C.3   264  ASN264      0.1785
     79  C          7.9660   21.4360    9.9660 C.2   264  ASN264      0.2598
     80  O          7.8430   22.6560   10.0800 O.2   264  ASN264     -0.2718
     81  CB        10.1830   20.3780   10.5110 C.3   264  ASN264      0.1169
     82  CG         9.6130   19.1920   11.3160 C.2   264  ASN264      0.2627
     83  OD1        8.7550   18.4410   10.8300 O.2   264  ASN264     -0.2716
     84  ND2       10.0860   19.0390   12.5630 N.am  264  ASN264     -0.0877
     85  N          7.0160   20.5650   10.3210 N.am  265  SER265     -0.1938
     86  CA         5.7340   20.9910   10.8950 C.3   265  SER265      0.2055
     87  C          5.0200   19.9660   11.7880 C.2   265  SER265      0.2643
     88  O          4.9830   18.7640   11.4940 O.2   265  SER265     -0.2714
     89  CB         4.7830   21.4840    9.8010 C.3   265  SER265      0.2130
     90  OG         5.2850   22.6470    9.1600 O.3   265  SER265     -0.2179
     91  N          4.4540   20.4740   12.8820 N.am  266  THR266     -0.1950
     92  CA         3.5740   19.7150   13.7770 C.3   266  THR266      0.1897
     93  C          2.1580   19.7150   13.2040 C.2   266  THR266      0.2313
     94  O          1.7660   20.6290   12.4890 O.2   266  THR266     -0.2863
     95  CB         3.5640   20.3120   15.2090 C.3   266  THR266      0.1794
     96  OG1        2.3090   20.0350   15.8470 O.3   266  THR266     -0.2208
     97  CG2        3.7640   21.8140   15.1540 C.3   266  THR266      0.0378
@<TRIPOS>BOND
     1    58    59    1
     2    61    60    2
     3    60    59    1
     4    60    69   am
     5    68    66    1
     6    59    62    1
     7    62    63    1
     8    63    64    1
     9    65    66    2
    10    65    64    1
    11    75    74    2
    12    76    74   am
    13    66    67    1
    14    74    73    1
    15    69    70    1
    16    70    71    1
    17    70    73    1
    18    71    72    2
    19    38    36   ar
    20    38    37   ar
    21    36    34   ar
    22    37    35   ar
    23    34    33   ar
    24    34    32   ar
    25    33    31   ar
    26    47    49   ar
    27    47    45   ar
    28    35    32   ar
    29    49    48   ar
    30    32    30   ar
    31    31    30   ar
    32    25    26    1
    33    45    44   ar
    34    30    29    1
    35    26    29    1
    36    26    27    1
    37    48    46   ar
    38    44    46   ar
    39    44    43    1
    40    19    18    2
    41    27    39   am
    42    27    28    2
    43    39    40    1
    44    18    17    1
    45    43    40    1
    46    14    13    1
    47    14    15    1
    48    13    12    1
    49    40    41    1
    50    17    16    1
    51    17    20    1
    52    24    23    1
    53    42    41    2
    54    16    10   am
    55    41    50   am
    56    23    22    1
    57    21    20    1
    58    21    22    1
    59    12     9    1
    60    10     9    1
    61    10    11    2
    62     9     8    1
    63    50    51    1
    64    77    78    1
    65     4     3    2
    66    57    56    2
    67    90    89    1
    68    51    52    1
    69    78    79    1
    70    78    81    1
    71     8     3   am
    72     3     2    1
    73    89    86    1
    74    52    53    2
    75    52    54   am
    76    79    80    2
    77    79    85   am
    78    56    55    1
    79    54    55    1
    80    85    86    1
    81    81    82    1
    82    83    82    2
    83    86    87    1
    84     2     1    1
    85     2     5    1
    86     6     5    1
    87    82    84   am
    88    88    87    2
    89     7     5    1
    90    87    91   am
    91    94    93    2
    92    91    92    1
    93    93    92    1
    94    92    95    1
    95    97    95    1
    96    95    96    1
