@<TRIPOS>MOLECULE
tmp/3fuuA00.pdb
 163 159 0 0 0
SMALL
GASTEIGER

@<TRIPOS>ATOM
      1  N         30.2460    4.3040   23.8110 N.3    20  PHE20      -0.1227
      2  CA        29.6190    5.4480   23.1790 C.3    20  PHE20       0.1736
      3  C         29.6880    5.3500   21.6580 C.2    20  PHE20       0.2596
      4  O         29.3170    6.2930   20.9880 O.2    20  PHE20      -0.2718
      5  CB        30.2850    6.7560   23.6560 C.3    20  PHE20       0.0547
      6  CG        29.9880    7.1090   25.1020 C.ar   20  PHE20      -0.0202
      7  CD1       28.8540    7.8500   25.4310 C.ar   20  PHE20      -0.0042
      8  CD2       30.8380    6.6960   26.1360 C.ar   20  PHE20      -0.0042
      9  CE1       28.5760    8.1830   26.7740 C.ar   20  PHE20      -0.0003
     10  CE2       30.5720    7.0360   27.4530 C.ar   20  PHE20      -0.0003
     11  CZ        29.4290    7.7710   27.7780 C.ar   20  PHE20      -0.0000
     12  N         30.1400    4.2080   21.1260 N.am   21  GLY21      -0.1942
     13  CA        30.2630    4.0440   19.6660 C.3    21  GLY21       0.2014
     14  C         31.0690    5.1780   19.0500 C.2    21  GLY21       0.2639
     15  O         30.7260    5.7260   18.0020 O.2    21  GLY21      -0.2714
     16  N         32.1440    5.5570   19.7250 N.am   22  GLN22      -0.1963
     17  CA        32.9260    6.7240   19.2820 C.3    22  GLN22       0.1733
     18  C         33.8590    6.4330   18.1260 C.2    22  GLN22       0.2616
     19  O         34.8640    5.7300   18.2830 O.2    22  GLN22      -0.2715
     20  CB        33.7240    7.3050   20.4540 C.3    22  GLN22       0.0408
     21  CG        32.8190    8.0730   21.3810 C.3    22  GLN22       0.0908
     22  CD        33.4510    8.5300   22.6890 C.2    22  GLN22       0.2608
     23  OE1       34.5930    8.2100   23.0160 O.2    22  GLN22      -0.2717
     24  NE2       32.6970    9.3090   23.4280 N.am   22  GLN22      -0.0878
     25  N         33.5020    6.9330   16.9690 N.am   23  ASN23      -0.1958
     26  CA        34.3790    6.9160   15.8370 C.3    23  ASN23       0.1819
     27  C         34.2900    8.2910   15.2140 C.2    23  ASN23       0.2621
     28  O         33.2970    8.6440   14.7050 O.2    23  ASN23      -0.2715
     29  CB        33.9560    5.7930   14.8630 C.3    23  ASN23       0.1195
     30  CG        34.0590    4.4160   15.4870 C.2    23  ASN23       0.2630
     31  OD1       33.1280    3.9140   16.0770 O.2    23  ASN23      -0.2716
     32  ND2       35.1970    3.8250   15.3700 N.am   23  ASN23      -0.0877
     33  N         35.3480    9.0730   15.3190 N.am   24  PHE24      -0.1974
     34  CA        35.2960   10.5090   14.9740 C.3    24  PHE24       0.1639
     35  C         35.6800   10.7710   13.5240 C.2    24  PHE24       0.2290
     36  O         36.6460   10.2020   13.0110 O.2    24  PHE24      -0.2864
     37  CB        36.1900   11.2970   15.9200 C.3    24  PHE24       0.0560
     38  CG        35.8560   11.0670   17.3640 C.ar   24  PHE24      -0.0200
     39  CD1       34.6410   11.5070   17.8940 C.ar   24  PHE24      -0.0042
     40  CD2       36.7430   10.3850   18.2000 C.ar   24  PHE24      -0.0042
     41  CE1       34.3250   11.3110   19.2190 C.ar   24  PHE24      -0.0003
     42  CE2       36.4220   10.1700   19.5350 C.ar   24  PHE24      -0.0003
     43  CZ        35.2160   10.6260   20.0420 C.ar   24  PHE24      -0.0000
     44  N         23.4390   15.1850   16.6890 N.3    48  VAL48      -0.1231
     45  CA        23.5730   14.1980   17.7500 C.3    48  VAL48       0.1692
     46  C         24.9620   13.6040   17.6330 C.2    48  VAL48       0.2592
     47  O         25.3990   13.1650   16.5560 O.2    48  VAL48      -0.2718
     48  CB        22.4670   13.1020   17.6450 C.3    48  VAL48       0.0266
     49  CG1       22.7470   11.9420   18.6030 C.3    48  VAL48       0.0020
     50  CG2       21.0610   13.7070   17.8840 C.3    48  VAL48       0.0020
     51  N         25.6820   13.6450   18.7450 N.am   49  GLY49      -0.1957
     52  CA        27.0350   13.1090   18.7710 C.3    49  GLY49       0.1869
     53  C         28.0870   13.9910   18.1180 C.2    49  GLY49       0.2309
     54  O         28.7880   13.5150   17.2210 O.2    49  GLY49      -0.2863
     55  N         30.9090   14.9030   19.1460 N.3    51  GLY51      -0.1225
     56  CA        32.2410   14.3080   19.3050 C.3    51  GLY51       0.1811
     57  C         33.3270   15.3400   19.5650 C.2    51  GLY51       0.2280
     58  O         33.3520   15.9630   20.6280 O.2    51  GLY51      -0.2866
     59  N         23.9940   17.6460   20.7480 N.3    69  ILE69      -0.1231
     60  CA        23.6350   16.8270   21.9110 C.3    69  ILE69       0.1692
     61  C         24.6490   15.6880   22.0170 C.2    69  ILE69       0.2592
     62  O         24.7310   14.8380   21.1340 O.2    69  ILE69      -0.2718
     63  CB        22.1880   16.2290   21.7480 C.3    69  ILE69       0.0266
     64  CG1       21.1510   17.3490   21.5550 C.3    69  ILE69       0.0019
     65  CG2       21.7990   15.3260   22.9270 C.3    69  ILE69       0.0020
     66  CD1       19.9220   16.8880   20.8020 C.3    69  ILE69       0.0001
     67  N         25.4050   15.6910   23.1180 N.am   70  GLU70      -0.1966
     68  CA        26.5490   14.7930   23.3230 C.3    70  GLU70       0.1733
     69  C         26.3900   14.0500   24.6600 C.2    70  GLU70       0.2616
     70  O         26.1960   14.6790   25.6900 O.2    70  GLU70      -0.2715
     71  CB        27.8600   15.6020   23.3450 C.3    70  GLU70       0.0429
     72  CG        29.1440   14.7610   23.5820 C.3    70  GLU70       0.1163
     73  CD        29.1840   13.5160   22.7170 C.2    70  GLU70       0.3649
     74  OE1       29.1890   13.6540   21.4630 O.co2  70  GLU70      -0.2457
     75  OE2       29.1580   12.3940   23.2640 O.co2  70  GLU70      -0.2457
     76  N         26.4660   12.7230   24.6390 N.am   71  LYS71      -0.1963
     77  CA        26.2470   11.9250   25.8700 C.3    71  LYS71       0.1728
     78  C         27.5040   11.8510   26.7350 C.2    71  LYS71       0.2616
     79  O         27.4120   11.7540   27.9730 O.2    71  LYS71      -0.2715
     80  CB        25.7880   10.5030   25.5410 C.3    71  LYS71       0.0311
     81  CG        25.1920    9.7350   26.7440 C.3    71  LYS71       0.0038
     82  CD        24.7550    8.3450   26.3060 C.3    71  LYS71       0.0206
     83  CE        24.1450    7.5740   27.4690 C.3    71  LYS71       0.1093
     84  NZ        25.1940    7.1090   28.3970 N.3    71  LYS71      -0.1314
     85  N         28.6750   11.8940   26.0990 N.am   72  ASP72      -0.1971
     86  CA        29.9330   11.7810   26.8600 C.3    72  ASP72       0.1709
     87  C         30.4200   13.1330   27.4170 C.2    72  ASP72       0.2293
     88  O         31.0200   13.9320   26.7010 O.2    72  ASP72      -0.2864
     89  CB        31.0150   11.1250   25.9860 C.3    72  ASP72       0.1436
     90  CG        32.2500   10.7320   26.7710 C.2    72  ASP72       0.3671
     91  OD1       32.3410   11.0540   27.9820 O.co2  72  ASP72      -0.2456
     92  OD2       33.1240   10.0850   26.1650 O.co2  72  ASP72      -0.2456
     93  N         33.8580   14.8510   26.6610 N.3    75  LEU75      -0.1245
     94  CA        34.1680   15.6220   25.4550 C.3    75  LEU75       0.1561
     95  C         33.9490   17.1290   25.6160 C.2    75  LEU75       0.2260
     96  O         34.1810   17.8900   24.6770 O.2    75  LEU75      -0.2867
     97  CB        33.3830   15.0840   24.2620 C.3    75  LEU75       0.0270
     98  CG        33.6260   13.5940   24.0130 C.3    75  LEU75       0.0019
     99  CD1       32.7400   13.0930   22.8830 C.3    75  LEU75       0.0001
    100  CD2       35.0800   13.3660   23.6870 C.3    75  LEU75       0.0001
    101  N         23.5580   15.1520   27.1950 N.3    93  GLN93      -0.1231
    102  CA        22.4290   14.2960   27.4980 C.3    93  GLN93       0.1698
    103  C         22.4500   13.1180   26.5450 C.2    93  GLN93       0.2592
    104  O         23.0860   13.1790   25.4860 O.2    93  GLN93      -0.2718
    105  CB        21.1250   15.0970   27.3360 C.3    93  GLN93       0.0381
    106  CG        19.8320   14.3110   27.5820 C.3    93  GLN93       0.0905
    107  CD        18.6010   14.9840   26.9960 C.2    93  GLN93       0.2608
    108  OE1       18.6560   16.1100   26.4890 O.2    93  GLN93      -0.2717
    109  NE2       17.4730   14.3010   27.0870 N.am   93  GLN93      -0.0878
    110  N         21.7670   12.0480   26.9330 N.am   94  ASP94      -0.1960
    111  CA        21.4850   10.9260   26.0450 C.3    94  ASP94       0.1840
    112  C         20.4600   11.4210   25.0400 C.2    94  ASP94       0.2621
    113  O         19.3710   11.8460   25.4230 O.2    94  ASP94      -0.2715
    114  CB        20.9250    9.7590   26.8590 C.3    94  ASP94       0.1450
    115  CG        20.6580    8.5030   26.0220 C.2    94  ASP94       0.3671
    116  OD1       20.5990    8.5530   24.7700 O.co2  94  ASP94      -0.2456
    117  OD2       20.4870    7.4320   26.6430 O.co2  94  ASP94      -0.2456
    118  N         20.8090   11.3960   23.7540 N.am   95  ALA95      -0.1977
    119  CA        19.8750   11.8970   22.7470 C.3    95  ALA95       0.1597
    120  C         18.5830   11.0970   22.6340 C.2    95  ALA95       0.2287
    121  O         17.5690   11.6200   22.1390 O.2    95  ALA95      -0.2864
    122  CB        20.5530   11.9890   21.3840 C.3    95  ALA95       0.0319
    123  N         26.8120   12.6790   12.5430 N.3   112  ASN112     -0.1225
    124  CA        27.5480   11.4200   12.4280 C.3   112  ASN112      0.1785
    125  C         26.9710   10.5740   13.5580 C.2   112  ASN112      0.2597
    126  O         27.4330   10.6850   14.7040 O.2   112  ASN112     -0.2718
    127  CB        29.0350   11.6850   12.6700 C.3   112  ASN112      0.1169
    128  CG        29.8600   10.4070   12.6520 C.2   112  ASN112      0.2627
    129  OD1       29.4050    9.3910   12.1470 O.2   112  ASN112     -0.2716
    130  ND2       31.0340   10.4460   13.2670 N.am  112  ASN112     -0.0877
    131  N         25.9830    9.7380   13.2670 N.am  113  LEU113     -0.1966
    132  CA        25.2290    9.1110   14.3640 C.3   113  LEU113      0.1713
    133  C         25.9880    7.9640   15.0300 C.2   113  LEU113      0.2462
    134  O         26.6120    7.1630   14.3590 O.2   113  LEU113     -0.2730
    135  CB        23.8830    8.5980   13.8940 C.3   113  LEU113      0.0310
    136  CG        22.9100    9.7460   13.5330 C.3   113  LEU113      0.0022
    137  CD1       21.7200    9.1290   12.8750 C.3   113  LEU113      0.0001
    138  CD2       22.4790   10.5860   14.7570 C.3   113  LEU113      0.0001
    139  N         25.8550    7.8480   16.3680 N.am  114  PRO114     -0.2651
    140  CA        26.4440    6.6730   17.0280 C.3   114  PRO114      0.1628
    141  C         25.6790    5.4280   16.5670 C.2   114  PRO114      0.2315
    142  O         24.4360    5.4300   16.5550 O.2   114  PRO114     -0.2861
    143  CB        26.1880    6.9310   18.5210 C.2   114  PRO114     -0.0016
    144  CG        25.4870    8.1980   18.6180 C.2   114  PRO114     -0.0072
    145  CD        25.1220    8.7270   17.2840 C.3   114  PRO114      0.1203
    146  N         24.8140    2.6070   17.6120 N.3   116  HIS116     -0.1226
    147  CA        23.9020    1.8180   18.4410 C.3   116  HIS116      0.1752
    148  C         22.5880    2.5020   18.7370 C.2   116  HIS116      0.2595
    149  O         21.6920    1.8510   19.2760 O.2   116  HIS116     -0.2718
    150  CB        24.5710    1.4350   19.7400 C.3   116  HIS116      0.0759
    151  CG        24.9950    2.6070   20.5520 C.ar  116  HIS116      0.0818
    152  ND1       26.0610    3.4030   20.1940 N.ar  116  HIS116     -0.2268
    153  CD2       24.5070    3.1230   21.7040 C.ar  116  HIS116      0.1154
    154  CE1       26.2090    4.3580   21.0900 C.ar  116  HIS116      0.1986
    155  NE2       25.2840    4.2060   22.0210 N.ar  116  HIS116     -0.2212
    156  N         22.4700    3.7970   18.4160 N.am  117  ILE117     -0.1980
    157  CA        21.1840    4.4750   18.5940 C.3   117  ILE117      0.1595
    158  C         20.5810    4.9420   17.2760 C.2   117  ILE117      0.2287
    159  O         19.4430    5.3700   17.2770 O.2   117  ILE117     -0.2864
    160  CB        21.2360    5.6670   19.5600 C.3   117  ILE117      0.0276
    161  CG1       21.9780    6.8560   18.9300 C.3   117  ILE117      0.0022
    162  CG2       21.8940    5.2500   20.9040 C.3   117  ILE117      0.0022
    163  CD1       21.8650    8.1400   19.7300 C.3   117  ILE117      0.0001
@<TRIPOS>BOND
     1   129   128    2
     2   124   123    1
     3   124   127    1
     4   124   125    1
     5   128   127    1
     6   128   130   am
     7   137   136    1
     8    36    35    2
     9   131   125   am
    10   131   132    1
    11    35    34    1
    12   136   135    1
    13   136   138    1
    14   125   126    2
    15   135   132    1
    16   134   133    2
    17   132   133    1
    18    28    27    2
    19    29    30    1
    20    29    26    1
    21    34    33    1
    22    34    37    1
    23   133   139   am
    24    27    33   am
    25    27    26    1
    26    32    30   am
    27    30    31    2
    28    26    25    1
    29    37    38    1
    30   139   140    1
    31   139   145    1
    32   142   141    2
    33    47    46    2
    34   141   140    1
    35    44    45    1
    36    25    18   am
    37   140   143    1
    38    54    53    2
    39   158   159    2
    40   158   157    1
    41   145   144    1
    42    38    39   ar
    43    38    40   ar
    44   146   147    1
    45    46    45    1
    46    46    51   am
    47    48    45    1
    48    48    50    1
    49    48    49    1
    50    39    41   ar
    51    15    14    2
    52    53    52    1
    53    18    19    2
    54    18    17    1
    55    40    42   ar
    56   156   157    1
    57   156   148   am
    58   147   148    1
    59   147   150    1
    60   143   144    2
    61   157   160    1
    62   148   149    2
    63    51    52    1
    64   161   160    1
    65   161   163    1
    66    14    13    1
    67    14    16   am
    68    55    56    1
    69    41    43   ar
    70    17    16    1
    71    17    20    1
    72    56    57    1
    73    42    43   ar
    74   160   162    1
    75    57    58    2
    76    13    12    1
    77   150   151    1
    78   152   151   ar
    79   152   154   ar
    80    20    21    1
    81   151   153   ar
    82    59    60    1
    83    66    64    1
    84     4     3    2
    85   154   155   ar
    86    12     3   am
    87    62    61    2
    88    21    22    1
    89   122   119    1
    90    74    73   ar
    91    64    63    1
    92     3     2    1
    93   153   155   ar
    94    63    60    1
    95    63    65    1
    96    60    61    1
    97    61    67   am
    98   121   120    2
    99   120   119    1
   100    22    23    2
   101    22    24   am
   102    73    75   ar
   103    73    72    1
   104   119   118    1
   105    99    98    1
   106    67    68    1
   107     2     5    1
   108     2     1    1
   109    68    71    1
   110    68    69    1
   111    71    72    1
   112     5     6    1
   113   100    98    1
   114   118   112   am
   115    98    97    1
   116    97    94    1
   117    76    69   am
   118    76    77    1
   119    69    70    2
   120    96    95    2
   121   116   115   ar
   122   112   113    2
   123   112   111    1
   124     6     7   ar
   125     6     8   ar
   126     7     9   ar
   127    94    95    1
   128    94    93    1
   129   104   103    2
   130    80    77    1
   131    80    81    1
   132    77    78    1
   133    89    90    1
   134    89    86    1
   135   115   117   ar
   136   115   114    1
   137   111   114    1
   138   111   110    1
   139    85    78   am
   140    85    86    1
   141     8    10   ar
   142    92    90   ar
   143    82    81    1
   144    82    83    1
   145   108   107    2
   146   103   110   am
   147   103   102    1
   148    88    87    2
   149    78    79    2
   150    90    91   ar
   151     9    11   ar
   152    86    87    1
   153   107   109   am
   154   107   106    1
   155   101   102    1
   156   105   102    1
   157   105   106    1
   158    10    11   ar
   159    83    84    1
