@<TRIPOS>MOLECULE
tmp/3fuxC00.pdb
 194 192 0 0 0
SMALL
GASTEIGER

@<TRIPOS>ATOM
      1  N         17.6960   36.4360  -11.1180 N.3    22  PHE22      -0.1227
      2  CA        16.9680   37.0360   -9.9960 C.3    22  PHE22       0.1736
      3  C         16.7970   38.5750  -10.1100 C.2    22  PHE22       0.2596
      4  O         16.3120   39.2040   -9.1760 O.2    22  PHE22      -0.2718
      5  CB        17.6550   36.7400   -8.6440 C.3    22  PHE22       0.0547
      6  CG        17.4740   35.3290   -8.1380 C.ar   22  PHE22      -0.0202
      7  CD1       16.3930   34.9860   -7.3360 C.ar   22  PHE22      -0.0042
      8  CD2       18.4250   34.3570   -8.4240 C.ar   22  PHE22      -0.0042
      9  CE1       16.2360   33.6700   -6.8500 C.ar   22  PHE22      -0.0003
     10  CE2       18.2710   33.0240   -7.9410 C.ar   22  PHE22      -0.0003
     11  CZ        17.1810   32.7000   -7.1520 C.ar   22  PHE22      -0.0000
     12  N         17.2160   39.1740  -11.2220 N.am   23  GLY23      -0.1942
     13  CA        17.1350   40.6420  -11.3590 C.3    23  GLY23       0.2014
     14  C         17.9290   41.3760  -10.2880 C.2    23  GLY23       0.2639
     15  O         17.5010   42.4140   -9.7750 O.2    23  GLY23      -0.2714
     16  N         19.0820   40.8180   -9.9230 N.am   24  GLN24      -0.1963
     17  CA        19.8860   41.3920   -8.8370 C.3    24  GLN24       0.1733
     18  C         20.7010   42.6230   -9.2480 C.2    24  GLN24       0.2616
     19  O         21.6470   42.5350  -10.0370 O.2    24  GLN24      -0.2715
     20  CB        20.7980   40.2970   -8.2500 C.3    24  GLN24       0.0408
     21  CG        19.9440   39.3360   -7.4510 C.3    24  GLN24       0.0908
     22  CD        20.6980   38.1450   -6.8850 C.2    24  GLN24       0.2608
     23  OE1       21.8740   37.9490   -7.1540 O.2    24  GLN24      -0.2717
     24  NE2       20.0060   37.3570   -6.0830 N.am   24  GLN24      -0.0878
     25  N         20.3130   43.7600   -8.7300 N.am   25  ASN25      -0.1958
     26  CA        21.0520   44.9690   -8.8300 C.3    25  ASN25       0.1819
     27  C         21.0020   45.6400   -7.4640 C.2    25  ASN25       0.2621
     28  O         19.9910   46.1090   -7.0770 O.2    25  ASN25      -0.2715
     29  CB        20.4380   45.8890   -9.8700 C.3    25  ASN25       0.1195
     30  CG        20.3890   45.2840  -11.2260 C.2    25  ASN25       0.2630
     31  OD1       19.4360   44.6910  -11.5990 O.2    25  ASN25      -0.2716
     32  ND2       21.4100   45.4970  -11.9790 N.am   25  ASN25      -0.0877
     33  N         22.1040   45.6720   -6.7630 N.am   26  PHE26      -0.1974
     34  CA        22.0590   46.0980   -5.3690 C.3    26  PHE26       0.1639
     35  C         22.4070   47.5550   -5.2290 C.2    26  PHE26       0.2290
     36  O         23.2350   48.0810   -5.9490 O.2    26  PHE26      -0.2864
     37  CB        23.0220   45.2440   -4.5360 C.3    26  PHE26       0.0560
     38  CG        22.7980   43.7690   -4.6770 C.ar   26  PHE26      -0.0200
     39  CD1       21.6380   43.1670   -4.1950 C.ar   26  PHE26      -0.0042
     40  CD2       23.7630   42.9560   -5.3110 C.ar   26  PHE26      -0.0042
     41  CE1       21.4360   41.7960   -4.3350 C.ar   26  PHE26      -0.0003
     42  CE2       23.5690   41.5930   -5.4410 C.ar   26  PHE26      -0.0003
     43  CZ        22.4020   40.9980   -4.9710 C.ar   26  PHE26      -0.0000
     44  N         10.5450   43.6480   -0.0630 N.3    50  VAL50      -0.1231
     45  CA        10.7000   42.5390   -1.0060 C.3    50  VAL50       0.1692
     46  C         12.0510   42.6850   -1.6920 C.2    50  VAL50       0.2592
     47  O         12.3920   43.7530   -2.1880 O.2    50  VAL50      -0.2718
     48  CB         9.5450   42.4760   -2.0310 C.3    50  VAL50       0.0266
     49  CG1        9.8660   41.4850   -3.1930 C.3    50  VAL50       0.0020
     50  CG2        8.2150   42.1270   -1.3140 C.3    50  VAL50       0.0020
     51  N         12.8550   41.6310   -1.6420 N.am   51  GLY51      -0.1957
     52  CA        14.1690   41.6720   -2.2780 C.3    51  GLY51       0.1869
     53  C         15.2140   42.4410   -1.4860 C.2    51  GLY51       0.2309
     54  O         15.8340   43.3680   -2.0070 O.2    51  GLY51      -0.2863
     55  N         18.1860   41.6420   -0.7000 N.3    53  GLY53      -0.1225
     56  CA        19.5050   41.5190   -1.3480 C.3    53  GLY53       0.1811
     57  C         20.6060   41.3590   -0.3210 C.2    53  GLY53       0.2280
     58  O         20.6730   40.3440    0.3880 O.2    53  GLY53      -0.2866
     59  N         11.5200   39.7440    2.5700 N.3    71  ILE71      -0.1231
     60  CA        11.2330   38.5140    1.8280 C.3    71  ILE71       0.1692
     61  C         12.1800   38.4040    0.6310 C.2    71  ILE71       0.2592
     62  O         12.1570   39.2680   -0.2710 O.2    71  ILE71      -0.2718
     63  CB         9.7680   38.5340    1.3130 C.3    71  ILE71       0.0266
     64  CG1        8.7990   38.7120    2.4790 C.3    71  ILE71       0.0019
     65  CG2        9.4870   37.2780    0.5450 C.3    71  ILE71       0.0020
     66  CD1        7.5160   39.4080    2.0770 C.3    71  ILE71       0.0001
     67  N         13.0000   37.3350    0.6420 N.am   72  GLU72      -0.1966
     68  CA        14.0880   37.1760   -0.3360 C.3    72  GLU72       0.1733
     69  C         14.0260   35.7880   -0.9650 C.2    72  GLU72       0.2616
     70  O         14.0760   34.7940   -0.2530 O.2    72  GLU72      -0.2715
     71  CB        15.4790   37.3770    0.3360 C.3    72  GLU72       0.0429
     72  CG        16.6960   37.0810   -0.5560 C.3    72  GLU72       0.1163
     73  CD        16.6430   37.8800   -1.8610 C.2    72  GLU72       0.3649
     74  OE1       16.6290   39.1190   -1.7620 O.co2  72  GLU72      -0.2457
     75  OE2       16.6120   37.2950   -2.9410 O.co2  72  GLU72      -0.2457
     76  N         13.9740   35.7160   -2.2860 N.am   73  LYS73      -0.1963
     77  CA        13.8560   34.4210   -2.9560 C.3    73  LYS73       0.1728
     78  C         15.1750   33.6620   -3.0730 C.2    73  LYS73       0.2616
     79  O         15.2010   32.4160   -3.0890 O.2    73  LYS73      -0.2715
     80  CB        13.2410   34.5490   -4.3410 C.3    73  LYS73       0.0311
     81  CG        12.8760   33.1790   -4.9120 C.3    73  LYS73       0.0038
     82  CD        12.2120   33.2420   -6.2740 C.3    73  LYS73       0.0206
     83  CE        12.0460   31.8150   -6.7850 C.3    73  LYS73       0.1093
     84  NZ        11.6110   31.7280   -8.2130 N.3    73  LYS73      -0.1314
     85  N         16.2690   34.4100   -3.1670 N.am   74  ASP74      -0.1971
     86  CA        17.5590   33.7490   -3.3800 C.3    74  ASP74       0.1709
     87  C         18.1580   33.2310   -2.0710 C.2    74  ASP74       0.2293
     88  O         18.7390   34.0070   -1.3190 O.2    74  ASP74      -0.2864
     89  CB        18.5330   34.7020   -4.0970 C.3    74  ASP74       0.1436
     90  CG        19.8280   34.0170   -4.5170 C.2    74  ASP74       0.3671
     91  OD1       20.0280   32.8280   -4.1930 O.co2  74  ASP74      -0.2456
     92  OD2       20.6640   34.6890   -5.1670 O.co2  74  ASP74      -0.2456
     93  N         21.6050   34.1960   -0.5000 N.3    77  LEU77      -0.1245
     94  CA        21.8220   35.4590    0.2130 C.3    77  LEU77       0.1561
     95  C         21.6490   35.3320    1.7420 C.2    77  LEU77       0.2260
     96  O         21.8300   36.3170    2.4800 O.2    77  LEU77      -0.2867
     97  CB        20.8870   36.5390   -0.3430 C.3    77  LEU77       0.0270
     98  CG        21.1380   36.9110   -1.8140 C.3    77  LEU77       0.0019
     99  CD1       20.1250   37.9580   -2.2290 C.3    77  LEU77       0.0001
    100  CD2       22.5740   37.4260   -1.9720 C.3    77  LEU77       0.0001
    101  N         11.6000   33.1080    0.5170 N.3    95  GLN95      -0.1231
    102  CA        10.5060   32.6690   -0.2640 C.3    95  GLN95       0.1698
    103  C         10.3500   33.5630   -1.4710 C.2    95  GLN95       0.2592
    104  O         10.8600   34.6340   -1.5160 O.2    95  GLN95      -0.2718
    105  CB         9.2550   32.7250    0.6000 C.3    95  GLN95       0.0381
    106  CG         7.9550   32.5910   -0.1170 C.3    95  GLN95       0.0905
    107  CD         6.7330   33.0100    0.7030 C.2    95  GLN95       0.2608
    108  OE1        5.7370   33.3330    0.1460 O.2    95  GLN95      -0.2717
    109  NE2        6.8220   32.9590    1.9900 N.am   95  GLN95      -0.0878
    110  N          9.6370   33.0760   -2.4450 N.am   96  ASP96      -0.1960
    111  CA         9.2020   33.8790   -3.5560 C.3    96  ASP96       0.1840
    112  C          8.1280   34.8550   -3.0530 C.2    96  ASP96       0.2622
    113  O          7.0860   34.4100   -2.5530 O.2    96  ASP96      -0.2715
    114  CB         8.6030   32.9450   -4.6060 C.3    96  ASP96       0.1450
    115  CG         8.1060   33.6730   -5.8390 C.2    96  ASP96       0.3671
    116  OD1        7.9170   34.9100   -5.8260 O.co2  96  ASP96      -0.2456
    117  OD2        7.8710   32.9660   -6.8470 O.co2  96  ASP96      -0.2456
    118  N          8.3660   36.1660   -3.2070 N.am   97  ALA97      -0.1963
    119  CA         7.4110   37.1900   -2.6810 C.3    97  ALA97       0.1728
    120  C          6.0410   37.0950   -3.3220 C.2    97  ALA97       0.2616
    121  O          5.0520   37.5310   -2.7340 O.2    97  ALA97      -0.2715
    122  CB         7.9420   38.6130   -2.8370 C.3    97  ALA97       0.0334
    123  N          5.9760   36.5360   -4.5240 N.am   98  LEU98      -0.1977
    124  CA         4.6690   36.3330   -5.1790 C.3    98  LEU98       0.1596
    125  C          3.7850   35.2830   -4.4700 C.2    98  LEU98       0.2287
    126  O          2.5870   35.2070   -4.7390 O.2    98  LEU98      -0.2864
    127  CB         4.8510   36.0010   -6.6690 C.3    98  LEU98       0.0297
    128  CG         5.5700   37.0590   -7.5240 C.3    98  LEU98       0.0022
    129  CD1        5.8780   36.4910   -8.9070 C.3    98  LEU98       0.0001
    130  CD2        4.7860   38.3190   -7.6510 C.3    98  LEU98       0.0001
    131  N         13.5850   47.8810   -2.9760 N.3   114  ASN114     -0.1225
    132  CA        14.3130   47.9300   -4.2450 C.3   114  ASN114      0.1785
    133  C         13.8640   46.6780   -5.0380 C.2   114  ASN114      0.2597
    134  O         14.4750   45.6030   -4.9990 O.2   114  ASN114     -0.2718
    135  CB        15.8250   47.8740   -3.9650 C.3   114  ASN114      0.1169
    136  CG        16.6310   47.8170   -5.2470 C.2   114  ASN114      0.2627
    137  OD1       16.1520   48.2450   -6.3120 O.2   114  ASN114     -0.2716
    138  ND2       17.8390   47.2390   -5.1660 N.am  114  ASN114     -0.0877
    139  N         12.7650   46.8300   -5.7680 N.am  115  LEU115     -0.1966
    140  CA        12.0790   45.6640   -6.3340 C.3   115  LEU115      0.1713
    141  C         12.8090   45.0550   -7.5460 C.2   115  LEU115      0.2458
    142  O         13.3510   45.7940   -8.3930 O.2   115  LEU115     -0.2730
    143  CB        10.6360   46.0510   -6.7140 C.3   115  LEU115      0.0310
    144  CG         9.6440   46.3730   -5.5920 C.3   115  LEU115      0.0022
    145  CD1        8.3200   46.8890   -6.2240 C.3   115  LEU115      0.0001
    146  CD2        9.3990   45.1510   -4.6990 C.3   115  LEU115      0.0001
    147  N         12.7840   43.7230   -7.6560 N.am  116  PRO116     -0.2716
    148  CA        13.3030   43.1020   -8.9020 C.3   116  PRO116      0.1536
    149  C         12.3660   43.4610  -10.0540 C.2   116  PRO116      0.2599
    150  O         11.1380   43.3780   -9.9100 O.2   116  PRO116     -0.2715
    151  CB        13.2520   41.6040   -8.6090 C.3   116  PRO116      0.0310
    152  CG        12.4340   41.4040   -7.3980 C.3   116  PRO116      0.0237
    153  CD        12.2690   42.7440   -6.6920 C.3   116  PRO116      0.0939
    154  N         12.9410   43.8900  -11.1620 N.am  117  TYR117     -0.1960
    155  CA        12.1440   44.3920  -12.2920 C.3   117  TYR117      0.1771
    156  C         11.0640   43.4310  -12.7720 C.2   117  TYR117      0.2620
    157  O          9.9530   43.8340  -13.1050 O.2   117  TYR117     -0.2715
    158  CB        13.0230   44.8660  -13.4420 C.3   117  TYR117      0.0574
    159  CG        13.6180   43.7770  -14.3100 C.ar  117  TYR117     -0.0198
    160  CD1       12.9290   43.3020  -15.4190 C.ar  117  TYR117     -0.0009
    161  CD2       14.8710   43.2200  -14.0140 C.ar  117  TYR117     -0.0009
    162  CE1       13.4820   42.2860  -16.2200 C.ar  117  TYR117      0.0417
    163  CE2       15.4330   42.2060  -14.8110 C.ar  117  TYR117      0.0417
    164  CZ        14.7340   41.7560  -15.9070 C.ar  117  TYR117      0.1957
    165  OH        15.2700   40.7670  -16.7000 O.3   117  TYR117     -0.2866
    166  N         11.3960   42.1480  -12.8030 N.am  118  HIS118     -0.1959
    167  CA        10.5160   41.1590  -13.4230 C.3   118  HIS118      0.1787
    168  C          9.2240   40.8550  -12.6340 C.2   118  HIS118      0.2620
    169  O          8.3030   40.2360  -13.1670 O.2   118  HIS118     -0.2715
    170  CB        11.3290   39.8940  -13.7170 C.3   118  HIS118      0.0785
    171  CG        11.7900   39.1840  -12.4940 C.ar  118  HIS118      0.0821
    172  ND1       12.8220   39.6530  -11.7040 N.ar  118  HIS118     -0.2267
    173  CD2       11.3800   38.0170  -11.9340 C.ar  118  HIS118      0.1154
    174  CE1       12.9940   38.8280  -10.6830 C.ar  118  HIS118      0.1986
    175  NE2       12.1280   37.8340  -10.7920 N.ar  118  HIS118     -0.2212
    176  N          9.1370   41.3120  -11.3890 N.am  119  ILE119     -0.1977
    177  CA         7.9330   41.0660  -10.5870 C.3   119  ILE119      0.1596
    178  C          7.2530   42.3590  -10.1400 C.2   119  ILE119      0.2287
    179  O          6.1840   42.2940   -9.5360 O.2   119  ILE119     -0.2864
    180  CB         8.2030   40.1900   -9.3330 C.3   119  ILE119      0.0276
    181  CG1        8.9540   40.9960   -8.2650 C.3   119  ILE119      0.0022
    182  CG2        8.8310   38.8240   -9.7220 C.3   119  ILE119      0.0022
    183  CD1        8.8880   40.3580   -6.8420 C.3   119  ILE119      0.0001
    184  N         23.5430   51.5190   -8.6430 N.3   181  PHE181     -0.1241
    185  CA        23.3900   50.0770   -8.4150 C.3   181  PHE181      0.1605
    186  C         24.6380   49.3340   -8.8410 C.2   181  PHE181      0.2264
    187  O         25.3510   49.7680   -9.7780 O.2   181  PHE181     -0.2867
    188  CB        22.2280   49.4910   -9.2180 C.3   181  PHE181      0.0534
    189  CG        20.8980   50.1870   -9.0020 C.ar  181  PHE181     -0.0203
    190  CD1       19.9870   49.7000   -8.0590 C.ar  181  PHE181     -0.0042
    191  CD2       20.5380   51.2830   -9.7950 C.ar  181  PHE181     -0.0042
    192  CE1       18.7290   50.3380   -7.8420 C.ar  181  PHE181     -0.0003
    193  CE2       19.3230   51.9140   -9.6200 C.ar  181  PHE181     -0.0003
    194  CZ        18.3940   51.4500   -8.6340 C.ar  181  PHE181     -0.0000
@<TRIPOS>BOND
     1   165   164    1
     2   162   164   ar
     3   162   160   ar
     4   164   163   ar
     5   160   159   ar
     6   163   161   ar
     7   159   161   ar
     8   159   158    1
     9   170   167    1
    10   170   171    1
    11   158   155    1
    12   167   166    1
    13   167   168    1
    14   169   168    2
    15   157   156    2
    16   166   156   am
    17   156   155    1
    18   168   176   am
    19   171   173   ar
    20   171   172   ar
    21   155   154    1
    22    32    30   am
    23   173   175   ar
    24   172   174   ar
    25    31    30    2
    26   176   177    1
    27    13    12    1
    28    13    14    1
    29    30    29    1
    30    12     3   am
    31   154   149   am
    32     1     2    1
    33   175   174   ar
    34   177   178    1
    35   177   180    1
    36    14    16   am
    37    14    15    2
    38   178   179    2
    39     3     2    1
    40     3     4    2
    41   149   150    2
    42   149   148    1
    43    19    18    2
    44     2     5    1
    45    16    17    1
    46    29    26    1
    47   191   193   ar
    48   191   189   ar
    49   187   186    2
    50   182   180    1
    51   193   194   ar
    52   180   181    1
    53    18    17    1
    54    18    25   am
    55   188   189    1
    56   188   185    1
    57   189   190   ar
    58   129   128    1
    59   148   151    1
    60   148   147    1
    61   186   185    1
    62    17    20    1
    63    26    25    1
    64    26    27    1
    65     5     6    1
    66   184   185    1
    67   194   192   ar
    68   151   152    1
    69     8     6   ar
    70     8    10   ar
    71   142   141    2
    72   181   183    1
    73    20    21    1
    74    84    83    1
    75     6     7   ar
    76   190   192   ar
    77    10    11   ar
    78   147   141   am
    79   147   153    1
    80   130   128    1
    81   141   140    1
    82   128   127    1
    83    27    28    2
    84    27    33   am
    85    21    22    1
    86   152   153    1
    87     7     9   ar
    88    23    22    2
    89    11     9   ar
    90    22    24   am
    91   117   115   ar
    92    83    82    1
    93    33    34    1
    94   143   140    1
    95   143   144    1
    96   127   124    1
    97   140   139    1
    98   137   136    2
    99    82    81    1
   100   145   144    1
   101    36    35    2
   102   115   116   ar
   103   115   114    1
   104   139   133   am
   105   144   146    1
   106    42    40   ar
   107    42    43   ar
   108    34    35    1
   109    34    37    1
   110    40    38   ar
   111   136   138   am
   112   136   135    1
   113   124   123    1
   114   124   125    1
   115    92    90   ar
   116   133   134    2
   117   133   132    1
   118    43    41   ar
   119    81    80    1
   120   126   125    2
   121    38    37    1
   122    38    39   ar
   123   114   111    1
   124   123   120   am
   125    90    91   ar
   126    90    89    1
   127    80    77    1
   128    41    39   ar
   129   132   135    1
   130   132   131    1
   131    89    86    1
   132   111   112    1
   133   111   110    1
   134    86    85    1
   135    86    87    1
   136   120   121    2
   137   120   119    1
   138   118   112   am
   139   118   119    1
   140    49    48    1
   141    85    78   am
   142    79    78    2
   143    78    77    1
   144   112   113    2
   145    77    76    1
   146    75    73   ar
   147   122   119    1
   148   110   103   am
   149    76    69   am
   150    52    51    1
   151    52    53    1
   152    99    98    1
   153    47    46    2
   154    87    88    2
   155    48    50    1
   156    48    45    1
   157    54    53    2
   158   100    98    1
   159    73    74   ar
   160    73    72    1
   161    98    97    1
   162    46    51   am
   163    46    45    1
   164   104   103    2
   165   103   102    1
   166    56    55    1
   167    56    57    1
   168    45    44    1
   169    69    68    1
   170    69    70    2
   171    72    71    1
   172    93    94    1
   173    97    94    1
   174    68    71    1
   175    68    67    1
   176    57    58    2
   177    62    61    2
   178   102   101    1
   179   102   105    1
   180   106   105    1
   181   106   107    1
   182   108   107    2
   183    94    95    1
   184    65    63    1
   185    61    67   am
   186    61    60    1
   187   107   109   am
   188    63    60    1
   189    63    64    1
   190    95    96    2
   191    60    59    1
   192    66    64    1
