@<TRIPOS>MOLECULE
tmp/3fv4A00.pdb
 206 202 0 0 0
SMALL
GASTEIGER

@<TRIPOS>ATOM
      1  N        -14.0080   46.7420   -1.1620 N.3   111  ASN111     -0.1225
      2  CA       -12.7950   45.9730   -1.3910 C.3   111  ASN111      0.1785
      3  C        -12.5580   44.9840   -0.2560 C.2   111  ASN111      0.2597
      4  O        -11.4920   44.9710    0.3670 O.2   111  ASN111     -0.2718
      5  CB       -11.5540   46.8860   -1.5360 C.3   111  ASN111      0.1169
      6  CG       -11.5600   47.5820   -2.8980 C.2   111  ASN111      0.2627
      7  OD1      -11.8830   47.0580   -3.9640 O.2   111  ASN111     -0.2716
      8  ND2      -11.1830   48.8660   -2.8530 N.am  111  ASN111     -0.0877
      9  N        -13.5810   44.1480   -0.0150 N.am  112  ASN112     -0.1960
     10  CA       -13.3630   43.1310    1.0210 C.3   112  ASN112      0.1819
     11  C        -14.5050   42.1240    0.9870 C.2   112  ASN112      0.2621
     12  O        -15.4720   42.2250    0.2320 O.2   112  ASN112     -0.2715
     13  CB       -13.2740   43.7960    2.3900 C.3   112  ASN112      0.1195
     14  CG       -12.3030   43.1560    3.3650 C.2   112  ASN112      0.2630
     15  OD1      -12.0040   41.9590    3.2500 O.2   112  ASN112     -0.2716
     16  ND2      -11.7690   43.9780    4.2710 N.am  112  ASN112     -0.0877
     17  N        -14.3370   41.1200    1.8390 N.am  113  ALA113     -0.1963
     18  CA       -15.3470   40.0810    2.0720 C.3   113  ALA113      0.1728
     19  C        -15.1990   39.6480    3.5270 C.2   113  ALA113      0.2616
     20  O        -14.1240   39.8310    4.1070 O.2   113  ALA113     -0.2715
     21  CB       -15.1910   38.9040    1.1220 C.3   113  ALA113      0.0334
     22  N        -16.2240   39.0920    4.1450 N.am  114  PHE114     -0.1960
     23  CA       -16.1080   38.7690    5.5570 C.3   114  PHE114      0.1771
     24  C        -17.2150   37.7980    5.9610 C.2   114  PHE114      0.2620
     25  O        -18.2000   37.6040    5.2350 O.2   114  PHE114     -0.2715
     26  CB       -16.1750   40.0220    6.4620 C.3   114  PHE114      0.0574
     27  CG       -17.3850   40.9340    6.3490 C.ar  114  PHE114     -0.0200
     28  CD1      -17.4480   41.8730    5.3220 C.ar  114  PHE114     -0.0042
     29  CD2      -18.4410   40.8860    7.2350 C.ar  114  PHE114     -0.0042
     30  CE1      -18.5150   42.7300    5.1760 C.ar  114  PHE114     -0.0003
     31  CE2      -19.5230   41.7480    7.0980 C.ar  114  PHE114     -0.0003
     32  CZ       -19.5650   42.7000    6.0760 C.ar  114  PHE114     -0.0000
     33  N        -17.0360   37.2230    7.1340 N.am  115  TRP115     -0.1960
     34  CA       -18.0410   36.4010    7.8330 C.3   115  TRP115      0.1771
     35  C        -18.5610   37.2790    8.9700 C.2   115  TRP115      0.2620
     36  O        -17.7460   37.7490    9.7630 O.2   115  TRP115     -0.2715
     37  CB       -17.4530   35.0840    8.3200 C.3   115  TRP115      0.0590
     38  CG       -18.3340   34.3310    9.2640 C.ar  115  TRP115      0.0006
     39  CD1      -18.2890   34.3690   10.6380 C.ar  115  TRP115      0.0946
     40  CD2      -19.3790   33.4260    8.9050 C.ar  115  TRP115      0.0152
     41  NE1      -19.2570   33.5370   11.1460 N.ar  115  TRP115     -0.2442
     42  CE2      -19.9380   32.9430   10.1050 C.ar  115  TRP115      0.0810
     43  CE3      -19.8770   32.9810    7.6810 C.ar  115  TRP115      0.0012
     44  CZ2      -20.9940   32.0340   10.1130 C.ar  115  TRP115      0.0191
     45  CZ3      -20.9180   32.0810    7.6810 C.ar  115  TRP115      0.0001
     46  CH2      -21.4560   31.6220    8.8900 C.ar  115  TRP115      0.0015
     47  N        -19.8720   37.5510    9.0120 N.am  116  ASN116     -0.1958
     48  CA       -20.3380   38.5530    9.9830 C.3   116  ASN116      0.1819
     49  C        -20.8170   37.9140   11.2910 C.2   116  ASN116      0.2621
     50  O        -21.4690   38.6260   12.0750 O.2   116  ASN116     -0.2715
     51  CB       -21.4420   39.4230    9.3860 C.3   116  ASN116      0.1195
     52  CG       -22.7970   38.7260    9.3500 C.2   116  ASN116      0.2630
     53  OD1      -22.8630   37.4950    9.4270 O.2   116  ASN116     -0.2716
     54  ND2      -23.8510   39.5020    9.2190 N.am  116  ASN116     -0.0877
     55  N        -20.4820   36.6500   11.5190 N.am  117  GLY117     -0.1954
     56  CA       -20.9660   35.9310   12.6850 C.3   117  GLY117      0.1869
     57  C        -22.0690   34.9530   12.2800 C.2   117  GLY117      0.2309
     58  O        -22.3190   34.0030   13.0320 O.2   117  GLY117     -0.2863
     59  N         -8.6540   47.7710   -7.3770 N.3   129  THR129     -0.1203
     60  CA        -7.9280   46.9070   -6.4490 C.3   129  THR129      0.1994
     61  C         -8.5210   45.4970   -6.4990 C.2   129  THR129      0.2617
     62  O         -7.7990   44.5090   -6.4000 O.2   129  THR129     -0.2717
     63  CB        -7.9990   47.5180   -5.0380 C.3   129  THR129      0.1784
     64  OG1       -7.3250   48.7840   -5.1070 O.3   129  THR129     -0.2211
     65  CG2       -7.2890   46.6990   -3.9830 C.3   129  THR129      0.0376
     66  N         -9.8460   45.4150   -6.6310 N.am  130  PHE130     -0.1975
     67  CA       -10.5070   44.1100   -6.7040 C.3   130  PHE130      0.1639
     68  C        -11.6350   44.1100   -7.7230 C.2   130  PHE130      0.2290
     69  O        -12.2230   45.1830   -7.9100 O.2   130  PHE130     -0.2864
     70  CB       -11.1780   43.7500   -5.3800 C.3   130  PHE130      0.0560
     71  CG       -10.2520   43.2460   -4.3010 C.ar  130  PHE130     -0.0200
     72  CD1       -9.8250   41.9220   -4.3370 C.ar  130  PHE130     -0.0042
     73  CD2       -9.8420   44.0830   -3.2860 C.ar  130  PHE130     -0.0042
     74  CE1       -8.9650   41.4510   -3.3620 C.ar  130  PHE130     -0.0003
     75  CE2       -8.9690   43.6070   -2.3020 C.ar  130  PHE130     -0.0003
     76  CZ        -8.5700   42.2920   -2.3430 C.ar  130  PHE130     -0.0000
     77  N        -15.4560   39.8280   -5.1370 N.3   133  LEU133     -0.1245
     78  CA       -14.4900   38.9660   -4.4540 C.3   133  LEU133      0.1561
     79  C        -14.9200   37.5120   -4.4420 C.2   133  LEU133      0.2260
     80  O        -14.0760   36.6240   -4.2910 O.2   133  LEU133     -0.2867
     81  CB       -14.2340   39.4820   -3.0240 C.3   133  LEU133      0.0270
     82  CG       -13.1600   40.5970   -3.0180 C.3   133  LEU133      0.0019
     83  CD1      -13.8330   41.9320   -3.3070 C.3   133  LEU133      0.0001
     84  CD2      -12.3950   40.5660   -1.7150 C.3   133  LEU133      0.0001
     85  N        -10.3990   30.7260   -3.4310 N.3   138  ASP138     -0.1225
     86  CA        -9.6630   30.8090   -2.1660 C.3   138  ASP138      0.1805
     87  C        -10.3140   31.8440   -1.2430 C.2   138  ASP138      0.2597
     88  O        -10.2890   31.6570   -0.0190 O.2   138  ASP138     -0.2718
     89  CB        -8.1680   31.0620   -2.3300 C.3   138  ASP138      0.1424
     90  CG        -7.7010   32.2560   -3.1400 C.2   138  ASP138      0.3668
     91  OD1       -8.5220   33.1600   -3.4420 O.co2 138  ASP138     -0.2456
     92  OD2       -6.4670   32.2820   -3.4740 O.co2 138  ASP138     -0.2456
     93  N        -10.9250   32.8920   -1.7830 N.am  139  VAL139     -0.1980
     94  CA       -11.6560   33.8780   -0.9770 C.3   139  VAL139      0.1595
     95  C        -12.9140   33.2510   -0.3620 C.2   139  VAL139      0.2287
     96  O        -13.1130   33.3470    0.8690 O.2   139  VAL139     -0.2864
     97  CB       -12.1290   35.0930   -1.7950 C.3   139  VAL139      0.0276
     98  CG1      -12.8570   36.0820   -0.8900 C.3   139  VAL139      0.0022
     99  CG2      -10.9450   35.7490   -2.4960 C.3   139  VAL139      0.0022
    100  N        -11.8310   30.8110    2.2270 N.3   142  HIS142     -0.1226
    101  CA       -11.3240   31.5600    3.3900 C.3   142  HIS142      0.1752
    102  C        -12.4660   32.0400    4.2740 C.2   142  HIS142      0.2595
    103  O        -12.4320   31.9010    5.5030 O.2   142  HIS142     -0.2718
    104  CB       -10.4980   32.7330    2.8530 C.3   142  HIS142      0.0759
    105  CG        -9.9300   33.7060    3.8560 C.ar  142  HIS142      0.0818
    106  ND1       -8.5700   33.8230    4.0800 N.ar  142  HIS142     -0.2268
    107  CD2      -10.5000   34.6080    4.7040 C.ar  142  HIS142      0.1154
    108  CE1       -8.3350   34.7370    5.0000 C.ar  142  HIS142      0.1986
    109  NE2       -9.4970   35.2430    5.4060 N.ar  142  HIS142     -0.2212
    110  N        -13.4920   32.6300    3.6600 N.am  143  GLU143     -0.1979
    111  CA       -14.6040   33.1050    4.4860 C.3   143  GLU143      0.1602
    112  C        -15.3590   31.9530    5.1500 C.2   143  GLU143      0.2287
    113  O        -15.6620   32.0830    6.3530 O.2   143  GLU143     -0.2864
    114  CB       -15.5390   33.9640    3.6440 C.3   143  GLU143      0.0415
    115  CG       -14.8940   35.1930    2.9890 C.3   143  GLU143      0.1163
    116  CD       -14.0380   36.0400    3.9340 C.2   143  GLU143      0.3649
    117  OE1      -14.3980   36.1980    5.0880 O.co2 143  GLU143     -0.2457
    118  OE2      -13.0000   36.4990    3.4260 O.co2 143  GLU143     -0.2457
    119  N        -13.7250   30.8500    8.2290 N.3   146  HIS146     -0.1241
    120  CA       -13.8780   31.6420    9.4510 C.3   146  HIS146      0.1621
    121  C        -15.0590   31.0980   10.2610 C.2   146  HIS146      0.2264
    122  O        -15.0090   31.0770   11.4790 O.2   146  HIS146     -0.2867
    123  CB       -14.0890   33.1160    9.1370 C.3   146  HIS146      0.0745
    124  CG       -12.8370   33.8950    8.8820 C.ar  146  HIS146      0.0817
    125  ND1      -11.7620   33.8730    9.7450 N.ar  146  HIS146     -0.2268
    126  CD2      -12.5100   34.7110    7.8420 C.ar  146  HIS146      0.1154
    127  CE1      -10.7960   34.6610    9.2530 C.ar  146  HIS146      0.1986
    128  NE2      -11.2380   35.1740    8.1240 N.ar  146  HIS146     -0.2212
    129  N        -10.0450   37.1480   17.4990 N.3   157  TYR157     -0.1241
    130  CA        -9.5980   37.7930   16.2550 C.3   157  TYR157      0.1605
    131  C         -8.6960   38.9800   16.5700 C.2   157  TYR157      0.2264
    132  O         -8.9480   40.0960   16.1300 O.2   157  TYR157     -0.2867
    133  CB       -10.7690   38.2300   15.3830 C.3   157  TYR157      0.0534
    134  CG       -10.4670   38.4430   13.9100 C.ar  157  TYR157     -0.0201
    135  CD1      -10.0280   37.3870   13.1370 C.ar  157  TYR157     -0.0009
    136  CD2      -10.6330   39.6700   13.2950 C.ar  157  TYR157     -0.0009
    137  CE1       -9.7530   37.5370   11.7880 C.ar  157  TYR157      0.0417
    138  CE2      -10.3650   39.8500   11.9320 C.ar  157  TYR157      0.0417
    139  CZ        -9.9230   38.7570   11.1920 C.ar  157  TYR157      0.1957
    140  OH        -9.6360   38.9050    9.8490 O.3   157  TYR157     -0.2866
    141  N         -6.5640   33.7880   10.9280 N.3   166  GLU166     -0.1245
    142  CA        -6.3480   34.1790    9.5400 C.3   166  GLU166      0.1567
    143  C         -5.5800   33.1260    8.7460 C.2   166  GLU166      0.2260
    144  O         -5.9750   32.8230    7.6300 O.2   166  GLU166     -0.2867
    145  CB        -5.5770   35.5050    9.4780 C.3   166  GLU166      0.0388
    146  CG        -6.5280   36.7010    9.4630 C.3   166  GLU166      0.1160
    147  CD        -7.4960   36.6240    8.2950 C.2   166  GLU166      0.3649
    148  OE1       -7.0010   36.4730    7.1470 O.co2 166  GLU166     -0.2457
    149  OE2       -8.7240   36.7190    8.5220 O.co2 166  GLU166     -0.2457
    150  N         -2.6770   33.9540   -2.4340 N.3   188  ILE188     -0.1231
    151  CA        -4.0190   34.2690   -1.9030 C.3   188  ILE188      0.1692
    152  C         -4.6730   35.4400   -2.6350 C.2   188  ILE188      0.2592
    153  O         -4.1780   36.5570   -2.6270 O.2   188  ILE188     -0.2718
    154  CB        -3.9460   34.5830   -0.3900 C.3   188  ILE188      0.0266
    155  CG1       -3.2490   33.5040    0.4430 C.3   188  ILE188      0.0019
    156  CG2       -5.3320   34.8880    0.1590 C.3   188  ILE188      0.0020
    157  CD1       -3.9640   32.1630    0.4570 C.3   188  ILE188      0.0001
    158  N         -5.8230   35.1520   -3.2400 N.am  189  GLY189     -0.1957
    159  CA        -6.6740   36.1850   -3.8240 C.3   189  GLY189      0.1869
    160  C         -6.3010   36.6050   -5.2310 C.2   189  GLY189      0.2309
    161  O         -6.8900   37.5670   -5.7480 O.2   189  GLY189     -0.2863
    162  N         -2.7660   39.1050   -3.1560 N.3   202  LEU202     -0.1231
    163  CA        -2.8950   39.8730   -1.9260 C.3   202  LEU202      0.1693
    164  C         -1.9140   39.4050   -0.8530 C.2   202  LEU202      0.2591
    165  O         -1.2930   40.2290   -0.1740 O.2   202  LEU202     -0.2718
    166  CB        -4.3550   39.8120   -1.4550 C.3   202  LEU202      0.0284
    167  CG        -4.6830   40.5410   -0.1460 C.3   202  LEU202      0.0019
    168  CD1       -4.5820   42.0560   -0.2580 C.3   202  LEU202      0.0001
    169  CD2       -6.0720   40.1080    0.3150 C.3   202  LEU202      0.0001
    170  N         -1.7640   38.0970   -0.6860 N.am  203  ARG203     -0.1980
    171  CA        -0.7620   37.4930    0.1750 C.3   203  ARG203      0.1597
    172  C         -0.1670   36.2950   -0.5820 C.2   203  ARG203      0.2287
    173  O         -0.7450   35.8330   -1.5720 O.2   203  ARG203     -0.2864
    174  CB        -1.3850   36.9820    1.4870 C.3   203  ARG203      0.0334
    175  CG        -2.0270   38.0810    2.3330 C.3   203  ARG203      0.0492
    176  CD        -2.5750   37.4810    3.6170 C.3   203  ARG203      0.2205
    177  NE        -3.8490   36.7980    3.4880 N.pl3 203  ARG203     -0.0865
    178  CZ        -5.0250   37.4070    3.3800 C.cat 203  ARG203      0.5346
    179  NH1       -5.0840   38.7220    3.3760 N.pl3 203  ARG203      0.1354
    180  NH2       -6.1380   36.6870    3.2890 N.pl3 203  ARG203      0.1354
    181  N         -4.8020   46.5850   12.1330 N.3   226  ASP226     -0.1225
    182  CA        -5.2570   45.2800   11.6400 C.3   226  ASP226      0.1805
    183  C         -5.4610   44.2930   12.7740 C.2   226  ASP226      0.2597
    184  O         -5.0880   43.1190   12.6910 O.2   226  ASP226     -0.2718
    185  CB        -4.2460   44.7580   10.6320 C.3   226  ASP226      0.1424
    186  CG        -4.6440   43.4710    9.9360 C.2   226  ASP226      0.3668
    187  OD1       -5.8450   43.2330    9.6760 O.co2 226  ASP226     -0.2456
    188  OD2       -3.7170   42.6860    9.6110 O.co2 226  ASP226     -0.2456
    189  N         -6.0840   44.7420   13.8550 N.am  227  ASN227     -0.1974
    190  CA        -6.3360   43.8780   15.0100 C.3   227  ASN227      0.1688
    191  C         -5.0680   43.2370   15.5440 C.2   227  ASN227      0.2292
    192  O         -5.0250   42.0730   15.9490 O.2   227  ASN227     -0.2864
    193  CB        -7.3830   42.8000   14.6630 C.3   227  ASN227      0.1181
    194  CG        -8.7390   43.4910   14.4950 C.2   227  ASN227      0.2629
    195  OD1       -9.2780   44.0110   15.4700 O.2   227  ASN227     -0.2716
    196  ND2       -9.2640   43.5090   13.2870 N.am  227  ASN227     -0.0877
    197  N         -3.7050   39.8910    9.5450 N.3   231  HIS231     -0.1241
    198  CA        -3.4730   39.5470    8.1500 C.3   231  HIS231      0.1621
    199  C         -1.9950   39.7090    7.7660 C.2   231  HIS231      0.2264
    200  O         -1.6350   39.5220    6.5950 O.2   231  HIS231     -0.2867
    201  CB        -4.3110   40.3910    7.1780 C.3   231  HIS231      0.0745
    202  CG        -5.7900   40.3060    7.3980 C.ar  231  HIS231      0.0817
    203  ND1       -6.5260   41.0940    8.2230 N.ar  231  HIS231     -0.2268
    204  CD2       -6.6670   39.4420    6.8090 C.ar  231  HIS231      0.1154
    205  CE1       -7.8150   40.7480    8.1790 C.ar  231  HIS231      0.1986
    206  NE2       -7.9020   39.7420    7.3290 N.ar  231  HIS231     -0.2212
@<TRIPOS>BOND
     1    69    68    2
     2    68    67    1
     3    59    60    1
     4    67    66    1
     5    67    70    1
     6    66    61   am
     7    61    60    1
     8    61    62    2
     9    60    63    1
    10   161   160    2
    11    70    71    1
    12   160   159    1
    13    77    78    1
    14    64    63    1
    15    63    65    1
    16    78    79    1
    17    78    81    1
    18    79    80    2
    19    72    71   ar
    20    72    74   ar
    21    71    73   ar
    22     7     6    2
    23   159   158    1
    24    92    90   ar
    25    91    90   ar
    26    85    86    1
    27    74    76   ar
    28    83    82    1
    29    73    75   ar
    30   158   152   am
    31   162   163    1
    32    90    89    1
    33    81    82    1
    34    82    84    1
    35     6     8   am
    36     6     5    1
    37   152   153    2
    38   152   151    1
    39    99    97    1
    40   150   151    1
    41    76    75   ar
    42    89    86    1
    43    86    87    1
    44   163   166    1
    45   163   164    1
    46   151   154    1
    47    97    94    1
    48    97    98    1
    49    93    87   am
    50    93    94    1
    51   173   172    2
    52     5     2    1
    53   166   167    1
    54     2     1    1
    55     2     3    1
    56    87    88    2
    57    94    95    1
    58   164   170   am
    59   164   165    2
    60   170   171    1
    61   172   171    1
    62   154   156    1
    63   154   155    1
    64    95    96    2
    65   168   167    1
    66     3     9   am
    67     3     4    2
    68   167   169    1
    69     9    10    1
    70   171   174    1
    71    12    11    2
    72   155   157    1
    73    11    10    1
    74    11    17   am
    75    10    13    1
    76    21    18    1
    77   174   175    1
    78    17    18    1
    79    18    19    1
    80   100   101    1
    81   175   176    1
    82    13    14    1
    83   104   101    1
    84   104   105    1
    85   115   114    1
    86   115   116    1
    87    15    14    2
    88   180   178    1
    89    14    16   am
    90   179   178    1
    91   178   177    2
    92   101   102    1
    93   118   116   ar
    94   177   176    1
    95    19    20    2
    96    19    22   am
    97   114   111    1
    98   110   102   am
    99   110   111    1
   100   105   106   ar
   101   105   107   ar
   102   116   117   ar
   103   106   108   ar
   104    22    23    1
   105   102   103    2
   106   111   112    1
   107   107   109   ar
   108   108   109   ar
   109   112   113    2
   110    30    28   ar
   111    30    32   ar
   112    25    24    2
   113    28    27   ar
   114    23    24    1
   115    23    26    1
   116    24    33   am
   117    32    31   ar
   118    27    26    1
   119    27    29   ar
   120   200   199    2
   121   204   206   ar
   122   204   202   ar
   123    31    29   ar
   124    33    34    1
   125   148   147   ar
   126   201   202    1
   127   201   198    1
   128   206   205   ar
   129   202   203   ar
   130   144   143    2
   131    45    43   ar
   132    45    46   ar
   133    43    40   ar
   134   199   198    1
   135    34    37    1
   136    34    35    1
   137   126   128   ar
   138   126   124   ar
   139   128   127   ar
   140   198   197    1
   141   205   203   ar
   142   119   120    1
   143   147   149   ar
   144   147   146    1
   145    37    38    1
   146   143   142    1
   147   124   123    1
   148   124   125   ar
   149    46    44   ar
   150    40    38   ar
   151    40    42   ar
   152    35    47   am
   153    35    36    2
   154    47    48    1
   155   123   120    1
   156    54    52   am
   157   127   125   ar
   158    38    39   ar
   159    52    51    1
   160    52    53    2
   161    51    48    1
   162   120   121    1
   163   146   145    1
   164   145   142    1
   165   142   141    1
   166   188   186   ar
   167   187   186   ar
   168   140   139    1
   169   186   185    1
   170    48    49    1
   171    42    44   ar
   172    42    41   ar
   173   121   122    2
   174   185   182    1
   175    39    41   ar
   176   139   137   ar
   177   139   138   ar
   178    49    55   am
   179    49    50    2
   180    55    56    1
   181   182   181    1
   182   182   183    1
   183   137   135   ar
   184   138   136   ar
   185    57    56    1
   186    57    58    2
   187   184   183    2
   188   183   189   am
   189   135   134   ar
   190   196   194   am
   191   136   134   ar
   192   189   190    1
   193   134   133    1
   194   194   193    1
   195   194   195    2
   196   193   190    1
   197   190   191    1
   198   133   130    1
   199   191   192    2
   200   132   131    2
   201   130   131    1
   202   130   129    1
