@<TRIPOS>MOLECULE
tmp/3fv5B00.pdb
 108 99 0 0 0
SMALL
GASTEIGER

@<TRIPOS>ATOM
      1  N         16.6870   19.8060   46.2220 N.3    25  VAL25      -0.1245
      2  CA        17.3960   19.8100   44.9530 C.3    25  VAL25       0.1561
      3  C         17.6770   21.2530   44.5490 C.2    25  VAL25       0.2260
      4  O         18.7930   21.5900   44.1800 O.2    25  VAL25      -0.2867
      5  CB        16.5770   19.1090   43.8480 C.3    25  VAL25       0.0252
      6  CG1       17.3850   19.0640   42.5470 C.3    25  VAL25       0.0019
      7  CG2       16.2050   17.6980   44.2950 C.3    25  VAL25       0.0019
      8  N         20.6200   22.8090   46.3170 N.3    28  ASN28      -0.1225
      9  CA        21.9370   22.4260   45.8250 C.3    28  ASN28       0.1785
     10  C         22.3390   23.2490   44.6080 C.2    28  ASN28       0.2597
     11  O         23.5070   23.6290   44.4590 O.2    28  ASN28      -0.2718
     12  CB        21.9640   20.9330   45.4950 C.3    28  ASN28       0.1169
     13  CG        22.0930   20.0720   46.7400 C.2    28  ASN28       0.2627
     14  OD1       23.1930   19.8480   47.2360 O.2    28  ASN28      -0.2716
     15  ND2       20.9670   19.5960   47.2540 N.am   28  ASN28      -0.0877
     16  N         21.3720   23.5360   43.7420 N.am   29  SER29      -0.1952
     17  CA        21.6410   24.3750   42.5800 C.3    29  SER29       0.1924
     18  C         21.9740   25.7990   43.0100 C.2    29  SER29       0.2314
     19  O         22.8880   26.4220   42.4700 O.2    29  SER29      -0.2863
     20  CB        20.4360   24.3910   41.6370 C.3    29  SER29       0.2116
     21  OG        20.5340   23.3600   40.6670 O.3    29  SER29      -0.2180
     22  N         25.5310   26.2100   44.1350 N.3    32  GLU32      -0.1245
     23  CA        26.4670   26.3880   43.0280 C.3    32  GLU32       0.1567
     24  C         26.4610   27.8370   42.5850 C.2    32  GLU32       0.2260
     25  O         27.4930   28.3770   42.1860 O.2    32  GLU32      -0.2867
     26  CB        26.0740   25.5230   41.8270 C.3    32  GLU32       0.0388
     27  CG        26.8840   24.2620   41.6380 C.3    32  GLU32       0.1160
     28  CD        28.3900   24.4770   41.6750 C.2    32  GLU32       0.3649
     29  OE1       29.0230   24.5960   40.6030 O.co2  32  GLU32      -0.2457
     30  OE2       28.9410   24.5090   42.7880 O.co2  32  GLU32      -0.2457
     31  N         15.2860   19.9150   37.9690 N.3    53  VAL53      -0.1245
     32  CA        16.0720   21.0970   38.2980 C.3    53  VAL53       0.1561
     33  C         17.3850   21.0660   37.5300 C.2    53  VAL53       0.2260
     34  O         18.0660   20.0440   37.4840 O.2    53  VAL53      -0.2867
     35  CB        16.3710   21.1710   39.8060 C.3    53  VAL53       0.0252
     36  CG1       17.0970   22.4770   40.1270 C.3    53  VAL53       0.0019
     37  CG2       15.0670   21.0710   40.5990 C.3    53  VAL53       0.0019
     38  N         21.0150   23.3660   36.6320 N.3    55  ASP55      -0.1239
     39  CA        21.8850   24.5340   36.7130 C.3    55  ASP55       0.1674
     40  C         23.0350   24.4570   35.7100 C.2    55  ASP55       0.2266
     41  O         23.3710   23.3800   35.2000 O.2    55  ASP55      -0.2867
     42  CB        22.4190   24.7160   38.1440 C.3    55  ASP55       0.1410
     43  CG        23.4260   23.6550   38.5450 C.2    55  ASP55       0.3668
     44  OD1       24.4560   23.5180   37.8540 O.co2  55  ASP55      -0.2456
     45  OD2       23.1960   22.9610   39.5600 O.co2  55  ASP55      -0.2456
     46  N         29.3270   24.0210   37.6490 N.3    58  ARG58      -0.1231
     47  CA        30.4830   23.2100   37.2850 C.3    58  ARG58       0.1694
     48  C         30.1150   21.7730   36.9270 C.2    58  ARG58       0.2593
     49  O         30.8640   21.0910   36.2270 O.2    58  ARG58      -0.2718
     50  CB        31.4970   23.1950   38.4340 C.3    58  ARG58       0.0321
     51  CG        32.2010   24.5280   38.6610 C.3    58  ARG58       0.0489
     52  CD        32.9440   24.5260   39.9870 C.3    58  ARG58       0.2205
     53  NE        32.0310   24.3980   41.1180 N.pl3  58  ARG58      -0.0865
     54  CZ        32.4160   24.3110   42.3860 C.cat  58  ARG58       0.5346
     55  NH1       33.7070   24.3400   42.6940 N.pl3  58  ARG58       0.1354
     56  NH2       31.5100   24.1970   43.3480 N.pl3  58  ARG58       0.1354
     57  N         28.9670   21.3140   37.4140 N.am   59  GLY59      -0.1942
     58  CA        28.6010   19.9150   37.2560 C.3    59  GLY59       0.2014
     59  C         29.0650   19.0750   38.4320 C.2    59  GLY59       0.2639
     60  O         30.2150   19.1890   38.8600 O.2    59  GLY59      -0.2714
     61  N         28.1830   18.2310   38.9610 N.am   60  MET60      -0.1963
     62  CA        28.5640   17.3340   40.0520 C.3    60  MET60       0.1722
     63  C         29.7770   16.5130   39.6410 C.2    60  MET60       0.2458
     64  O         29.8690   16.0460   38.5070 O.2    60  MET60      -0.2730
     65  CB        27.4220   16.3730   40.4020 C.3    60  MET60       0.0427
     66  CG        26.2960   16.9660   41.2120 C.3    60  MET60       0.0599
     67  SD        25.0390   15.7100   41.6040 S.3    60  MET60      -0.1393
     68  CE        26.0060   14.5020   42.3910 C.3    60  MET60       0.0692
     69  N         30.7290   16.3240   40.5630 N.am   61  PRO61      -0.2727
     70  CA        31.9200   15.5270   40.2640 C.3    61  PRO61       0.1402
     71  C         31.5740   14.0770   39.9420 C.2    61  PRO61       0.2269
     72  O         30.6540   13.5040   40.5250 O.2    61  PRO61      -0.2865
     73  CB        32.7620   15.6470   41.5340 C.3    61  PRO61       0.0296
     74  CG        32.3050   16.9170   42.1600 C.3    61  PRO61       0.0237
     75  CD        30.8330   16.9930   41.8670 C.3    61  PRO61       0.0939
     76  N         27.0080   10.9940   46.3170 N.3    76  ILE76      -0.1245
     77  CA        26.1640   12.1380   46.6270 C.3    76  ILE76       0.1561
     78  C         24.6890   11.7480   46.6170 C.2    76  ILE76       0.2260
     79  O         23.9050   12.2170   47.4440 O.2    76  ILE76      -0.2867
     80  CB        26.3970   13.2750   45.6110 C.3    76  ILE76       0.0252
     81  CG1       27.8360   13.7850   45.7370 C.3    76  ILE76       0.0019
     82  CG2       25.4020   14.3960   45.8420 C.3    76  ILE76       0.0019
     83  CD1       28.2530   14.7500   44.6440 C.3    76  ILE76       0.0001
     84  N         30.3970   18.0230   32.1560 N.3    98  ARG98      -0.1245
     85  CA        31.6820   18.3830   32.7600 C.3    98  ARG98       0.1563
     86  C         32.7990   17.9330   31.8240 C.2    98  ARG98       0.2260
     87  O         32.7270   16.8490   31.2410 O.2    98  ARG98      -0.2867
     88  CB        31.8840   17.6590   34.0930 C.3    98  ARG98       0.0307
     89  CG        31.1810   18.2530   35.2830 C.3    98  ARG98       0.0489
     90  CD        31.5770   17.4920   36.5410 C.3    98  ARG98       0.2205
     91  NE        33.0230   17.4990   36.7470 N.pl3  98  ARG98      -0.0865
     92  CZ        33.6590   18.3940   37.4960 C.cat  98  ARG98       0.5346
     93  NH1       32.9750   19.3490   38.1100 N.pl3  98  ARG98       0.1354
     94  NH2       34.9770   18.3390   37.6300 N.pl3  98  ARG98       0.1354
     95  N         24.4690   20.6350   35.9210 N.3   129  THR129     -0.1218
     96  CA        23.8370   19.4580   36.5100 C.3   129  THR129      0.1862
     97  C         22.3230   19.5030   36.3210 C.2   129  THR129      0.2287
     98  O         21.6950   20.5540   36.4710 O.2   129  THR129     -0.2866
     99  CB        24.1360   19.3660   38.0230 C.3   129  THR129      0.1770
    100  OG1       25.5540   19.3610   38.2280 O.3   129  THR129     -0.2211
    101  CG2       23.5380   18.0960   38.6190 C.3   129  THR129      0.0375
    102  N         18.8530   17.3160   37.6480 N.3   131  VAL131     -0.1245
    103  CA        18.2480   16.2500   38.4470 C.3   131  VAL131      0.1561
    104  C         16.7530   16.2150   38.1740 C.2   131  VAL131      0.2260
    105  O         16.0470   17.1970   38.3850 O.2   131  VAL131     -0.2867
    106  CB        18.4620   16.4620   39.9600 C.3   131  VAL131      0.0252
    107  CG1       17.7080   15.3890   40.7460 C.3   131  VAL131      0.0019
    108  CG2       19.9420   16.4030   40.2920 C.3   131  VAL131      0.0019
@<TRIPOS>BOND
     1    87    86    2
     2    86    85    1
     3    84    85    1
     4    85    88    1
     5    88    89    1
     6    41    40    2
     7    89    90    1
     8    40    39    1
     9    95    96    1
    10    49    48    2
    11    97    98    2
    12    97    96    1
    13    96    99    1
    14    90    91    1
    15    38    39    1
    16    39    42    1
    17    91    92    2
    18    48    47    1
    19    48    57   am
    20    58    57    1
    21    58    59    1
    22    47    46    1
    23    47    50    1
    24    34    33    2
    25    92    94    1
    26    92    93    1
    27    33    32    1
    28   102   103    1
    29    44    43   ar
    30    31    32    1
    31    99   100    1
    32    99   101    1
    33    42    43    1
    34   104   105    2
    35   104   103    1
    36    32    35    1
    37    59    60    2
    38    59    61   am
    39    50    51    1
    40   103   106    1
    41    64    63    2
    42    43    45   ar
    43    51    52    1
    44    61    62    1
    45    63    62    1
    46    63    69   am
    47    35    36    1
    48    35    37    1
    49    71    70    1
    50    71    72    2
    51   106   108    1
    52   106   107    1
    53    52    53    1
    54    62    65    1
    55    70    69    1
    56    70    73    1
    57    65    66    1
    58    69    75    1
    59    29    28   ar
    60    21    20    1
    61    53    54    2
    62    66    67    1
    63    73    74    1
    64    67    68    1
    65    20    17    1
    66    27    28    1
    67    27    26    1
    68    28    30   ar
    69    26    23    1
    70    75    74    1
    71    25    24    2
    72    54    55    1
    73    54    56    1
    74    19    18    2
    75     6     5    1
    76    17    18    1
    77    17    16    1
    78    24    23    1
    79    23    22    1
    80    16    10   am
    81     5     7    1
    82     5     2    1
    83     4     3    2
    84    11    10    2
    85     3     2    1
    86    10     9    1
    87    83    81    1
    88     2     1    1
    89    12     9    1
    90    12    13    1
    91    80    81    1
    92    80    82    1
    93    80    77    1
    94     9     8    1
    95    76    77    1
    96    78    77    1
    97    78    79    2
    98    13    14    2
    99    13    15   am
