@<TRIPOS>MOLECULE
tmp/3fv7A00.pdb
 154 147 0 0 0
SMALL
GASTEIGER

@<TRIPOS>ATOM
      1  N         98.9330   26.3020   24.9960 N.3    49  ALA49      -0.1231
      2  CA        99.8800   27.1480   25.7240 C.3    49  ALA49       0.1694
      3  C        100.2010   26.4510   27.0520 C.2    49  ALA49       0.2592
      4  O        100.2390   25.2220   27.1050 O.2    49  ALA49      -0.2718
      5  CB        99.2920   28.5600   25.9590 C.3    49  ALA49       0.0304
      6  N        100.3950   27.2160   28.1190 N.am   50  SER50      -0.1952
      7  CA       100.7500   26.6370   29.4140 C.3    50  SER50       0.1924
      8  C         99.7900   25.6210   30.0270 C.2    50  SER50       0.2314
      9  O        100.1480   24.9760   31.0230 O.2    50  SER50      -0.2863
     10  CB       101.0260   27.7490   30.4400 C.3    50  SER50       0.2116
     11  OG       102.1480   28.5440   30.0650 O.3    50  SER50      -0.2180
     12  N        112.9420   35.3510   30.4140 N.3    79  THR79      -0.1203
     13  CA       111.9100   36.3420   30.1540 C.3    79  THR79       0.1994
     14  C        111.5080   37.1080   31.4090 C.2    79  THR79       0.2617
     15  O        111.3320   38.3210   31.3680 O.2    79  THR79      -0.2717
     16  CB       110.6570   35.6800   29.5630 C.3    79  THR79       0.1784
     17  OG1      111.0300   34.8490   28.4550 O.3    79  THR79      -0.2211
     18  CG2      109.6740   36.7440   29.0880 C.3    79  THR79       0.0376
     19  N        111.3760   36.3970   32.5230 N.am   80  TYR80      -0.1975
     20  CA       110.9830   37.0100   33.7860 C.3    80  TYR80       0.1639
     21  C        111.9680   36.6590   34.8900 C.2    80  TYR80       0.2290
     22  O        112.4690   35.5290   34.9580 O.2    80  TYR80      -0.2864
     23  CB       109.5960   36.5150   34.2020 C.3    80  TYR80       0.0560
     24  CG       108.5270   36.7340   33.1650 C.ar   80  TYR80      -0.0198
     25  CD1      107.9360   37.9870   33.0010 C.ar   80  TYR80      -0.0009
     26  CD2      108.1310   35.7010   32.3190 C.ar   80  TYR80      -0.0009
     27  CE1      106.9730   38.2080   32.0140 C.ar   80  TYR80       0.0417
     28  CE2      107.1700   35.9070   31.3230 C.ar   80  TYR80       0.0417
     29  CZ       106.5960   37.1660   31.1760 C.ar   80  TYR80       0.1957
     30  OH       105.6660   37.3880   30.1810 O.3    80  TYR80      -0.2866
     31  N        111.3660   36.1530   37.8770 N.3    82  MET82      -0.1230
     32  CA       110.7730   35.1320   38.7310 C.3    82  MET82       0.1702
     33  C        111.1460   33.7210   38.2660 C.2    82  MET82       0.2592
     34  O        111.0480   32.7760   39.0340 O.2    82  MET82      -0.2718
     35  CB       109.2430   35.2860   38.7820 C.3    82  MET82       0.0401
     36  CG       108.5480   35.1690   37.4230 C.3    82  MET82       0.0596
     37  SD       106.7260   35.2810   37.4840 S.3    82  MET82      -0.1393
     38  CE       106.5010   37.1180   37.5640 C.3    82  MET82       0.0692
     39  N        111.5720   33.5800   37.0130 N.am   83  TRP83      -0.1976
     40  CA       111.9620   32.2750   36.4880 C.3    83  TRP83       0.1640
     41  C        113.4530   31.9940   36.6710 C.2    83  TRP83       0.2290
     42  O        113.9150   30.8840   36.4070 O.2    83  TRP83      -0.2864
     43  CB       111.6390   32.1670   34.9920 C.3    83  TRP83       0.0576
     44  CG       110.1780   32.1710   34.6780 C.ar   83  TRP83       0.0006
     45  CD1      109.1420   32.0750   35.5690 C.ar   83  TRP83       0.0946
     46  CD2      109.5850   32.2640   33.3760 C.ar   83  TRP83       0.0152
     47  NE1      107.9390   32.1060   34.8980 N.ar   83  TRP83      -0.2442
     48  CE2      108.1830   32.2230   33.5510 C.ar   83  TRP83       0.0810
     49  CE3      110.1050   32.3820   32.0750 C.ar   83  TRP83       0.0012
     50  CZ2      107.2920   32.2970   32.4760 C.ar   83  TRP83       0.0191
     51  CZ3      109.2150   32.4560   31.0020 C.ar   83  TRP83       0.0001
     52  CH2      107.8240   32.4130   31.2120 C.ar   83  TRP83       0.0015
     53  N        104.3530   29.1710   38.7820 N.3    95  LEU95      -0.1231
     54  CA       105.0120   30.3140   38.1820 C.3    95  LEU95       0.1693
     55  C        104.9420   30.2950   36.6640 C.2    95  LEU95       0.2592
     56  O        105.4260   31.2210   36.0200 O.2    95  LEU95      -0.2718
     57  CB       106.4810   30.3510   38.6030 C.3    95  LEU95       0.0284
     58  CG       106.7550   30.8440   40.0240 C.3    95  LEU95       0.0019
     59  CD1      108.2180   30.6130   40.4030 C.3    95  LEU95       0.0001
     60  CD2      106.4110   32.3100   40.0900 C.3    95  LEU95       0.0001
     61  N        104.3470   29.2520   36.0920 N.am   96  SER96      -0.1952
     62  CA       104.2790   29.1240   34.6310 C.3    96  SER96       0.1924
     63  C        105.6910   29.1410   34.0300 C.2    96  SER96       0.2314
     64  O        105.8930   29.6360   32.9230 O.2    96  SER96      -0.2863
     65  CB       103.4710   30.2680   34.0110 C.3    96  SER96       0.2116
     66  OG       102.0930   30.1510   34.3010 O.3    96  SER96      -0.2180
     67  N        108.1170   28.1750   31.9380 N.3    98  VAL98      -0.1245
     68  CA       108.3150   27.4250   30.6980 C.3    98  VAL98       0.1561
     69  C        109.6670   26.7260   30.5760 C.2    98  VAL98       0.2260
     70  O        109.7510   25.5940   30.0700 O.2    98  VAL98      -0.2867
     71  CB       108.1610   28.3510   29.4940 C.3    98  VAL98       0.0252
     72  CG1      108.1600   27.5530   28.1840 C.3    98  VAL98       0.0019
     73  CG2      106.9000   29.1060   29.6490 C.3    98  VAL98       0.0019
     74  N        110.2240   22.8950   29.5620 N.3   102  GLN102     -0.1245
     75  CA       110.8720   22.6120   28.2810 C.3   102  GLN102      0.1566
     76  C        111.9660   21.5680   28.5430 C.2   102  GLN102      0.2260
     77  O        112.2360   20.6960   27.7050 O.2   102  GLN102     -0.2867
     78  CB       111.4800   23.8790   27.6870 C.3   102  GLN102      0.0367
     79  CG       110.4500   24.7720   27.0290 C.3   102  GLN102      0.0905
     80  CD       111.0720   25.9990   26.4120 C.2   102  GLN102      0.2608
     81  OE1      111.7160   26.7810   27.0950 O.2   102  GLN102     -0.2717
     82  NE2      110.8820   26.1740   25.1110 N.am  102  GLN102     -0.0878
     83  N        108.3790   23.0570   22.0240 N.3   133  ASN133     -0.1240
     84  CA       107.5260   24.2300   21.8340 C.3   133  ASN133      0.1653
     85  C        106.2160   23.9390   21.0920 C.2   133  ASN133      0.2266
     86  O        105.5050   24.8600   20.7000 O.2   133  ASN133     -0.2867
     87  CB       108.2900   25.3240   21.0950 C.3   133  ASN133      0.1155
     88  CG       108.3600   25.0770   19.6070 C.2   133  ASN133      0.2627
     89  OD1      108.7380   25.9650   18.8440 O.2   133  ASN133     -0.2716
     90  ND2      107.9980   23.8730   19.1840 N.am  133  ASN133     -0.0877
     91  N        103.1000   25.5870   22.3870 N.3   136  LEU136     -0.1245
     92  CA       103.1350   27.0440   22.3850 C.3   136  LEU136      0.1561
     93  C        102.8400   27.6630   21.0240 C.2   136  LEU136      0.2260
     94  O        102.1860   28.7020   20.9400 O.2   136  LEU136     -0.2867
     95  CB       104.5110   27.5230   22.8700 C.3   136  LEU136      0.0270
     96  CG       104.9310   27.0390   24.2620 C.3   136  LEU136      0.0019
     97  CD1      106.4240   27.2610   24.4870 C.3   136  LEU136      0.0001
     98  CD2      104.1160   27.7800   25.3060 C.3   136  LEU136      0.0001
     99  N         95.0080   25.9090   35.8770 N.3   186  LYS186     -0.1231
    100  CA        96.2500   26.2920   35.2400 C.3   186  LYS186      0.1693
    101  C         95.9000   27.3300   34.1850 C.2   186  LYS186      0.2593
    102  O         94.9640   27.1450   33.4030 O.2   186  LYS186     -0.2718
    103  CB        96.9240   25.1030   34.5660 C.3   186  LYS186      0.0285
    104  CG        98.2570   25.4570   33.9090 C.3   186  LYS186      0.0035
    105  CD        99.3380   25.7600   34.9390 C.3   186  LYS186      0.0206
    106  CE        99.7530   27.2180   34.9250 C.3   186  LYS186      0.1093
    107  NZ       100.2770   27.6410   33.6060 N.3   186  LYS186     -0.1314
    108  N         96.6340   28.4330   34.1730 N.am  187  SER187     -0.1938
    109  CA        96.3780   29.4680   33.2000 C.3   187  SER187      0.2055
    110  C         97.2180   29.1910   31.9640 C.2   187  SER187      0.2644
    111  O         98.0760   28.2960   31.9510 O.2   187  SER187     -0.2714
    112  CB        96.7310   30.8350   33.7770 C.3   187  SER187      0.2130
    113  OG        98.0930   30.8730   34.1620 O.3   187  SER187     -0.2179
    114  N         96.9610   29.9620   30.9190 N.am  188  GLY188     -0.1939
    115  CA        97.7000   29.7900   29.6900 C.3   188  GLY188      0.2014
    116  C         97.5870   31.0500   28.8580 C.2   188  GLY188      0.2638
    117  O         96.5690   31.7380   28.8880 O.2   188  GLY188     -0.2714
    118  N         98.6450   31.3500   28.1190 N.am  189  TRP189     -0.1973
    119  CA        98.6710   32.5220   27.2690 C.3   189  TRP189      0.1640
    120  C         99.5640   32.2180   26.0720 C.2   189  TRP189      0.2290
    121  O        100.7820   32.1650   26.2040 O.2   189  TRP189     -0.2864
    122  CB        99.2280   33.7070   28.0450 C.3   189  TRP189      0.0576
    123  CG        99.0590   35.0330   27.3530 C.ar  189  TRP189      0.0006
    124  CD1       98.9730   35.2570   26.0020 C.ar  189  TRP189      0.0946
    125  CD2       99.0570   36.3250   27.9740 C.ar  189  TRP189      0.0152
    126  NE1       98.9240   36.6120   25.7510 N.ar  189  TRP189     -0.2442
    127  CE2       98.9750   37.2880   26.9430 C.ar  189  TRP189      0.0810
    128  CE3       99.1220   36.7630   29.3040 C.ar  189  TRP189      0.0012
    129  CZ2       98.9570   38.6650   27.2030 C.ar  189  TRP189      0.0191
    130  CZ3       99.1070   38.1350   29.5640 C.ar  189  TRP189      0.0001
    131  CH2       99.0250   39.0680   28.5160 C.ar  189  TRP189      0.0015
    132  N        101.3230   33.5420   23.4590 N.3   191  MET191     -0.1245
    133  CA       101.7910   34.8290   22.9340 C.3   191  MET191      0.1570
    134  C        102.5010   34.6470   21.5960 C.2   191  MET191      0.2261
    135  O        102.6370   35.5930   20.8270 O.2   191  MET191     -0.2867
    136  CB       102.7470   35.4980   23.9320 C.3   191  MET191      0.0387
    137  CG       102.1500   35.6890   25.3190 C.3   191  MET191      0.0595
    138  SD       103.3230   36.2260   26.5960 S.3   191  MET191     -0.1393
    139  CE       102.7920   37.9170   26.8860 C.3   191  MET191      0.0692
    140  N         97.1020   39.4990   32.5520 N.3   226  GLY226     -0.1225
    141  CA        96.8480   38.0730   32.6180 C.3   226  GLY226      0.1811
    142  C         95.7910   37.7290   33.6500 C.2   226  GLY226      0.2280
    143  O         95.0420   36.7610   33.4990 O.2   226  GLY226     -0.2866
    144  N         91.9340   36.8930   33.1250 N.3   229  ARG229     -0.1245
    145  CA        91.4400   35.5360   32.9420 C.3   229  ARG229      0.1563
    146  C         90.8760   35.0370   34.2610 C.2   229  ARG229      0.2260
    147  O         89.8230   34.3960   34.3020 O.2   229  ARG229     -0.2867
    148  CB        92.5650   34.6120   32.4900 C.3   229  ARG229      0.0307
    149  CG        93.0840   34.9280   31.1090 C.3   229  ARG229      0.0489
    150  CD        94.3910   34.2070   30.8450 C.3   229  ARG229      0.2205
    151  NE        95.4010   34.5460   31.8450 N.pl3 229  ARG229     -0.0865
    152  CZ        96.6670   34.1470   31.7890 C.cat 229  ARG229      0.5346
    153  NH1       97.5220   34.4920   32.7440 N.pl3 229  ARG229      0.1354
    154  NH2       97.0760   33.4070   30.7670 N.pl3 229  ARG229      0.1354
@<TRIPOS>BOND
     1    89    88    2
     2    90    88   am
     3    88    87    1
     4    86    85    2
     5   135   134    2
     6    94    93    2
     7    93    92    1
     8    85    84    1
     9    87    84    1
    10   134   133    1
    11    84    83    1
    12    92    91    1
    13    92    95    1
    14    95    96    1
    15   133   132    1
    16   133   136    1
    17   136   137    1
    18    96    97    1
    19    96    98    1
    20     1     2    1
    21    82    80   am
    22   137   138    1
    23     2     5    1
    24     2     3    1
    25   126   124   ar
    26   126   127   ar
    27   124   123   ar
    28   120   121    2
    29   120   119    1
    30    80    79    1
    31    80    81    2
    32   138   139    1
    33   127   129   ar
    34   127   125   ar
    35    79    78    1
    36     3     4    2
    37     3     6   am
    38   129   131   ar
    39   119   122    1
    40   119   118    1
    41   123   125   ar
    42   123   122    1
    43    78    75    1
    44    77    76    2
    45   125   128   ar
    46   118   116   am
    47     6     7    1
    48    72    71    1
    49    75    76    1
    50    75    74    1
    51    17    16    1
    52   131   130   ar
    53   116   117    2
    54   116   115    1
    55    18    16    1
    56   128   130   ar
    57     7     8    1
    58     7    10    1
    59    71    73    1
    60    71    68    1
    61    16    13    1
    62   115   114    1
    63     8     9    2
    64    11    10    1
    65    70    69    2
    66    13    12    1
    67    13    14    1
    68    30    29    1
    69    69    68    1
    70    68    67    1
    71   154   152    1
    72   150   149    1
    73   150   151    1
    74   114   110   am
    75    51    52   ar
    76    51    49   ar
    77   149   148    1
    78    29    28   ar
    79    29    27   ar
    80    52    50   ar
    81    28    26   ar
    82    15    14    2
    83    14    19   am
    84   152   151    2
    85   152   153    1
    86   111   110    2
    87   110   109    1
    88    27    25   ar
    89    49    46   ar
    90    26    24   ar
    91    50    48   ar
    92   148   145    1
    93    19    20    1
    94   140   141    1
    95   141   142    1
    96    64    63    2
    97   145   144    1
    98   145   146    1
    99    25    24   ar
   100    24    23    1
   101   109   112    1
   102   109   108    1
   103    46    48   ar
   104    46    44   ar
   105   102   101    2
   106   143   142    2
   107    48    47   ar
   108   107   106    1
   109   112   113    1
   110    20    23    1
   111    20    21    1
   112   104   103    1
   113   104   105    1
   114    65    66    1
   115    65    62    1
   116    63    62    1
   117   108   101   am
   118   101   100    1
   119   146   147    2
   120   103   100    1
   121    62    61    1
   122    44    43    1
   123    44    45   ar
   124    21    22    2
   125    47    45   ar
   126   106   105    1
   127    43    40    1
   128   100    99    1
   129    56    55    2
   130    61    55   am
   131    42    41    2
   132    40    41    1
   133    40    39    1
   134    55    54    1
   135    39    33   am
   136    36    37    1
   137    36    35    1
   138    37    38    1
   139    31    32    1
   140    54    57    1
   141    54    53    1
   142    33    32    1
   143    33    34    2
   144    57    58    1
   145    32    35    1
   146    58    60    1
   147    58    59    1
