@<TRIPOS>MOLECULE
tmp/3fv8A00.pdb
 151 141 0 0 0
SMALL
GASTEIGER

@<TRIPOS>ATOM
      1  N        -10.5660  -37.4590   18.3610 N.3    25  ILE25      -0.1231
      2  CA       -10.1490  -36.1050   18.0230 C.3    25  ILE25       0.1692
      3  C        -11.3510  -35.1950   17.7960 C.2    25  ILE25       0.2593
      4  O        -11.1920  -34.0190   17.4990 O.2    25  ILE25      -0.2718
      5  CB        -9.2340  -36.0720   16.7810 C.3    25  ILE25       0.0266
      6  CG1       -9.9880  -36.5660   15.5460 C.3    25  ILE25       0.0019
      7  CG2       -7.9890  -36.8960   17.0250 C.3    25  ILE25       0.0020
      8  CD1       -9.1830  -36.4910   14.2740 C.3    25  ILE25       0.0001
      9  N        -12.5530  -35.7310   17.9410 N.am   26  GLY26      -0.1942
     10  CA       -13.7410  -34.9360   17.7170 C.3    26  GLY26       0.2014
     11  C        -15.0370  -35.6840   17.9340 C.2    26  GLY26       0.2640
     12  O        -15.1740  -36.8450   17.5420 O.2    26  GLY26      -0.2714
     13  N        -15.9840  -34.9990   18.5700 N.am   27  SER27      -0.1935
     14  CA       -17.3100  -35.5350   18.8370 C.3    27  SER27       0.2055
     15  C        -18.2960  -34.8820   17.8880 C.2    27  SER27       0.2643
     16  O        -18.4520  -33.6640   17.8860 O.2    27  SER27      -0.2714
     17  CB       -17.7310  -35.2490   20.2820 C.3    27  SER27       0.2130
     18  OG       -18.0900  -33.8860   20.4550 O.3    27  SER27      -0.2179
     19  N        -18.9590  -35.6920   17.0780 N.am   28  GLY28      -0.1954
     20  CA       -19.8640  -35.1590   16.0840 C.3    28  GLY28       0.1869
     21  C        -21.3080  -35.4750   16.3970 C.2    28  GLY28       0.2309
     22  O        -21.6190  -36.5210   16.9660 O.2    28  GLY28      -0.2863
     23  N        -15.1570  -39.1940   15.6480 N.3    33  VAL33      -0.1245
     24  CA       -14.0160  -39.3260   14.7590 C.3    33  VAL33       0.1561
     25  C        -12.7800  -39.5920   15.5900 C.2    33  VAL33       0.2260
     26  O        -12.5420  -38.8910   16.5660 O.2    33  VAL33      -0.2867
     27  CB       -13.8130  -38.0610   13.9070 C.3    33  VAL33       0.0252
     28  CG1      -12.6750  -38.2570   12.9110 C.3    33  VAL33       0.0019
     29  CG2      -15.0870  -37.7100   13.1810 C.3    33  VAL33       0.0019
     30  N         -8.0210  -40.7990    9.6300 N.3    46  ALA46      -0.1245
     31  CA        -9.0890  -40.5030   10.5850 C.3    46  ALA46       0.1562
     32  C        -10.2940  -41.4210   10.3350 C.2    46  ALA46       0.2260
     33  O        -10.6750  -41.6660    9.1950 O.2    46  ALA46      -0.2867
     34  CB        -9.5000  -39.0390   10.4970 C.3    46  ALA46       0.0290
     35  N        -14.3180  -42.2490   11.0680 N.3    48  LYS48      -0.1245
     36  CA       -15.6230  -41.7930   11.5450 C.3    48  LYS48       0.1561
     37  C        -16.6700  -42.9060   11.6000 C.2    48  LYS48       0.2260
     38  O        -17.0410  -43.4850   10.5810 O.2    48  LYS48      -0.2867
     39  CB       -16.1500  -40.6620   10.6630 C.3    48  LYS48       0.0271
     40  CG       -17.3510  -39.9300   11.2330 C.3    48  LYS48       0.0035
     41  CD       -17.9460  -38.9910   10.1870 C.3    48  LYS48       0.0206
     42  CE       -18.9750  -38.0540   10.7910 C.3    48  LYS48       0.1093
     43  NZ       -19.6190  -37.2270    9.7400 N.3    48  LYS48      -0.1314
     44  N        -12.4060  -33.2160    1.5450 N.3    78  ILE78      -0.1245
     45  CA       -11.8160  -34.3910    2.1710 C.3    78  ILE78       0.1561
     46  C        -12.0530  -35.6240    1.3150 C.2    78  ILE78       0.2260
     47  O        -13.0900  -35.7520    0.6540 O.2    78  ILE78      -0.2867
     48  CB       -12.3820  -34.6340    3.5850 C.3    78  ILE78       0.0252
     49  CG1      -11.4820  -35.5910    4.3710 C.3    78  ILE78       0.0019
     50  CG2      -13.7890  -35.1800    3.5050 C.3    78  ILE78       0.0019
     51  CD1      -10.1410  -34.9950    4.7500 C.3    78  ILE78       0.0001
     52  N        -10.7110  -41.7540    6.2010 N.3   100  MET100     -0.1230
     53  CA       -10.2730  -40.6130    5.3980 C.3   100  MET100      0.1702
     54  C         -8.8450  -40.2130    5.7600 C.2   100  MET100      0.2592
     55  O         -8.3290  -40.6260    6.7870 O.2   100  MET100     -0.2718
     56  CB       -11.2130  -39.4310    5.6530 C.3   100  MET100      0.0401
     57  CG       -12.6680  -39.7200    5.2890 C.3   100  MET100      0.0596
     58  SD       -13.8610  -38.6770    6.1480 S.3   100  MET100     -0.1393
     59  CE       -13.9660  -39.4910    7.7410 C.3   100  MET100      0.0692
     60  N         -8.2000  -39.4090    4.9250 N.am  101  GLU101     -0.1966
     61  CA        -6.8720  -38.9220    5.2640 C.3   101  GLU101      0.1733
     62  C         -6.9940  -38.0720    6.5150 C.2   101  GLU101      0.2616
     63  O         -8.0570  -37.5210    6.7910 O.2   101  GLU101     -0.2715
     64  CB        -6.2830  -38.0920    4.1260 C.3   101  GLU101      0.0429
     65  CG        -7.0830  -36.8360    3.8310 C.3   101  GLU101      0.1163
     66  CD        -6.7530  -36.2300    2.4740 C.2   101  GLU101      0.3649
     67  OE1       -5.6120  -36.4270    1.9900 O.co2 101  GLU101     -0.2457
     68  OE2       -7.6410  -35.5580    1.8970 O.co2 101  GLU101     -0.2457
     69  N         -5.9040  -37.9680    7.2700 N.am  102  LEU102     -0.1963
     70  CA        -5.9150  -37.2110    8.5190 C.3   102  LEU102      0.1728
     71  C         -5.3570  -35.8250    8.2980 C.2   102  LEU102      0.2616
     72  O         -4.3020  -35.6840    7.7010 O.2   102  LEU102     -0.2715
     73  CB        -5.0740  -37.9220    9.5750 C.3   102  LEU102      0.0311
     74  CG        -5.1320  -37.3630   10.9920 C.3   102  LEU102      0.0022
     75  CD1       -6.5670  -37.1650   11.4570 C.3   102  LEU102      0.0001
     76  CD2       -4.3980  -38.3000   11.9380 C.3   102  LEU102      0.0001
     77  N         -6.0720  -34.8060    8.7670 N.am  103  MET103     -0.1963
     78  CA        -5.5530  -33.4400    8.7610 C.3   103  MET103      0.1736
     79  C         -4.9860  -33.0990   10.1400 C.2   103  MET103      0.2616
     80  O         -5.0710  -33.9030   11.0620 O.2   103  MET103     -0.2715
     81  CB        -6.6420  -32.4520    8.3630 C.3   103  MET103      0.0427
     82  CG        -7.2770  -32.7910    7.0330 C.3   103  MET103      0.0599
     83  SD        -6.0230  -32.9410    5.7580 S.3   103  MET103     -0.1393
     84  CE        -5.9650  -31.2540    5.1690 C.3   103  MET103      0.0692
     85  N         -4.4000  -31.9160   10.2810 N.am  104  ASP104     -0.1957
     86  CA        -3.7090  -31.5820   11.5240 C.3   104  ASP104      0.1840
     87  C         -4.5580  -30.7970   12.5160 C.2   104  ASP104      0.2622
     88  O         -4.3940  -30.9450   13.7270 O.2   104  ASP104     -0.2715
     89  CB        -2.3920  -30.8620   11.2320 C.3   104  ASP104      0.1450
     90  CG        -1.3680  -31.7750   10.5850 C.2   104  ASP104      0.3671
     91  OD1       -1.1850  -32.9030   11.0880 O.co2 104  ASP104     -0.2456
     92  OD2       -0.7480  -31.3780    9.5720 O.co2 104  ASP104     -0.2456
     93  N         -5.4820  -29.9900   12.0050 N.am  105  ALA105     -0.1963
     94  CA        -6.2810  -29.1270   12.8610 C.3   105  ALA105      0.1728
     95  C         -7.5560  -28.6920   12.1460 C.2   105  ALA105      0.2616
     96  O         -7.6860  -28.8890   10.9420 O.2   105  ALA105     -0.2715
     97  CB        -5.4510  -27.9030   13.2670 C.3   105  ALA105      0.0334
     98  N         -8.5010  -28.1130   12.8830 N.am  106  ASN106     -0.1972
     99  CA        -9.6710  -27.4910   12.2610 C.3   106  ASN106      0.1688
    100  C         -9.5240  -25.9790   12.2990 C.2   106  ASN106      0.2292
    101  O         -8.6380  -25.4660   12.9650 O.2   106  ASN106     -0.2864
    102  CB       -10.9810  -27.9470   12.9120 C.3   106  ASN106      0.1181
    103  CG       -11.1260  -27.4850   14.3600 C.2   106  ASN106      0.2629
    104  OD1      -10.5020  -26.5190   14.7940 O.2   106  ASN106     -0.2716
    105  ND2      -11.9750  -28.1780   15.1090 N.am  106  ASN106     -0.0877
    106  N         -8.8740  -23.4490   15.4420 N.3   108  GLN108     -0.1245
    107  CA        -7.6040  -23.3300   16.1380 C.3   108  GLN108      0.1566
    108  C         -6.7130  -22.3730   15.3690 C.2   108  GLN108      0.2260
    109  O         -5.7800  -21.7790   15.9030 O.2   108  GLN108     -0.2867
    110  CB        -6.9710  -24.7140   16.2310 C.3   108  GLN108      0.0367
    111  CG        -8.0160  -25.8090   16.5030 C.3   108  GLN108      0.0905
    112  CD        -7.4570  -27.2150   16.3840 C.2   108  GLN108      0.2608
    113  OE1       -6.2530  -27.4340   16.5340 O.2   108  GLN108     -0.2717
    114  NE2       -8.3340  -28.1780   16.1180 N.am  108  GLN108     -0.0878
    115  N        -15.4250  -25.6900   12.5130 N.3   146  SER146     -0.1202
    116  CA       -15.1150  -26.9570   13.1600 C.3   146  SER146      0.2020
    117  C        -15.1430  -28.1410   12.2030 C.2   146  SER146      0.2618
    118  O        -14.5530  -29.1820   12.4840 O.2   146  SER146     -0.2717
    119  CB       -16.0760  -27.2010   14.3260 C.3   146  SER146      0.2103
    120  OG       -17.4220  -27.1730   13.8840 O.3   146  SER146     -0.2182
    121  N        -15.8290  -27.9890   11.0760 N.am  147  ASN147     -0.1974
    122  CA       -15.8920  -29.0610   10.0880 C.3   147  ASN147      0.1688
    123  C        -15.0680  -28.7400    8.8260 C.2   147  ASN147      0.2292
    124  O        -15.2220  -29.3410    7.7550 O.2   147  ASN147     -0.2864
    125  CB       -17.3500  -29.4270    9.8170 C.3   147  ASN147      0.1181
    126  CG       -18.0240  -30.0350   11.0610 C.2   147  ASN147      0.2629
    127  OD1      -19.0590  -29.5460   11.5200 O.2   147  ASN147     -0.2716
    128  ND2      -17.4570  -31.1170   11.5840 N.am  147  ASN147     -0.0877
    129  N        -10.9800  -28.4580    7.9610 N.3   149  VAL149     -0.1245
    130  CA        -9.7100  -28.8590    8.5450 C.3   149  VAL149      0.1561
    131  C         -8.5110  -28.4400    7.6970 C.2   149  VAL149      0.2260
    132  O         -8.6140  -28.2770    6.4770 O.2   149  VAL149     -0.2867
    133  CB        -9.6850  -30.3700    8.7340 C.3   149  VAL149      0.0252
    134  CG1      -10.6640  -30.7890    9.8720 C.3   149  VAL149      0.0019
    135  CG2      -10.0380  -31.0470    7.4210 C.3   149  VAL149      0.0019
    136  N        -14.9660  -30.9740    5.2880 N.3   158  LEU158     -0.1231
    137  CA       -15.2090  -32.3270    5.7570 C.3   158  LEU158      0.1693
    138  C        -16.5330  -32.8660    5.2670 C.2   158  LEU158      0.2592
    139  O        -16.6980  -34.0710    5.1380 O.2   158  LEU158     -0.2718
    140  CB       -15.1760  -32.3910    7.2890 C.3   158  LEU158      0.0284
    141  CG       -13.8110  -32.1110    7.8960 C.3   158  LEU158      0.0019
    142  CD1      -13.8360  -32.3790    9.3780 C.3   158  LEU158      0.0001
    143  CD2      -12.7780  -32.9790    7.2030 C.3   158  LEU158      0.0001
    144  N        -17.4900  -31.9890    5.0030 N.am  159  ASP159     -0.1974
    145  CA       -18.8340  -32.4810    4.7350 C.3   159  ASP159      0.1709
    146  C        -19.5830  -31.7700    3.6110 C.2   159  ASP159      0.2293
    147  O        -19.1050  -30.7830    3.0360 O.2   159  ASP159     -0.2864
    148  CB       -19.6720  -32.4920    6.0220 C.3   159  ASP159      0.1436
    149  CG       -20.1040  -31.1050    6.4520 C.2   159  ASP159      0.3671
    150  OD1      -19.3000  -30.1570    6.3200 O.co2 159  ASP159     -0.2456
    151  OD2      -21.2570  -30.9660    6.9190 O.co2 159  ASP159     -0.2456
@<TRIPOS>BOND
     1    47    46    2
     2    46    45    1
     3    44    45    1
     4    68    66   ar
     5    67    66   ar
     6    45    48    1
     7    66    65    1
     8   147   146    2
     9    50    48    1
    10    48    49    1
    11   146   145    1
    12    65    64    1
    13    64    61    1
    14    49    51    1
    15   145   144    1
    16   145   148    1
    17    60    61    1
    18    60    54   am
    19   144   138   am
    20   139   138    2
    21    84    83    1
    22    61    62    1
    23   138   137    1
    24   136   137    1
    25    57    56    1
    26    57    58    1
    27    53    56    1
    28    53    54    1
    29    53    52    1
    30   137   140    1
    31    83    82    1
    32    54    55    2
    33   148   149    1
    34    58    59    1
    35   150   149   ar
    36   149   151   ar
    37   132   131    2
    38    62    63    2
    39    62    69   am
    40    82    81    1
    41   143   141    1
    42    69    70    1
    43   140   141    1
    44   135   133    1
    45   131   130    1
    46    72    71    2
    47   124   123    2
    48   141   142    1
    49   129   130    1
    50    71    70    1
    51    71    77   am
    52    81    78    1
    53    70    73    1
    54   130   133    1
    55   133   134    1
    56    78    77    1
    57    78    79    1
    58   123   122    1
    59    33    32    2
    60    92    90   ar
    61    73    74    1
    62    30    31    1
    63    43    42    1
    64   125   122    1
    65   125   126    1
    66   122   121    1
    67    79    85   am
    68    79    80    2
    69    41    42    1
    70    41    40    1
    71    85    86    1
    72    32    31    1
    73    34    31    1
    74    38    37    2
    75    90    91   ar
    76    90    89    1
    77    39    40    1
    78    39    36    1
    79    96    95    2
    80    74    75    1
    81    74    76    1
    82   126   127    2
    83   126   128   am
    84    35    36    1
    85   121   117   am
    86    89    86    1
    87    86    87    1
    88    36    37    1
    89    93    87   am
    90    93    94    1
    91    95    94    1
    92    95    98   am
    93   117   118    2
    94   117   116    1
    95    99   100    1
    96    99    98    1
    97    99   102    1
    98   100   101    2
    99   115   116    1
   100    87    88    2
   101    94    97    1
   102    28    27    1
   103   102   103    1
   104   116   119    1
   105    29    27    1
   106   120   119    1
   107    27    24    1
   108     8     6    1
   109   103   104    2
   110   103   105   am
   111    24    25    1
   112    24    23    1
   113   108   109    2
   114   108   107    1
   115   106   107    1
   116     6     5    1
   117    25    26    2
   118    20    21    1
   119    20    19    1
   120   114   112   am
   121   107   110    1
   122   110   111    1
   123   112   111    1
   124   112   113    2
   125    21    22    2
   126     5     7    1
   127     5     2    1
   128    19    15   am
   129     4     3    2
   130    12    11    2
   131    10    11    1
   132    10     9    1
   133     3     9   am
   134     3     2    1
   135    16    15    2
   136    15    14    1
   137    11    13   am
   138     2     1    1
   139    13    14    1
   140    14    17    1
   141    17    18    1
