@<TRIPOS>MOLECULE
tmp/3fvbA00.pdb
 103 97 0 0 0
SMALL
GASTEIGER

@<TRIPOS>ATOM
      1  N          9.4460   -6.8830  -37.1040 N.3    21  LEU21      -0.1245
      2  CA         9.3030   -6.9030  -38.5600 C.3    21  LEU21       0.1561
      3  C          9.8800   -5.6330  -39.1830 C.2    21  LEU21       0.2260
      4  O         10.4900   -5.6910  -40.2550 O.2    21  LEU21      -0.2867
      5  CB         7.8450   -7.1140  -38.9940 C.3    21  LEU21       0.0270
      6  CG         7.2150   -8.4440  -38.5240 C.3    21  LEU21       0.0019
      7  CD1        5.7390   -8.4780  -38.8930 C.3    21  LEU21       0.0001
      8  CD2        7.9530   -9.6470  -39.1270 C.3    21  LEU21       0.0001
      9  N         13.7040   -6.0880  -39.1280 N.3    24  VAL24      -0.1231
     10  CA        14.1310   -7.0110  -40.1960 C.3    24  VAL24       0.1692
     11  C         14.3120   -6.2270  -41.5060 C.2    24  VAL24       0.2592
     12  O         15.3620   -6.3090  -42.1980 O.2    24  VAL24      -0.2718
     13  CB        13.0840   -8.1300  -40.4170 C.3    24  VAL24       0.0266
     14  CG1       13.3900   -8.8830  -41.6960 C.3    24  VAL24       0.0020
     15  CG2       13.1280   -9.1110  -39.2190 C.3    24  VAL24       0.0020
     16  N         13.2790   -5.4540  -41.8350 N.am   25  ASN25      -0.1974
     17  CA        13.2490   -4.7450  -43.1170 C.3    25  ASN25       0.1688
     18  C         14.2130   -3.5620  -43.1590 C.2    25  ASN25       0.2292
     19  O         14.8680   -3.3400  -44.1760 O.2    25  ASN25      -0.2864
     20  CB        11.8220   -4.2850  -43.4400 C.3    25  ASN25       0.1181
     21  CG        10.8860   -5.4530  -43.7720 C.2    25  ASN25       0.2629
     22  OD1       11.2820   -6.6170  -43.7290 O.2    25  ASN25      -0.2716
     23  ND2        9.6410   -5.1310  -44.1270 N.am   25  ASN25      -0.0877
     24  N         17.6250   -5.1130  -43.5070 N.3    28  TRP28      -0.1241
     25  CA        17.8170   -5.6990  -44.8380 C.3    28  TRP28       0.1605
     26  C         18.0750   -4.6200  -45.8980 C.2    28  TRP28       0.2264
     27  O         18.9900   -4.7640  -46.7390 O.2    28  TRP28      -0.2867
     28  CB        16.6690   -6.6150  -45.2870 C.3    28  TRP28       0.0550
     29  CG        17.1920   -7.4860  -46.3950 C.ar   28  TRP28       0.0003
     30  CD1       17.2120   -7.2030  -47.7470 C.ar   28  TRP28       0.0946
     31  CD2       17.8770   -8.7400  -46.2360 C.ar   28  TRP28       0.0152
     32  NE1       17.8190   -8.2390  -48.4330 N.ar   28  TRP28      -0.2442
     33  CE2       18.2500   -9.1840  -47.5330 C.ar   28  TRP28       0.0810
     34  CE3       18.1760   -9.5510  -45.1220 C.ar   28  TRP28       0.0012
     35  CZ2       18.9270  -10.4020  -47.7500 C.ar   28  TRP28       0.0191
     36  CZ3       18.8480  -10.7720  -45.3350 C.ar   28  TRP28       0.0001
     37  CH2       19.2050  -11.1850  -46.6440 C.ar   28  TRP28       0.0015
     38  N         23.3120   -7.4750  -42.6620 N.3    47  ARG47      -0.1245
     39  CA        22.5560   -8.6550  -43.0850 C.3    47  ARG47       0.1563
     40  C         22.4350   -9.6720  -41.9330 C.2    47  ARG47       0.2260
     41  O         21.3490  -10.2370  -41.6850 O.2    47  ARG47      -0.2867
     42  CB        23.2370   -9.2890  -44.3130 C.3    47  ARG47       0.0307
     43  CG        22.5370  -10.5050  -44.9140 C.3    47  ARG47       0.0489
     44  CD        23.4090  -11.0370  -46.0520 C.3    47  ARG47       0.2205
     45  NE        22.6680  -11.8190  -47.0410 N.pl3  47  ARG47      -0.0865
     46  CZ        22.3360  -13.1000  -46.9020 C.cat  47  ARG47       0.5346
     47  NH1       21.6550  -13.7200  -47.8770 N.pl3  47  ARG47       0.1354
     48  NH2       22.6620  -13.7580  -45.7970 N.pl3  47  ARG47       0.1354
     49  N         18.8440  -11.0470  -40.0410 N.3    51  ILE51      -0.1245
     50  CA        18.5500  -12.4600  -39.7730 C.3    51  ILE51       0.1561
     51  C         18.3120  -12.7460  -38.2730 C.2    51  ILE51       0.2260
     52  O         17.3920  -13.4850  -37.9260 O.2    51  ILE51      -0.2867
     53  CB        19.6030  -13.3880  -40.4300 C.3    51  ILE51       0.0252
     54  CG1       19.5460  -13.2040  -41.9600 C.3    51  ILE51       0.0019
     55  CG2       19.3670  -14.8750  -40.0360 C.3    51  ILE51       0.0019
     56  CD1       20.7820  -13.6420  -42.6940 C.3    51  ILE51       0.0001
     57  N         14.8800  -11.6600  -37.5970 N.3    54  MET54      -0.1230
     58  CA        13.9740  -12.6950  -38.1350 C.3    54  MET54       0.1702
     59  C         13.7420  -13.8030  -37.0970 C.2    54  MET54       0.2592
     60  O         12.6200  -14.2920  -36.9280 O.2    54  MET54      -0.2718
     61  CB        14.5410  -13.3200  -39.4100 C.3    54  MET54       0.0401
     62  CG        14.6560  -12.3130  -40.5650 C.3    54  MET54       0.0596
     63  SD        15.3680  -13.0770  -42.0430 S.3    54  MET54      -0.1393
     64  CE        15.9990  -11.6360  -42.9100 C.3    54  MET54       0.0692
     65  N         14.8030  -14.2090  -36.4040 N.am   55  HIS55      -0.1976
     66  CA        14.6420  -15.2170  -35.3510 C.3    55  HIS55       0.1656
     67  C         13.7830  -14.6980  -34.1700 C.2    55  HIS55       0.2291
     68  O         12.9490  -15.4490  -33.6320 O.2    55  HIS55      -0.2864
     69  CB        16.0090  -15.7610  -34.9020 C.3    55  HIS55       0.0771
     70  CG        16.6700  -16.6100  -35.9450 C.ar   55  HIS55       0.0820
     71  ND1       16.2720  -17.9080  -36.2010 N.ar   55  HIS55      -0.2267
     72  CD2       17.6750  -16.3460  -36.8140 C.ar   55  HIS55       0.1154
     73  CE1       17.0150  -18.4100  -37.1750 C.ar   55  HIS55       0.1986
     74  NE2       17.8720  -17.4820  -37.5660 N.ar   55  HIS55      -0.2212
     75  N         11.3660  -12.4230  -34.4260 N.3    57  ALA57      -0.1231
     76  CA         9.9970  -12.4260  -34.9440 C.3    57  ALA57       0.1694
     77  C          9.3860  -13.8270  -34.8460 C.2    57  ALA57       0.2592
     78  O          8.2280  -13.9850  -34.4270 O.2    57  ALA57      -0.2718
     79  CB         9.9540  -11.9090  -36.3910 C.3    57  ALA57       0.0304
     80  N         10.1520  -14.8400  -35.2500 N.am   58  ASP58      -0.1974
     81  CA         9.6840  -16.2130  -35.1780 C.3    58  ASP58       0.1709
     82  C          9.3370  -16.6550  -33.7520 C.2    58  ASP58       0.2293
     83  O          8.3110  -17.2970  -33.5540 O.2    58  ASP58      -0.2864
     84  CB        10.6830  -17.1900  -35.8390 C.3    58  ASP58       0.1436
     85  CG        10.1340  -18.6010  -35.9460 C.2    58  ASP58       0.3671
     86  OD1        9.0030  -18.7910  -36.4490 O.co2  58  ASP58      -0.2456
     87  OD2       10.8400  -19.5410  -35.5210 O.co2  58  ASP58      -0.2456
     88  N          5.9830  -14.9540  -32.8360 N.3    61  ILE61      -0.1245
     89  CA         4.8690  -15.6150  -33.5540 C.3    61  ILE61       0.1561
     90  C          4.5150  -16.9280  -32.8420 C.2    61  ILE61       0.2260
     91  O          3.3260  -17.2020  -32.5840 O.2    61  ILE61      -0.2867
     92  CB         5.1970  -15.8450  -35.0540 C.3    61  ILE61       0.0252
     93  CG1        5.3320  -14.4820  -35.7590 C.3    61  ILE61       0.0019
     94  CG2        4.1130  -16.7100  -35.7690 C.3    61  ILE61       0.0019
     95  CD1        6.1110  -14.5500  -37.0990 C.3    61  ILE61       0.0001
     96  N          1.1080  -10.1010  -38.9910 N.3    73  LEU73      -0.1245
     97  CA         2.2540   -9.8670  -39.8840 C.3    73  LEU73       0.1561
     98  C          1.8610   -8.9530  -41.0460 C.2    73  LEU73       0.2260
     99  O          2.5350   -8.9330  -42.0830 O.2    73  LEU73      -0.2867
    100  CB         2.7980  -11.1980  -40.4450 C.3    73  LEU73       0.0270
    101  CG         3.5720  -12.1210  -39.4850 C.3    73  LEU73       0.0019
    102  CD1        2.6590  -12.9230  -38.5700 C.3    73  LEU73       0.0001
    103  CD2        4.4480  -13.0950  -40.3000 C.3    73  LEU73       0.0001
@<TRIPOS>BOND
     1    32    30   ar
     2    32    33   ar
     3    47    46    1
     4    35    33   ar
     5    35    37   ar
     6    30    29   ar
     7    33    31   ar
     8    45    46    2
     9    45    44    1
    10    46    48    1
    11    27    26    2
    12    37    36   ar
    13    29    31   ar
    14    29    28    1
    15    31    34   ar
    16    44    43    1
    17    26    25    1
    18    36    34   ar
    19    28    25    1
    20    43    42    1
    21    25    24    1
    22    42    39    1
    23    19    18    2
    24    23    21   am
    25    21    22    2
    26    21    20    1
    27    20    17    1
    28    18    17    1
    29    17    16    1
    30    39    38    1
    31    39    40    1
    32    64    63    1
    33    56    54    1
    34    12    11    2
    35    99    98    2
    36    63    62    1
    37    54    53    1
    38    40    41    2
    39    16    11   am
    40    14    13    1
    41    11    10    1
    42    98    97    1
    43    62    61    1
    44   100    97    1
    45   100   101    1
    46    53    55    1
    47    53    50    1
    48    13    10    1
    49    13    15    1
    50   103   101    1
    51     4     3    2
    52    10     9    1
    53    49    50    1
    54    97    96    1
    55    50    51    1
    56   101   102    1
    57    61    58    1
    58     3     2    1
    59     8     6    1
    60     5     2    1
    61     5     6    1
    62     7     6    1
    63     2     1    1
    64    51    52    2
    65    58    57    1
    66    58    59    1
    67    74    73   ar
    68    74    72   ar
    69    73    71   ar
    70    95    93    1
    71    59    60    2
    72    59    65   am
    73    72    70   ar
    74    86    85   ar
    75    65    66    1
    76    79    76    1
    77    71    70   ar
    78    85    84    1
    79    85    87   ar
    80    70    69    1
    81    84    81    1
    82    94    92    1
    83    93    92    1
    84    66    69    1
    85    66    67    1
    86    80    81    1
    87    80    77   am
    88    81    82    1
    89    92    89    1
    90    76    77    1
    91    76    75    1
    92    77    78    2
    93    67    68    2
    94    82    83    2
    95    89    90    1
    96    89    88    1
    97    90    91    2
