@<TRIPOS>MOLECULE
tmp/3fvfA00.pdb
 132 130 0 0 0
SMALL
GASTEIGER

@<TRIPOS>ATOM
      1  N         21.3160   31.7350    7.8730 N.3    41  HIS41      -0.1241
      2  CA        20.9960   33.0740    8.3540 C.3    41  HIS41       0.1621
      3  C         20.0350   33.1060    9.5470 C.2    41  HIS41       0.2264
      4  O         19.9030   34.1500   10.1940 O.2    41  HIS41      -0.2867
      5  CB        20.4730   33.9670    7.2300 C.3    41  HIS41       0.0745
      6  CG        19.0280   33.7320    6.8950 C.ar   41  HIS41       0.0817
      7  ND1       18.6150   33.0770    5.7460 N.ar   41  HIS41      -0.2268
      8  CD2       17.8960   34.1190    7.5400 C.ar   41  HIS41       0.1154
      9  CE1       17.2910   33.0390    5.7190 C.ar   41  HIS41       0.1986
     10  NE2       16.8330   33.6720    6.7870 N.ar   41  HIS41      -0.2212
     11  N         14.4400   39.1510  -11.1140 N.3   161  TYR161     -0.1241
     12  CA        14.8940   40.0440  -10.0250 C.3   161  TYR161      0.1605
     13  C         15.5180   41.3420  -10.5880 C.2   161  TYR161      0.2264
     14  O         15.5380   42.3890   -9.9310 O.2   161  TYR161     -0.2867
     15  CB        15.8570   39.3330   -9.0490 C.3   161  TYR161      0.0534
     16  CG        15.1250   38.7150   -7.9000 C.ar  161  TYR161     -0.0201
     17  CD1       14.5960   37.4330   -7.9880 C.ar  161  TYR161     -0.0009
     18  CD2       14.8820   39.4640   -6.7390 C.ar  161  TYR161     -0.0009
     19  CE1       13.8840   36.9020   -6.9010 C.ar  161  TYR161      0.0417
     20  CE2       14.2130   38.9300   -5.6700 C.ar  161  TYR161      0.0417
     21  CZ        13.7070   37.6570   -5.7530 C.ar  161  TYR161      0.1957
     22  OH        12.9450   37.2200   -4.6930 O.3   161  TYR161     -0.2866
     23  N          3.8530   32.8550   -2.3650 N.3   188  ASP188     -0.1225
     24  CA         5.3040   32.8110   -2.0800 C.3   188  ASP188      0.1805
     25  C          5.5050   32.4870   -0.6060 C.2   188  ASP188      0.2598
     26  O          4.5200   32.4820    0.1670 O.2   188  ASP188     -0.2718
     27  CB         5.8730   34.2090   -2.3540 C.3   188  ASP188      0.1424
     28  CG         7.3310   34.2420   -2.6670 C.2   188  ASP188      0.3668
     29  OD1        7.7420   35.3990   -2.9850 O.co2 188  ASP188     -0.2456
     30  OD2        8.0760   33.2180   -2.5440 O.co2 188  ASP188     -0.2456
     31  N          6.7490   32.2160   -0.2280 N.am  189  ALA189     -0.1966
     32  CA         7.1540   32.1100    1.1850 C.3   189  ALA189      0.1728
     33  C          7.5140   33.5100    1.7320 C.2   189  ALA189      0.2616
     34  O          7.9580   34.3780    0.9710 O.2   189  ALA189     -0.2715
     35  CB         8.3990   31.1610    1.2520 C.3   189  ALA189      0.0334
     36  N          7.2910   33.7350    3.0250 N.am  190  CYS190     -0.1954
     37  CA         7.5380   35.0240    3.6380 C.3   190  CYS190      0.1843
     38  C          8.4180   34.8950    4.8470 C.2   190  CYS190      0.2625
     39  O          8.8150   33.8070    5.2120 O.2   190  CYS190     -0.2714
     40  CB         6.2160   35.6560    4.0850 C.3   190  CYS190      0.0997
     41  SG         4.9300   35.7860    2.8350 S.3   190  CYS190     -0.0797
     42  N          8.7380   36.0250    5.4680 N.am  191  GLN191     -0.1963
     43  CA         9.5080   36.0430    6.7040 C.3   191  GLN191      0.1733
     44  C          8.8460   35.0830    7.7200 C.2   191  GLN191      0.2616
     45  O          7.6260   35.0630    7.9080 O.2   191  GLN191     -0.2715
     46  CB         9.4900   37.4500    7.2560 C.3   191  GLN191      0.0408
     47  CG        10.4100   37.6370    8.4720 C.3   191  GLN191      0.0908
     48  CD        11.8360   37.3830    8.0410 C.2   191  GLN191      0.2608
     49  OE1       12.3000   37.9460    7.0300 O.2   191  GLN191     -0.2717
     50  NE2       12.5290   36.4970    8.7600 N.am  191  GLN191     -0.0878
     51  N          9.6850   34.2720    8.3500 N.am  192  GLY192     -0.1955
     52  CA         9.2100   33.2380    9.2450 C.3   192  GLY192      0.1869
     53  C          9.1580   31.8930    8.5790 C.2   192  GLY192      0.2309
     54  O          9.0770   30.8500    9.2820 O.2   192  GLY192     -0.2863
     55  N         11.5650   31.1150    6.2690 N.3   194  SER194     -0.1217
     56  CA        12.9240   30.7920    5.8560 C.3   194  SER194      0.1889
     57  C         13.5210   29.7070    6.6920 C.2   194  SER194      0.2288
     58  O         13.2030   29.5910    7.8860 O.2   194  SER194     -0.2866
     59  CB        13.7700   32.0690    5.9120 C.3   194  SER194      0.2089
     60  OG        13.3600   32.8290    4.7940 O.3   194  SER194     -0.2183
     61  N         14.2030   27.3180    2.1950 N.3   212  VAL212     -0.1231
     62  CA        13.7040   28.6670    1.9300 C.3   212  VAL212      0.1692
     63  C         14.7660   29.6560    2.4090 C.2   212  VAL212      0.2593
     64  O         15.2100   29.5640    3.5600 O.2   212  VAL212     -0.2718
     65  CB        12.4140   28.9540    2.7140 C.3   212  VAL212      0.0266
     66  CG1       11.9680   30.4110    2.4890 C.3   212  VAL212      0.0020
     67  CG2       11.3020   27.9410    2.3810 C.3   212  VAL212      0.0020
     68  N         15.1990   30.5510    1.5430 N.am  213  SER213     -0.1938
     69  CA        16.3540   31.3980    1.8990 C.3   213  SER213      0.2055
     70  C         16.0940   32.8930    1.8990 C.2   213  SER213      0.2643
     71  O         16.2280   33.5330    2.9560 O.2   213  SER213     -0.2714
     72  CB        17.5350   31.0180    1.0120 C.3   213  SER213      0.2130
     73  OG        18.6630   31.8480    1.2510 O.3   213  SER213     -0.2179
     74  N         15.7290   33.4700    0.7530 N.am  214  TRP214     -0.1959
     75  CA        15.5400   34.9250    0.7360 C.3   214  TRP214      0.1771
     76  C         14.6500   35.3200   -0.4180 C.2   214  TRP214      0.2620
     77  O         14.2390   34.4670   -1.2010 O.2   214  TRP214     -0.2715
     78  CB        16.8800   35.6230    0.6530 C.3   214  TRP214      0.0590
     79  CG        17.6730   35.3180   -0.6180 C.ar  214  TRP214      0.0006
     80  CD1       18.5770   34.3030   -0.7960 C.ar  214  TRP214      0.0946
     81  CD2       17.6650   36.0680   -1.8340 C.ar  214  TRP214      0.0152
     82  NE1       19.1140   34.3590   -2.0630 N.ar  214  TRP214     -0.2442
     83  CE2       18.5530   35.4190   -2.7290 C.ar  214  TRP214      0.0810
     84  CE3       16.9510   37.1910   -2.2700 C.ar  214  TRP214      0.0012
     85  CZ2       18.7950   35.8880   -4.0120 C.ar  214  TRP214      0.0191
     86  CZ3       17.1880   37.6480   -3.5590 C.ar  214  TRP214      0.0001
     87  CH2       18.0770   36.9720   -4.4130 C.ar  214  TRP214      0.0015
     88  N         14.2380   36.5920   -0.4150 N.am  215  GLY215     -0.1940
     89  CA        13.5360   37.1290   -1.5760 C.3   215  GLY215      0.2014
     90  C         13.1260   38.5300   -1.2380 C.2   215  GLY215      0.2639
     91  O         13.3650   39.0260   -0.1630 O.2   215  GLY215     -0.2714
     92  N         12.4990   39.2000   -2.1620 N.am  216  ASP216     -0.1957
     93  CA        11.9280   40.5140   -1.9230 C.3   216  ASP216      0.1840
     94  C         10.6330   40.3340   -1.1490 C.2   216  ASP216      0.2622
     95  O         10.3530   39.2490   -0.6150 O.2   216  ASP216     -0.2715
     96  CB        11.6370   41.2010   -3.2550 C.3   216  ASP216      0.1450
     97  CG        11.6490   42.7220   -3.1510 C.2   216  ASP216      0.3671
     98  OD1       12.0900   43.3560   -4.1150 O.co2 216  ASP216     -0.2456
     99  OD2       11.2330   43.2880   -2.1260 O.co2 216  ASP216     -0.2456
    100  N          9.8200   41.3820   -1.1010 N.am  217  ALA217     -0.1963
    101  CA         8.5700   41.3060   -0.3610 C.3   217  ALA217      0.1728
    102  C          7.7690   40.1310   -0.9140 C.2   217  ALA217      0.2616
    103  O          7.5540   40.0470   -2.1150 O.2   217  ALA217     -0.2715
    104  CB         7.7940   42.6140   -0.4900 C.3   217  ALA217      0.0334
    105  N          7.3430   39.2240   -0.0500 N.am  218  CYS218     -0.1968
    106  CA         6.7000   37.9860   -0.5220 C.3   218  CYS218      0.1712
    107  C          5.4730   38.2990   -1.3040 C.2   218  CYS218      0.2296
    108  O          4.6420   39.1340   -0.8730 O.2   218  CYS218     -0.2864
    109  CB         6.4120   36.9810    0.6070 C.3   218  CYS218      0.0983
    110  SG         5.2500   37.5670    1.8770 S.3   218  CYS218     -0.0798
    111  N          9.4460   38.4910   -8.2680 N.3   223  ARG223     -0.1245
    112  CA        10.2860   38.2840   -7.0740 C.3   223  ARG223      0.1563
    113  C          9.9240   36.9560   -6.4230 C.2   223  ARG223      0.2260
    114  O          9.5030   36.9070   -5.2750 O.2   223  ARG223     -0.2867
    115  CB        10.1190   39.4410   -6.0490 C.3   223  ARG223      0.0307
    116  CG        10.3590   40.7900   -6.6660 C.3   223  ARG223      0.0489
    117  CD        11.8100   40.9900   -6.8860 C.3   223  ARG223      0.2205
    118  NE        12.0830   42.3950   -7.1000 N.pl3 223  ARG223     -0.0865
    119  CZ        12.1860   42.9700   -8.3030 C.cat 223  ARG223      0.5346
    120  NH1       12.0650   42.2440   -9.4350 N.pl3 223  ARG223      0.1354
    121  NH2       12.4040   44.2820   -8.4000 N.pl3 223  ARG223      0.1354
    122  N         10.3500   33.3490   -4.5730 N.3   225  GLY225     -0.1210
    123  CA        11.2390   33.0090   -3.4950 C.3   225  GLY225      0.1956
    124  C         12.5300   32.3500   -3.9650 C.2   225  GLY225      0.2611
    125  O         12.5490   31.6060   -4.9490 O.2   225  GLY225     -0.2717
    126  N         13.6060   32.5820   -3.2020 N.am  226  VAL226     -0.1979
    127  CA        14.9020   31.9480   -3.5350 C.3   226  VAL226      0.1595
    128  C         15.2140   30.9520   -2.4530 C.2   226  VAL226      0.2287
    129  O         14.9580   31.1990   -1.2670 O.2   226  VAL226     -0.2864
    130  CB        15.9890   32.9990   -3.5760 C.3   226  VAL226      0.0276
    131  CG1       17.2190   32.4000   -4.2170 C.3   226  VAL226      0.0022
    132  CG2       15.4620   34.2240   -4.4070 C.3   226  VAL226      0.0022
@<TRIPOS>BOND
     1    11    12    1
     2    13    12    1
     3    13    14    2
     4    12    15    1
     5   120   119    1
     6    15    16    1
     7   121   119    1
     8   119   118    2
     9   111   112    1
    10    17    16   ar
    11    17    19   ar
    12    16    18   ar
    13   118   117    1
    14   112   113    1
    15   112   115    1
    16    19    21   ar
    17   117   116    1
    18    18    20   ar
    19   116   115    1
    20   113   114    2
    21    21    20   ar
    22    21    22    1
    23   125   124    2
    24   122   123    1
    25    87    85   ar
    26    87    86   ar
    27   132   130    1
    28   131   130    1
    29    98    97   ar
    30    85    83   ar
    31   124   123    1
    32   124   126   am
    33   130   127    1
    34    86    84   ar
    35   127   126    1
    36   127   128    1
    37    96    97    1
    38    96    93    1
    39    97    99   ar
    40    29    28   ar
    41    83    82   ar
    42    83    81   ar
    43    28    30   ar
    44    28    27    1
    45   128   129    2
    46    23    24    1
    47    27    24    1
    48    84    81   ar
    49    92    93    1
    50    92    90   am
    51   103   102    2
    52    24    25    1
    53    82    80   ar
    54    93    94    1
    55    81    79   ar
    56    89    90    1
    57    89    88    1
    58   107   108    2
    59   107   106    1
    60    90    91    2
    61    77    76    2
    62    94   100   am
    63    94    95    2
    64   100   101    1
    65   102   101    1
    66   102   105   am
    67    80    79   ar
    68    79    78    1
    69    25    31   am
    70    25    26    2
    71   106   105    1
    72   106   109    1
    73   104   101    1
    74    76    88   am
    75    76    75    1
    76    31    32    1
    77   109   110    1
    78    78    75    1
    79    75    74    1
    80    74    70   am
    81    34    33    2
    82    72    73    1
    83    72    69    1
    84    32    35    1
    85    32    33    1
    86    68    69    1
    87    68    63   am
    88    33    36   am
    89   110    41    1
    90    70    69    1
    91    70    71    2
    92    62    61    1
    93    62    63    1
    94    62    65    1
    95    67    65    1
    96    63    64    2
    97    66    65    1
    98    41    40    1
    99    36    37    1
   100    37    40    1
   101    37    38    1
   102    60    59    1
   103    38    39    2
   104    38    42   am
   105    42    43    1
   106     9     7   ar
   107     9    10   ar
   108     7     6   ar
   109    56    59    1
   110    56    55    1
   111    56    57    1
   112    57    58    2
   113    43    46    1
   114    43    44    1
   115    10     8   ar
   116     6     5    1
   117     6     8   ar
   118    49    48    2
   119     5     2    1
   120    46    47    1
   121    44    45    2
   122    44    51   am
   123     1     2    1
   124    48    47    1
   125    48    50   am
   126    51    52    1
   127     2     3    1
   128    53    52    1
   129    53    54    2
   130     3     4    2
