@<TRIPOS>MOLECULE
tmp/3fvhA00.pdb
 142 142 0 0 0
SMALL
GASTEIGER

@<TRIPOS>ATOM
      1  N          5.3530    5.4960    4.7150 N.3    42  SER42      -0.1202
      2  CA         6.0930    6.7570    4.8340 C.3    42  SER42       0.2020
      3  C          5.1930    8.0110    4.8500 C.2    42  SER42       0.2619
      4  O          5.6020    9.0460    5.3920 O.2    42  SER42      -0.2717
      5  CB         7.1100    6.8280    3.6980 C.3    42  SER42       0.2103
      6  OG         6.4820    6.4590    2.4550 O.3    42  SER42      -0.2182
      7  N          3.9750    7.9160    4.3100 N.am   43  LYS43      -0.1965
      8  CA         3.0080    9.0370    4.2550 C.3    43  LYS43       0.1728
      9  C          1.6070    8.4670    4.2420 C.2    43  LYS43       0.2616
     10  O          1.3810    7.3600    3.7330 O.2    43  LYS43      -0.2715
     11  CB         3.1620    9.9050    2.9720 C.3    43  LYS43       0.0311
     12  CG         4.5710   10.3790    2.7110 C.3    43  LYS43       0.0038
     13  CD         4.6610   11.2350    1.4870 C.3    43  LYS43       0.0206
     14  CE         6.0990   11.7540    1.2840 C.3    43  LYS43       0.1093
     15  NZ         6.1930   12.8170    0.2120 N.3    43  LYS43      -0.1314
     16  N          0.6400    9.2050    4.7870 N.am   44  TRP44      -0.1960
     17  CA        -0.7660    8.7830    4.6880 C.3    44  TRP44       0.1771
     18  C         -1.6820    9.9960    4.7390 C.2    44  TRP44       0.2620
     19  O         -1.3190   11.0510    5.2940 O.2    44  TRP44      -0.2715
     20  CB        -1.1700    7.7520    5.7590 C.3    44  TRP44       0.0590
     21  CG        -0.9410    8.2110    7.1810 C.ar   44  TRP44       0.0006
     22  CD1        0.1710    7.9760    7.9620 C.ar   44  TRP44       0.0946
     23  CD2       -1.8290    8.9890    7.9910 C.ar   44  TRP44       0.0152
     24  NE1        0.0100    8.5400    9.1930 N.ar   44  TRP44      -0.2442
     25  CE2       -1.1930    9.1940    9.2210 C.ar   44  TRP44       0.0810
     26  CE3       -3.1000    9.5460    7.7840 C.ar   44  TRP44       0.0012
     27  CZ2       -1.7880    9.9060   10.2550 C.ar   44  TRP44       0.0191
     28  CZ3       -3.6810   10.2720    8.8230 C.ar   44  TRP44       0.0001
     29  CH2       -3.0260   10.4470   10.0160 C.ar   44  TRP44       0.0015
     30  N         -2.8680    9.7900    4.1960 N.am   45  VAL45      -0.1963
     31  CA        -3.9560   10.7780    4.1280 C.3    45  VAL45       0.1727
     32  C         -5.2810   10.0800    4.4040 C.2    45  VAL45       0.2616
     33  O         -5.6390    9.1400    3.7090 O.2    45  VAL45      -0.2715
     34  CB        -4.0160   11.4040    2.7270 C.3    45  VAL45       0.0290
     35  CG1       -5.1310   12.4390    2.6630 C.3    45  VAL45       0.0023
     36  CG2       -2.6850   12.0140    2.3940 C.3    45  VAL45       0.0023
     37  N         -5.9910   10.5340    5.4280 N.am   46  ASP46      -0.1971
     38  CA        -7.2570    9.9530    5.8630 C.3    46  ASP46       0.1709
     39  C         -8.3790   10.7430    5.2270 C.2    46  ASP46       0.2293
     40  O         -8.8240   11.7510    5.7620 O.2    46  ASP46      -0.2864
     41  CB        -7.3570   10.0130    7.3920 C.3    46  ASP46       0.1436
     42  CG        -8.6620    9.5060    7.9200 C.2    46  ASP46       0.3671
     43  OD1       -9.5090    9.0670    7.1220 O.co2  46  ASP46      -0.2456
     44  OD2       -8.8150    9.4590    9.1640 O.co2  46  ASP46      -0.2456
     45  N         -0.9810   15.0700   -3.5490 N.3   115  TYR115     -0.1241
     46  CA        -1.1200   15.7180   -2.2520 C.3   115  TYR115      0.1605
     47  C          0.0350   15.3440   -1.3280 C.2   115  TYR115      0.2264
     48  O          0.6320   16.2000   -0.6570 O.2   115  TYR115     -0.2867
     49  CB        -2.4300   15.3110   -1.5680 C.3   115  TYR115      0.0534
     50  CG        -2.6050   15.9420   -0.1970 C.ar  115  TYR115     -0.0201
     51  CD1       -3.3460   17.1060   -0.0190 C.ar  115  TYR115     -0.0009
     52  CD2       -1.9940   15.3850    0.9080 C.ar  115  TYR115     -0.0009
     53  CE1       -3.4740   17.6740    1.2680 C.ar  115  TYR115      0.0417
     54  CE2       -2.1350   15.9320    2.1640 C.ar  115  TYR115      0.0417
     55  CZ        -2.8750   17.0720    2.3360 C.ar  115  TYR115      0.1957
     56  OH        -3.0020   17.6580    3.5810 O.3   115  TYR115     -0.2866
     57  N          2.8840   17.9560    0.0920 N.3   119  HIS119     -0.1226
     58  CA         2.7200   18.4330    1.4730 C.3   119  HIS119      0.1752
     59  C          3.3590   17.6190    2.5870 C.2   119  HIS119      0.2596
     60  O          3.5440   18.1560    3.6850 O.2   119  HIS119     -0.2718
     61  CB         1.2310   18.5690    1.7780 C.3   119  HIS119      0.0759
     62  CG         0.5360   19.6170    0.9610 C.ar  119  HIS119      0.0818
     63  ND1       -0.4510   19.3110    0.0540 N.ar  119  HIS119     -0.2268
     64  CD2        0.7040   20.9620    0.8960 C.ar  119  HIS119      0.1154
     65  CE1       -0.8830   20.4250   -0.5130 C.ar  119  HIS119      0.1986
     66  NE2       -0.1780   21.4340   -0.0460 N.ar  119  HIS119     -0.2212
     67  N          3.6400   16.3390    2.3550 N.am  120  LEU120     -0.1966
     68  CA         3.9830   15.4840    3.5010 C.3   120  LEU120      0.1728
     69  C          5.4210   14.9920    3.5170 C.2   120  LEU120      0.2616
     70  O          6.0150   14.7170    2.4730 O.2   120  LEU120     -0.2715
     71  CB         3.0080   14.2940    3.5850 C.3   120  LEU120      0.0311
     72  CG         1.5340   14.7130    3.5450 C.3   120  LEU120      0.0022
     73  CD1        0.6680   13.4320    3.6800 C.3   120  LEU120      0.0001
     74  CD2        1.1360   15.7050    4.6150 C.3   120  LEU120      0.0001
     75  N          5.9870   14.9500    4.7210 N.am  121  LEU121     -0.1977
     76  CA         7.3080   14.3760    4.8980 C.3   121  LEU121      0.1596
     77  C          7.3010   12.8870    4.7050 C.2   121  LEU121      0.2287
     78  O          6.3060   12.2160    4.9400 O.2   121  LEU121     -0.2864
     79  CB         7.8630   14.6540    6.2950 C.3   121  LEU121      0.0297
     80  CG         7.8420   16.1000    6.7730 C.3   121  LEU121      0.0022
     81  CD1        8.3970   16.2060    8.1800 C.3   121  LEU121      0.0001
     82  CD2        8.6640   16.9400    5.8260 C.3   121  LEU121      0.0001
     83  N         -7.8050    4.3610   13.6930 N.3   146  ARG146     -0.1245
     84  CA        -7.1400    5.3570   14.4990 C.3   146  ARG146      0.1563
     85  C         -7.7370    5.3860   15.8870 C.2   146  ARG146      0.2260
     86  O         -8.9160    5.0610   16.0830 O.2   146  ARG146     -0.2867
     87  CB        -7.2060    6.7270   13.8140 C.3   146  ARG146      0.0307
     88  CG        -8.5560    7.2140   13.3460 C.3   146  ARG146      0.0489
     89  CD        -8.3630    8.3990   12.3450 C.3   146  ARG146      0.2205
     90  NE        -7.6590    9.4900   13.0070 N.pl3 146  ARG146     -0.0865
     91  CZ        -7.0040   10.4690   12.4080 C.cat 146  ARG146      0.5346
     92  NH1       -6.8980   10.5340   11.0800 N.pl3 146  ARG146      0.1354
     93  NH2       -6.4300   11.3950   13.1460 N.pl3 146  ARG146      0.1354
     94  N          1.8400    4.7460   14.4040 N.3   163  ASN163     -0.1225
     95  CA         2.3850    6.0890   14.4000 C.3   163  ASN163      0.1785
     96  C          1.6630    6.9010   15.4760 C.2   163  ASN163      0.2597
     97  O          0.4300    7.0050   15.4390 O.2   163  ASN163     -0.2718
     98  CB         2.1000    6.8000   13.0770 C.3   163  ASN163      0.1169
     99  CG         2.9620    6.3200   11.9160 C.2   163  ASN163      0.2627
    100  OD1        3.6350    5.2850   11.9590 O.2   163  ASN163     -0.2716
    101  ND2        2.9390    7.1080   10.8650 N.am  163  ASN163     -0.0877
    102  N          2.4080    7.4650   16.4240 N.am  164  PHE164     -0.1962
    103  CA         1.8330    8.2230   17.5310 C.3   164  PHE164      0.1771
    104  C          1.7610    9.6910   17.1830 C.2   164  PHE164      0.2619
    105  O          2.7670   10.2930   16.8040 O.2   164  PHE164     -0.2715
    106  CB         2.6920    8.0180   18.7890 C.3   164  PHE164      0.0574
    107  CG         2.6340    6.6170   19.3340 C.ar  164  PHE164     -0.0200
    108  CD1        3.5830    5.6740   18.9850 C.ar  164  PHE164     -0.0042
    109  CD2        1.6100    6.2420   20.2010 C.ar  164  PHE164     -0.0042
    110  CE1        3.5060    4.3850   19.4660 C.ar  164  PHE164     -0.0003
    111  CE2        1.5470    4.9650   20.6860 C.ar  164  PHE164     -0.0003
    112  CZ         2.4830    4.0410   20.3250 C.ar  164  PHE164     -0.0000
    113  N          0.5570   10.2580   17.2720 N.am  165  PHE165     -0.1974
    114  CA         0.3460   11.6330   16.8560 C.3   165  PHE165      0.1639
    115  C          1.1050   12.6550   17.7110 C.2   165  PHE165      0.2290
    116  O          1.6450   13.6290   17.1800 O.2   165  PHE165     -0.2864
    117  CB        -1.1490   12.0170   16.8770 C.3   165  PHE165      0.0560
    118  CG        -2.0590   11.1230   16.0560 C.ar  165  PHE165     -0.0200
    119  CD1       -3.1290   10.5010   16.6580 C.ar  165  PHE165     -0.0042
    120  CD2       -1.8760   10.9320   14.6960 C.ar  165  PHE165     -0.0042
    121  CE1       -3.9810    9.6770   15.9430 C.ar  165  PHE165     -0.0003
    122  CE2       -2.7400   10.1090   13.9680 C.ar  165  PHE165     -0.0003
    123  CZ        -3.7790    9.4720   14.5970 C.ar  165  PHE165     -0.0000
    124  N          5.2250   11.9780   17.5220 N.3   168  HIS168     -0.1241
    125  CA         5.7440   11.5670   16.2230 C.3   168  HIS168      0.1621
    126  C          6.5910   10.3070   16.2810 C.2   168  HIS168      0.2264
    127  O          7.2810    9.9820   15.3180 O.2   168  HIS168     -0.2867
    128  CB         6.5530   12.6790   15.5660 C.3   168  HIS168      0.0745
    129  CG         5.8100   13.9660   15.4600 C.ar  168  HIS168      0.0817
    130  ND1        4.7430   14.1360   14.6060 N.ar  168  HIS168     -0.2268
    131  CD2        5.9790   15.1470   16.0960 C.ar  168  HIS168      0.1154
    132  CE1        4.2860   15.3690   14.7200 C.ar  168  HIS168      0.1986
    133  NE2        5.0340   16.0100   15.6030 N.ar  168  HIS168     -0.2212
    134  N          7.1760    6.2200   16.2500 N.3   170  LYS170     -0.1245
    135  CA         6.5790    5.1780   15.4190 C.3   170  LYS170      0.1561
    136  C          7.1480    3.8170   15.7190 C.2   170  LYS170      0.2260
    137  O          8.3450    3.6500   16.0210 O.2   170  LYS170     -0.2867
    138  CB         6.7780    5.4970   13.9210 C.3   170  LYS170      0.0271
    139  CG         6.3870    6.9670   13.5440 C.3   170  LYS170      0.0035
    140  CD         6.5420    7.2390   12.0690 C.3   170  LYS170      0.0206
    141  CE         6.0780    8.5950   11.7270 C.3   170  LYS170      0.1093
    142  NZ         6.7770    9.6910   12.5060 N.3   170  LYS170     -0.1314
@<TRIPOS>BOND
     1    45    46    1
     2    46    49    1
     3    46    47    1
     4    49    50    1
     5    47    48    2
     6    65    66   ar
     7    65    63   ar
     8    50    51   ar
     9    50    52   ar
    10    66    64   ar
    11    51    53   ar
    12    63    62   ar
    13    57    58    1
    14    15    14    1
    15    64    62   ar
    16    52    54   ar
    17    62    61    1
    18    53    55   ar
    19    14    13    1
    20    58    61    1
    21    58    59    1
    22    13    12    1
    23    54    55   ar
    24    55    56    1
    25    67    59   am
    26    67    68    1
    27    36    34    1
    28     6     5    1
    29    70    69    2
    30    59    60    2
    31    35    34    1
    32    12    11    1
    33    34    31    1
    34    11     8    1
    35    68    69    1
    36    68    71    1
    37    69    75   am
    38    72    71    1
    39    72    73    1
    40    72    74    1
    41     5     2    1
    42    33    32    2
    43    10     9    2
    44    31    30    1
    45    31    32    1
    46    30    18   am
    47     9     8    1
    48     9    16   am
    49     8     7    1
    50     7     3   am
    51    32    37   am
    52    17    18    1
    53    17    16    1
    54    17    20    1
    55    77    76    1
    56    77    78    2
    57     1     2    1
    58    75    76    1
    59    18    19    2
    60     2     3    1
    61     3     4    2
    62    76    79    1
    63    39    40    2
    64    39    38    1
    65    37    38    1
    66    20    21    1
    67    82    80    1
    68    38    41    1
    69    79    80    1
    70    80    81    1
    71    43    42   ar
    72    21    22   ar
    73    21    23   ar
    74    41    42    1
    75    26    23   ar
    76    26    28   ar
    77    42    44   ar
    78    22    24   ar
    79    23    25   ar
    80    28    29   ar
    81    24    25   ar
    82    25    27   ar
    83    29    27   ar
    84   101    99   am
    85    92    91    1
    86   141   140    1
    87   141   142    1
    88    99   100    2
    89    99    98    1
    90   140   139    1
    91    89    90    1
    92    89    88    1
    93    91    90    2
    94    91    93    1
    95    98    95    1
    96    88    87    1
    97   139   138    1
    98    83    84    1
    99    87    84    1
   100   138   135    1
   101   122   123   ar
   102   122   120   ar
   103    95    94    1
   104    95    96    1
   105    84    85    1
   106   123   121   ar
   107   130   132   ar
   108   130   129   ar
   109   120   118   ar
   110   132   133   ar
   111   127   126    2
   112   135   136    1
   113   135   134    1
   114    97    96    2
   115   129   128    1
   116   129   131   ar
   117    96   102   am
   118   128   125    1
   119   133   131   ar
   120   136   137    2
   121    85    86    2
   122   121   119   ar
   123   118   119   ar
   124   118   117    1
   125   125   126    1
   126   125   124    1
   127   102   103    1
   128   105   104    2
   129   114   117    1
   130   114   113    1
   131   114   115    1
   132   116   115    2
   133   104   113   am
   134   104   103    1
   135   103   106    1
   136   106   107    1
   137   108   107   ar
   138   108   110   ar
   139   107   109   ar
   140   110   112   ar
   141   109   111   ar
   142   112   111   ar
