@<TRIPOS>MOLECULE
tmp/3fviC03.pdb
 77 73 0 0 0
SMALL
GASTEIGER

@<TRIPOS>ATOM
      1  N          7.0230   34.7650   13.9190 N.3    24  ASN24      -0.1240
      2  CA         8.3890   34.8900   14.4060 C.3    24  ASN24       0.1653
      3  C          9.2370   35.7820   13.5160 C.2    24  ASN24       0.2266
      4  O         10.1570   35.3330   12.8250 O.2    24  ASN24      -0.2867
      5  CB         9.0340   33.5160   14.5500 C.3    24  ASN24       0.1155
      6  CG         8.4270   32.7240   15.6700 C.2    24  ASN24       0.2627
      7  OD1        8.4170   33.1620   16.8220 O.2    24  ASN24      -0.2716
      8  ND2        7.9060   31.5570   15.3470 N.am   24  ASN24      -0.0877
      9  N         10.4340   41.6380   16.8290 N.3    27  CYS27      -0.1235
     10  CA        10.2870   41.3650   18.2500 C.3    27  CYS27       0.1677
     11  C          8.8180   41.2200   18.6260 C.2    27  CYS27       0.2270
     12  O          8.5010   40.8000   19.7350 O.2    27  CYS27      -0.2867
     13  CB        10.9070   42.4940   19.0870 C.3    27  CYS27       0.0956
     14  SG        12.7200   42.7100   19.0280 S.3    27  CYS27      -0.0801
     15  N          6.1400   40.1620   16.0070 N.3    29  CYS29      -0.1221
     16  CA         5.4210   39.2190   15.1540 C.3    29  CYS29       0.1808
     17  C          5.5730   37.7900   15.6600 C.2    29  CYS29       0.2602
     18  O          6.5140   37.0810   15.2910 O.2    29  CYS29      -0.2717
     19  CB         5.9170   39.3020   13.7110 C.3    29  CYS29       0.0970
     20  SG         5.7830   40.9440   12.9310 S.3    29  CYS29      -0.0800
     21  N          4.6290   37.3790   16.5040 N.am   30  GLY30      -0.1942
     22  CA         4.6380   36.0430   17.0660 C.3    30  GLY30       0.2014
     23  C          4.2290   36.0620   18.5250 C.2    30  GLY30       0.2639
     24  O          3.8200   37.0960   19.0420 O.2    30  GLY30      -0.2714
     25  N          4.3360   34.9190   19.1950 N.am   31  LEU31      -0.1963
     26  CA         3.9810   34.8360   20.6040 C.3    31  LEU31       0.1728
     27  C          4.7650   35.9360   21.3040 C.2    31  LEU31       0.2617
     28  O          5.8870   36.2500   20.9030 O.2    31  LEU31      -0.2715
     29  CB         4.3750   33.4700   21.1700 C.3    31  LEU31       0.0311
     30  CG         3.7900   33.1060   22.5340 C.3    31  LEU31       0.0022
     31  CD1        2.3180   32.8100   22.3820 C.3    31  LEU31       0.0001
     32  CD2        4.4840   31.8920   23.0930 C.3    31  LEU31       0.0001
     33  N          4.1770   36.5330   22.3330 N.am   32  GLY32      -0.1940
     34  CA         4.8650   37.5860   23.0540 C.3    32  GLY32       0.2014
     35  C          5.3090   38.7420   22.1770 C.2    32  GLY32       0.2639
     36  O          4.9990   38.8000   20.9870 O.2    32  GLY32      -0.2714
     37  N          6.0370   39.6730   22.7810 N.am   33  GLY33      -0.1939
     38  CA         6.5270   40.8380   22.0680 C.3    33  GLY33       0.2014
     39  C          7.1960   41.7870   23.0450 C.2    33  GLY33       0.2639
     40  O          6.6370   42.0790   24.1080 O.2    33  GLY33      -0.2714
     41  N          8.3900   42.2690   22.7020 N.am   34  SER34      -0.1949
     42  CA         9.1030   43.1750   23.5960 C.3    34  SER34       0.1924
     43  C         10.1640   44.0370   22.9230 C.2    34  SER34       0.2314
     44  O         10.4750   43.8760   21.7460 O.2    34  SER34      -0.2863
     45  CB         9.7700   42.3840   24.7200 C.3    34  SER34       0.2116
     46  OG        10.8940   41.6710   24.2330 O.3    34  SER34      -0.2180
     47  N         12.9340   35.3010   12.2270 N.3   117  ASN117     -0.1225
     48  CA        13.5130   34.4680   13.2830 C.3   117  ASN117      0.1785
     49  C         14.6600   35.1990   13.9650 C.2   117  ASN117      0.2597
     50  O         15.8170   34.7980   13.8630 O.2   117  ASN117     -0.2718
     51  CB        14.0220   33.1350   12.7190 C.3   117  ASN117      0.1169
     52  CG        12.9180   32.3050   12.1070 C.2   117  ASN117      0.2627
     53  OD1       12.6160   32.4320   10.9220 O.2   117  ASN117     -0.2716
     54  ND2       12.2940   31.4590   12.9200 N.am  117  ASN117     -0.0877
     55  N         14.3140   36.2670   14.6730 N.am  118  LEU118     -0.1966
     56  CA        15.2800   37.1060   15.3690 C.3   118  LEU118      0.1728
     57  C         15.6060   36.5830   16.7610 C.2   118  LEU118      0.2616
     58  O         14.7280   36.0840   17.4600 O.2   118  LEU118     -0.2715
     59  CB        14.7090   38.5190   15.4800 C.3   118  LEU118      0.0311
     60  CG        15.6110   39.6710   15.9100 C.3   118  LEU118      0.0022
     61  CD1       16.5980   39.9750   14.8020 C.3   118  LEU118      0.0001
     62  CD2       14.7650   40.9000   16.2000 C.3   118  LEU118      0.0001
     63  N         16.8670   36.6880   17.1670 N.am  119  ASP119     -0.1957
     64  CA        17.2470   36.2450   18.5020 C.3   119  ASP119      0.1840
     65  C         16.6550   37.3040   19.4130 C.2   119  ASP119      0.2622
     66  O         17.2730   38.3490   19.6360 O.2   119  ASP119     -0.2715
     67  CB        18.7700   36.2170   18.6710 C.3   119  ASP119      0.1450
     68  CG        19.1980   35.7650   20.0700 C.2   119  ASP119      0.3671
     69  OD1       20.4130   35.7940   20.3660 O.co2 119  ASP119     -0.2456
     70  OD2       18.3170   35.3790   20.8750 O.co2 119  ASP119     -0.2456
     71  N         15.4570   37.0490   19.9320 N.am  120  THR120     -0.1951
     72  CA        14.8130   38.0400   20.7780 C.3   120  THR120      0.1897
     73  C         15.4680   38.2360   22.1320 C.2   120  THR120      0.2313
     74  O         15.5110   39.3560   22.6380 O.2   120  THR120     -0.2863
     75  CB        13.3020   37.7450   20.9650 C.3   120  THR120      0.1794
     76  OG1       13.1140   36.5360   21.7080 O.3   120  THR120     -0.2208
     77  CG2       12.6300   37.6320   19.6070 C.3   120  THR120      0.0378
@<TRIPOS>BOND
     1    53    52    2
     2    52    51    1
     3    52    54   am
     4    47    48    1
     5    51    48    1
     6     4     3    2
     7    20    19    1
     8    48    49    1
     9     3     2    1
    10    19    16    1
    11    50    49    2
    12     1     2    1
    13    49    55   am
    14     2     5    1
    15     5     6    1
    16    55    56    1
    17    61    60    1
    18    16    17    1
    19    16    15    1
    20    18    17    2
    21     8     6   am
    22    56    59    1
    23    56    57    1
    24    59    60    1
    25    17    21   am
    26     6     7    2
    27    60    62    1
    28    21    22    1
    29    57    63   am
    30    57    58    2
    31     9    10    1
    32    22    23    1
    33    63    64    1
    34    10    11    1
    35    10    13    1
    36    64    67    1
    37    64    65    1
    38    23    24    2
    39    23    25   am
    40    11    12    2
    41    67    68    1
    42    14    13    1
    43    25    26    1
    44    65    66    2
    45    65    71   am
    46    77    75    1
    47    71    72    1
    48    68    69   ar
    49    68    70   ar
    50    26    29    1
    51    26    27    1
    52    72    75    1
    53    72    73    1
    54    28    27    2
    55    75    76    1
    56    36    35    2
    57    29    30    1
    58    27    33   am
    59    44    43    2
    60    38    37    1
    61    38    39    1
    62    73    74    2
    63    35    37   am
    64    35    34    1
    65    33    34    1
    66    31    30    1
    67    30    32    1
    68    41    39   am
    69    41    42    1
    70    43    42    1
    71    39    40    2
    72    42    45    1
    73    46    45    1
