@<TRIPOS>MOLECULE
tmp/3fviB01.pdb
 155 155 0 0 0
SMALL
GASTEIGER

@<TRIPOS>ATOM
      1  N        -13.2460   15.2750   29.4780 N.3     2  LEU2       -0.1231
      2  CA       -13.2120   16.3890   28.5360 C.3     2  LEU2        0.1693
      3  C        -12.3790   16.2380   27.2610 C.2     2  LEU2        0.2592
      4  O        -12.9100   16.4330   26.1670 O.2     2  LEU2       -0.2718
      5  CB       -12.8110   17.6680   29.2780 C.3     2  LEU2        0.0284
      6  CG       -13.0920   19.0170   28.6010 C.3     2  LEU2        0.0019
      7  CD1      -14.5090   19.0390   28.0160 C.3     2  LEU2        0.0001
      8  CD2      -12.9070   20.1320   29.6220 C.3     2  LEU2        0.0001
      9  N        -11.0930   15.9030   27.3760 N.am    3  TRP3       -0.1976
     10  CA       -10.2610   15.7550   26.1750 C.3     3  TRP3        0.1640
     11  C        -10.8040   14.6400   25.2880 C.2     3  TRP3        0.2290
     12  O        -10.5880   14.6350   24.0780 O.2     3  TRP3       -0.2864
     13  CB        -8.8020   15.4360   26.5230 C.3     3  TRP3        0.0576
     14  CG        -8.5530   13.9730   26.7470 C.ar    3  TRP3        0.0006
     15  CD1       -8.7730   13.2690   27.8970 C.ar    3  TRP3        0.0946
     16  CD2       -8.1040   13.0190   25.7730 C.ar    3  TRP3        0.0152
     17  NE1       -8.4900   11.9370   27.6990 N.ar    3  TRP3       -0.2442
     18  CE2       -8.0790   11.7560   26.4050 C.ar    3  TRP3        0.0810
     19  CE3       -7.7240   13.1100   24.4270 C.ar    3  TRP3        0.0012
     20  CZ2       -7.6890   10.5900   25.7390 C.ar    3  TRP3        0.0191
     21  CZ3       -7.3350   11.9480   23.7620 C.ar    3  TRP3        0.0001
     22  CH2       -7.3220   10.7050   24.4220 C.ar    3  TRP3        0.0015
     23  N        -14.0940   13.8920   25.1510 N.3     5  PHE5       -0.1227
     24  CA       -15.3320   14.3990   24.5950 C.3     5  PHE5        0.1736
     25  C        -14.9640   15.3210   23.4350 C.2     5  PHE5        0.2595
     26  O        -15.6860   15.3960   22.4330 O.2     5  PHE5       -0.2718
     27  CB       -16.1270   15.1470   25.6700 C.3     5  PHE5        0.0547
     28  CG       -17.4740   15.6310   25.2090 C.ar    5  PHE5       -0.0202
     29  CD1      -18.2080   14.9130   24.2790 C.ar    5  PHE5       -0.0042
     30  CD2      -18.0310   16.7810   25.7490 C.ar    5  PHE5       -0.0042
     31  CE1      -19.4800   15.3360   23.8950 C.ar    5  PHE5       -0.0003
     32  CE2      -19.2980   17.2090   25.3760 C.ar    5  PHE5       -0.0003
     33  CZ       -20.0220   16.4890   24.4510 C.ar    5  PHE5       -0.0000
     34  N        -13.8340   16.0120   23.5650 N.am    6  ARG6       -0.1980
     35  CA       -13.3820   16.8930   22.4990 C.3     6  ARG6        0.1597
     36  C        -13.1040   16.0140   21.2830 C.2     6  ARG6        0.2287
     37  O        -13.5550   16.2980   20.1720 O.2     6  ARG6       -0.2864
     38  CB       -12.0910   17.6140   22.8970 C.3     6  ARG6        0.0334
     39  CG       -11.7130   18.7880   21.9810 C.3     6  ARG6        0.0492
     40  CD       -10.3990   19.4280   22.4140 C.3     6  ARG6        0.2205
     41  NE        -9.2790   18.7450   21.7880 N.pl3   6  ARG6       -0.0865
     42  CZ        -8.8580   18.9920   20.5540 C.cat   6  ARG6        0.5346
     43  NH1       -7.8390   18.3090   20.0530 N.pl3   6  ARG6        0.1354
     44  NH2       -9.4340   19.9420   19.8310 N.pl3   6  ARG6        0.1354
     45  N        -16.2320   14.7240   19.3870 N.3     9  ILE9       -0.1245
     46  CA       -16.8290   15.7300   18.5380 C.3     9  ILE9        0.1561
     47  C        -16.0230   15.9000   17.2600 C.2     9  ILE9        0.2260
     48  O        -16.5970   16.1340   16.2020 O.2     9  ILE9       -0.2867
     49  CB       -16.9680   17.0670   19.2920 C.3     9  ILE9        0.0252
     50  CG1      -17.9790   16.9030   20.4350 C.3     9  ILE9        0.0019
     51  CG2      -17.4330   18.1530   18.3490 C.3     9  ILE9        0.0019
     52  CD1      -18.0620   18.0830   21.3830 C.3     9  ILE9        0.0001
     53  N        -14.3500   21.8960   18.3550 N.3    18  PRO18      -0.2102
     54  CA       -15.2590   21.7230   19.4880 C.3    18  PRO18       0.1504
     55  C        -15.4000   22.8840   20.4560 C.2    18  PRO18       0.2575
     56  O        -16.4740   23.4600   20.5840 O.2    18  PRO18      -0.2718
     57  CB       -14.7150   20.4700   20.1650 C.3    18  PRO18       0.0282
     58  CG       -14.2080   19.6790   19.0040 C.3    18  PRO18       0.0208
     59  CD       -13.4660   20.7250   18.2260 C.3    18  PRO18       0.0893
     60  N        -14.3200   23.2130   21.1520 N.am   19  LEU19      -0.1980
     61  CA       -14.3460   24.2920   22.1250 C.3    19  LEU19       0.1596
     62  C        -14.7110   25.6500   21.5230 C.2    19  LEU19       0.2287
     63  O        -15.5540   26.3700   22.0590 O.2    19  LEU19      -0.2864
     64  CB       -12.9970   24.3800   22.8210 C.3    19  LEU19       0.0297
     65  CG       -13.0070   25.2550   24.0600 C.3    19  LEU19       0.0022
     66  CD1      -14.0510   24.7460   25.0210 C.3    19  LEU19       0.0001
     67  CD2      -11.6380   25.2410   24.6890 C.3    19  LEU19       0.0001
     68  N        -18.5300   24.9290   19.9380 N.3    22  PHE22      -0.1227
     69  CA       -19.6250   24.6030   20.8430 C.3    22  PHE22       0.1736
     70  C        -19.6700   25.1230   22.2580 C.2    22  PHE22       0.2595
     71  O        -20.6410   24.8660   22.9710 O.2    22  PHE22      -0.2718
     72  CB       -19.8060   23.0930   20.8650 C.3    22  PHE22       0.0547
     73  CG       -20.0200   22.5270   19.5150 C.ar   22  PHE22      -0.0202
     74  CD1      -21.1850   22.8120   18.8130 C.ar   22  PHE22      -0.0042
     75  CD2      -19.0280   21.7850   18.8960 C.ar   22  PHE22      -0.0042
     76  CE1      -21.3560   22.3690   17.5110 C.ar   22  PHE22      -0.0003
     77  CE2      -19.1900   21.3380   17.5960 C.ar   22  PHE22      -0.0003
     78  CZ       -20.3560   21.6320   16.9020 C.ar   22  PHE22      -0.0000
     79  N        -18.6440   25.8400   22.6900 N.am   23  ASN23      -0.1974
     80  CA       -18.6920   26.3800   24.0340 C.3    23  ASN23       0.1688
     81  C        -19.3120   27.7700   24.0070 C.2    23  ASN23       0.2292
     82  O        -19.0330   28.5720   23.1100 O.2    23  ASN23      -0.2864
     83  CB       -17.3190   26.4910   24.6470 C.3    23  ASN23       0.1181
     84  CG       -17.3930   26.9740   26.0530 C.2    23  ASN23       0.2629
     85  OD1      -16.4720   27.5920   26.5590 O.2    23  ASN23      -0.2716
     86  ND2      -18.5070   26.6890   26.7080 N.am   23  ASN23      -0.0877
     87  N        -27.5800   26.2580   26.8260 N.3    28  TYR28      -0.1227
     88  CA       -26.9710   25.1480   27.5280 C.3    28  TYR28       0.1736
     89  C        -25.5630   24.7230   27.1340 C.2    28  TYR28       0.2596
     90  O        -24.8860   24.0610   27.9220 O.2    28  TYR28      -0.2718
     91  CB       -27.9160   23.9410   27.4490 C.3    28  TYR28       0.0548
     92  CG       -29.2170   24.1540   28.1850 C.ar   28  TYR28      -0.0200
     93  CD1      -29.4220   23.6020   29.4500 C.ar   28  TYR28      -0.0009
     94  CD2      -30.2300   24.9440   27.6380 C.ar   28  TYR28      -0.0009
     95  CE1      -30.5990   23.8310   30.1550 C.ar   28  TYR28       0.0417
     96  CE2      -31.4120   25.1810   28.3320 C.ar   28  TYR28       0.0417
     97  CZ       -31.5880   24.6210   29.5910 C.ar   28  TYR28       0.1957
     98  OH       -32.7460   24.8590   30.2920 O.3    28  TYR28      -0.2866
     99  N        -25.1060   25.0930   25.9430 N.am   29  CYS29      -0.1956
    100  CA       -23.7730   24.6660   25.5210 C.3    29  CYS29       0.1843
    101  C        -22.6450   25.3220   26.2900 C.2    29  CYS29       0.2626
    102  O        -22.3170   26.4860   26.0660 O.2    29  CYS29      -0.2714
    103  CB       -23.5920   24.8840   24.0260 C.3    29  CYS29       0.0997
    104  SG       -24.8540   24.0040   23.0490 S.3    29  CYS29      -0.0797
    105  N        -22.0570   24.5490   27.2010 N.am   30  GLY30      -0.1954
    106  CA       -20.9740   25.0410   28.0330 C.3    30  GLY30       0.1869
    107  C        -21.2960   24.8670   29.5080 C.2    30  GLY30       0.2309
    108  O        -22.3410   24.3200   29.8620 O.2    30  GLY30      -0.2863
    109  N        -27.1220   20.1010   23.8650 N.3    45  CYS45      -0.1235
    110  CA       -26.3710   20.4490   25.0590 C.3    45  CYS45       0.1677
    111  C        -27.2000   20.2640   26.3200 C.2    45  CYS45       0.2270
    112  O        -26.7290   19.7080   27.3150 O.2    45  CYS45      -0.2867
    113  CB       -25.8730   21.8870   24.9610 C.3    45  CYS45       0.0956
    114  SG       -24.6830   22.0690   23.6090 S.3    45  CYS45      -0.0801
    115  N        -27.4130   16.8800   27.2220 N.3    48  HIS48      -0.1226
    116  CA       -26.1260   16.4730   27.7500 C.3    48  HIS48       0.1752
    117  C        -26.0740   16.7930   29.2430 C.2    48  HIS48       0.2596
    118  O        -25.6290   15.9690   30.0490 O.2    48  HIS48      -0.2718
    119  CB       -24.9900   17.1870   27.0200 C.3    48  HIS48       0.0759
    120  CG       -23.6420   16.5950   27.2880 C.ar   48  HIS48       0.0818
    121  ND1      -23.2540   15.3770   26.7770 N.ar   48  HIS48      -0.2268
    122  CD2      -22.6030   17.0360   28.0340 C.ar   48  HIS48       0.1154
    123  CE1      -22.0340   15.0930   27.1940 C.ar   48  HIS48       0.1986
    124  NE2      -21.6150   16.0830   27.9590 N.ar   48  HIS48      -0.2212
    125  N        -26.5310   17.9830   29.6190 N.am   49  ASP49      -0.1974
    126  CA       -26.5200   18.3470   31.0290 C.3    49  ASP49       0.1709
    127  C        -27.3810   17.3670   31.8030 C.2    49  ASP49       0.2293
    128  O        -26.9630   16.8350   32.8270 O.2    49  ASP49      -0.2864
    129  CB       -27.0420   19.7640   31.2340 C.3    49  ASP49       0.1436
    130  CG       -26.1770   20.8010   30.5570 C.2    49  ASP49       0.3671
    131  OD1      -24.9930   20.5160   30.2810 O.co2  49  ASP49      -0.2456
    132  OD2      -26.6800   21.9110   30.3120 O.co2  49  ASP49      -0.2456
    133  N        -17.1640   15.5400   33.5950 N.3    69  TYR69      -0.1241
    134  CA       -16.1010   15.9410   32.6700 C.3    69  TYR69       0.1605
    135  C        -14.7280   15.4590   33.1290 C.2    69  TYR69       0.2264
    136  O        -13.8010   15.3480   32.3240 O.2    69  TYR69      -0.2867
    137  CB       -16.0540   17.4570   32.5430 C.3    69  TYR69       0.0534
    138  CG       -17.2230   18.0720   31.8130 C.ar   69  TYR69      -0.0201
    139  CD1      -17.4050   17.8660   30.4410 C.ar   69  TYR69      -0.0009
    140  CD2      -18.1210   18.8960   32.4850 C.ar   69  TYR69      -0.0009
    141  CE1      -18.4520   18.4770   29.7630 C.ar   69  TYR69       0.0417
    142  CE2      -19.1620   19.5040   31.8230 C.ar   69  TYR69       0.0417
    143  CZ       -19.3270   19.3000   30.4650 C.ar   69  TYR69       0.1957
    144  OH       -20.3540   19.9480   29.8130 O.3    69  TYR69      -0.2866
    145  N        -24.7510   16.6240   17.9210 N.3   106  PHE106     -0.1241
    146  CA       -24.1770   17.8670   17.4050 C.3   106  PHE106      0.1605
    147  C        -23.9920   17.8040   15.8910 C.2   106  PHE106      0.2264
    148  O        -24.2320   18.7830   15.1860 O.2   106  PHE106     -0.2867
    149  CB       -22.8050   18.1480   18.0340 C.3   106  PHE106      0.0534
    150  CG       -22.8570   18.5800   19.4750 C.ar  106  PHE106     -0.0203
    151  CD1      -24.0650   18.7000   20.1510 C.ar  106  PHE106     -0.0042
    152  CD2      -21.6820   18.8630   20.1590 C.ar  106  PHE106     -0.0042
    153  CE1      -24.0980   19.0910   21.4840 C.ar  106  PHE106     -0.0003
    154  CE2      -21.7070   19.2540   21.4880 C.ar  106  PHE106     -0.0003
    155  CZ       -22.9130   19.3680   22.1510 C.ar  106  PHE106     -0.0000
@<TRIPOS>BOND
     1   148   147    2
     2   147   146    1
     3    48    47    2
     4    78    76   ar
     5    78    77   ar
     6    47    46    1
     7   146   145    1
     8   146   149    1
     9    76    74   ar
    10    77    75   ar
    11   149   150    1
    12    59    53    1
    13    59    58    1
    14    51    49    1
    15    53    54    1
    16    46    49    1
    17    46    45    1
    18    74    73   ar
    19    75    73   ar
    20    58    57    1
    21    49    50    1
    22   150   151   ar
    23   150   152   ar
    24    54    57    1
    25    54    55    1
    26    73    72    1
    27    44    42    1
    28    68    69    1
    29    43    42    1
    30   151   153   ar
    31   152   154   ar
    32    37    36    2
    33    50    52    1
    34    55    56    2
    35    55    60   am
    36    42    41    2
    37    69    72    1
    38    69    70    1
    39    60    61    1
    40    36    35    1
    41   153   155   ar
    42   154   155   ar
    43    62    63    2
    44    62    61    1
    45    41    40    1
    46    39    40    1
    47    39    38    1
    48    61    64    1
    49    70    79   am
    50    70    71    2
    51    26    25    2
    52    35    38    1
    53    35    34    1
    54    79    80    1
    55    64    65    1
    56   104   114    1
    57   104   103    1
    58    82    81    2
    59    25    34   am
    60    25    24    1
    61   114   113    1
    62    21    22   ar
    63    21    19   ar
    64   109   110    1
    65    31    29   ar
    66    31    33   ar
    67    81    80    1
    68   103   100    1
    69    80    83    1
    70    65    67    1
    71    65    66    1
    72    12    11    2
    73    29    28   ar
    74    22    20   ar
    75    19    16   ar
    76    33    32   ar
    77    24    23    1
    78    24    27    1
    79    83    84    1
    80   113   110    1
    81   110   111    1
    82    28    27    1
    83    28    30   ar
    84    11    10    1
    85    32    30   ar
    86   100    99    1
    87   100   101    1
    88    20    18   ar
    89    16    18   ar
    90    16    14   ar
    91    99    89   am
    92    84    85    2
    93    84    86   am
    94   102   101    2
    95     4     3    2
    96    10    13    1
    97    10     9    1
    98   101   105   am
    99   111   112    2
   100    18    17   ar
   101    13    14    1
   102    14    15   ar
   103   121   123   ar
   104   121   120   ar
   105    87    88    1
   106   119   120    1
   107   119   116    1
   108    89    88    1
   109    89    90    2
   110   123   124   ar
   111   105   106    1
   112   115   116    1
   113     3     9   am
   114     3     2    1
   115   120   122   ar
   116    91    88    1
   117    91    92    1
   118    94    92   ar
   119    94    96   ar
   120    17    15   ar
   121   116   117    1
   122   124   122   ar
   123     7     6    1
   124   106   107    1
   125    92    93   ar
   126    96    97   ar
   127     2     5    1
   128     2     1    1
   129     6     5    1
   130     6     8    1
   131   117   125   am
   132   117   118    2
   133    93    95   ar
   134   107   108    2
   135    97    95   ar
   136    97    98    1
   137   125   126    1
   138   141   139   ar
   139   141   143   ar
   140   144   143    1
   141   131   130   ar
   142   132   130   ar
   143   139   138   ar
   144   143   142   ar
   145   130   129    1
   146   126   129    1
   147   126   127    1
   148   127   128    2
   149   138   140   ar
   150   138   137    1
   151   142   140   ar
   152   136   135    2
   153   137   134    1
   154   134   135    1
   155   134   133    1
