@<TRIPOS>MOLECULE
tmp/3fvkA00.pdb
 143 136 0 0 0
SMALL
GASTEIGER

@<TRIPOS>ATOM
      1  N         -6.7640    7.1980   25.5420 N.3    12  GLU12      -0.1245
      2  CA        -7.8430    7.7610   24.7470 C.3    12  GLU12       0.1567
      3  C         -8.7540    6.6220   24.3050 C.2    12  GLU12       0.2260
      4  O         -8.3660    5.8250   23.4690 O.2    12  GLU12      -0.2867
      5  CB        -7.2820    8.4510   23.4970 C.3    12  GLU12       0.0388
      6  CG        -8.3320    9.2970   22.7570 C.3    12  GLU12       0.1160
      7  CD        -8.7180   10.5540   23.5210 C.2    12  GLU12       0.3649
      8  OE1       -7.8440   11.4140   23.8110 O.co2  12  GLU12      -0.2457
      9  OE2       -9.9140   10.6870   23.8230 O.co2  12  GLU12      -0.2457
     10  N         -0.9480   15.5980   23.4760 N.3    60  TYR60      -0.1241
     11  CA        -0.6980   15.1410   22.1170 C.3    60  TYR60       0.1605
     12  C          0.4720   15.9090   21.5030 C.2    60  TYR60       0.2264
     13  O          1.4450   15.3010   21.0360 O.2    60  TYR60      -0.2867
     14  CB        -1.9590   15.2920   21.2740 C.3    60  TYR60       0.0534
     15  CG        -2.9770   14.2240   21.5460 C.ar   60  TYR60      -0.0201
     16  CD1       -3.0700   13.1040   20.7100 C.ar   60  TYR60      -0.0009
     17  CD2       -3.8420   14.3130   22.6540 C.ar   60  TYR60      -0.0009
     18  CE1       -3.9980   12.0960   20.9470 C.ar   60  TYR60       0.0417
     19  CE2       -4.7720   13.3040   22.9020 C.ar   60  TYR60       0.0417
     20  CZ        -4.8460   12.2020   22.0400 C.ar   60  TYR60       0.1957
     21  OH        -5.7630   11.1860   22.2460 O.3    60  TYR60      -0.2866
     22  N         -4.1970    7.9540   18.5210 N.3    87  PRO87      -0.2102
     23  CA        -4.9990    8.7370   17.5810 C.3    87  PRO87       0.1504
     24  C         -4.3470   10.1090   17.3660 C.2    87  PRO87       0.2576
     25  O         -4.8310   11.1310   17.8770 O.2    87  PRO87      -0.2718
     26  CB        -6.3770    8.8080   18.2700 C.3    87  PRO87       0.0282
     27  CG        -6.0790    8.6840   19.7180 C.3    87  PRO87       0.0208
     28  CD        -4.8740    7.7810   19.8210 C.3    87  PRO87       0.0893
     29  N         -3.2330   10.0900   16.6200 N.am   88  LEU88      -0.1966
     30  CA        -2.3590   11.2500   16.4440 C.3    88  LEU88       0.1728
     31  C         -2.6100   11.8450   15.0710 C.2    88  LEU88       0.2616
     32  O         -2.3660   11.2040   14.0470 O.2    88  LEU88      -0.2715
     33  CB        -0.8870   10.8300   16.5830 C.3    88  LEU88       0.0311
     34  CG         0.1310   11.9610   16.5440 C.3    88  LEU88       0.0022
     35  CD1        0.0770   12.8310   17.7820 C.3    88  LEU88       0.0001
     36  CD2        1.5360   11.3710   16.3790 C.3    88  LEU88       0.0001
     37  N         -3.1260   13.0680   15.0660 N.am   89  THR89      -0.1951
     38  CA        -3.5860   13.6970   13.8430 C.3    89  THR89       0.1897
     39  C         -2.4210   14.1840   12.9850 C.2    89  THR89       0.2313
     40  O         -1.5330   14.8920   13.4700 O.2    89  THR89      -0.2863
     41  CB        -4.5530   14.8390   14.2000 C.3    89  THR89       0.1794
     42  OG1       -5.6140   14.2810   14.9940 O.3    89  THR89      -0.2208
     43  CG2       -5.1490   15.5240   12.9410 C.3    89  THR89       0.0378
     44  N          2.8690   19.6400   12.2190 N.3    94  ARG94      -0.1245
     45  CA         3.5680   18.5040   12.7860 C.3    94  ARG94       0.1563
     46  C          4.4370   17.7990   11.7580 C.2    94  ARG94       0.2260
     47  O          5.5430   17.3610   12.0850 O.2    94  ARG94      -0.2867
     48  CB         2.5840   17.5260   13.4010 C.3    94  ARG94       0.0307
     49  CG         1.9300   18.0450   14.6410 C.3    94  ARG94       0.0489
     50  CD         0.8300   17.1080   15.0290 C.3    94  ARG94       0.2205
     51  NE         0.3040   17.4340   16.3440 N.pl3  94  ARG94      -0.0865
     52  CZ        -0.7320   16.8180   16.9000 C.cat  94  ARG94       0.5346
     53  NH1       -1.3620   15.8320   16.2580 N.pl3  94  ARG94       0.1354
     54  NH2       -1.1090   17.1510   18.1280 N.pl3  94  ARG94       0.1354
     55  N         -9.5780   20.2350   23.8290 N.3   136  VAL136     -0.1245
     56  CA        -8.4780   19.7460   24.6560 C.3   136  VAL136      0.1561
     57  C         -7.2280   20.6050   24.3980 C.2   136  VAL136      0.2260
     58  O         -6.8660   20.8760   23.2370 O.2   136  VAL136     -0.2867
     59  CB        -8.1880   18.2540   24.3700 C.3   136  VAL136      0.0252
     60  CG1       -6.9080   17.7780   25.0670 C.3   136  VAL136      0.0019
     61  CG2       -9.3920   17.3860   24.7920 C.3   136  VAL136      0.0019
     62  N         -3.7120   19.9370   21.6020 N.3   139  GLY139     -0.1210
     63  CA        -3.9860   18.9710   20.5380 C.3   139  GLY139      0.1956
     64  C         -4.2150   19.6770   19.2110 C.2   139  GLY139      0.2613
     65  O         -4.1620   20.9170   19.1110 O.2   139  GLY139     -0.2717
     66  N         -4.4930   18.8800   18.1820 N.am  140  SER140     -0.1938
     67  CA        -4.6860   19.4040   16.8410 C.3   140  SER140      0.2055
     68  C         -5.9850   20.1790   16.6710 C.2   140  SER140      0.2644
     69  O         -6.0660   21.0480   15.8120 O.2   140  SER140     -0.2714
     70  CB        -4.6100   18.2710   15.8170 C.3   140  SER140      0.2130
     71  OG        -5.5760   17.2700   16.0760 O.3   140  SER140     -0.2179
     72  N         -6.9980   19.8780   17.4720 N.am  141  THR141     -0.1936
     73  CA        -8.2490   20.6270   17.3870 C.3   141  THR141      0.2028
     74  C         -8.0230   22.0520   17.8900 C.2   141  THR141      0.2642
     75  O         -8.4250   23.0220   17.2350 O.2   141  THR141     -0.2714
     76  CB        -9.3520   19.8950   18.1580 C.3   141  THR141      0.1808
     77  OG1       -9.5630   18.6230   17.5480 O.3   141  THR141     -0.2208
     78  CG2      -10.6460   20.6690   18.1220 C.3   141  THR141      0.0379
     79  N         -7.3590   22.1920   19.0350 N.am  142  MET142     -0.1976
     80  CA        -6.9760   23.5300   19.5080 C.3   142  MET142      0.1605
     81  C         -6.1840   24.2550   18.4110 C.2   142  MET142      0.2287
     82  O         -6.4370   25.4330   18.1010 O.2   142  MET142     -0.2864
     83  CB        -6.1370   23.4290   20.7830 C.3   142  MET142      0.0413
     84  CG        -5.8060   24.7880   21.4140 C.3   142  MET142      0.0598
     85  SD        -4.3380   24.7690   22.4450 S.3   142  MET142     -0.1393
     86  CE        -3.0290   24.6400   21.2150 C.3   142  MET142      0.0692
     87  N         -9.7280   14.6130   27.1340 N.3   172  SER172     -0.1217
     88  CA       -11.0790   14.3600   26.6620 C.3   172  SER172      0.1889
     89  C        -12.0540   14.0140   27.7960 C.2   172  SER172      0.2288
     90  O        -13.2020   14.4360   27.7660 O.2   172  SER172     -0.2866
     91  CB       -11.0850   13.3020   25.5450 C.3   172  SER172      0.2089
     92  OG       -10.4410   12.1280   25.9600 O.3   172  SER172     -0.2183
     93  N        -17.8750   20.6530   23.5540 N.3   186  LEU186     -0.1231
     94  CA       -16.4960   20.2640   23.2990 C.3   186  LEU186      0.1693
     95  C        -16.2710   20.0590   21.8080 C.2   186  LEU186      0.2592
     96  O        -16.9830   19.2820   21.1700 O.2   186  LEU186     -0.2718
     97  CB       -16.1670   18.9750   24.0550 C.3   186  LEU186      0.0284
     98  CG       -14.7070   18.5100   23.9230 C.3   186  LEU186      0.0019
     99  CD1      -13.7230   19.4870   24.5780 C.3   186  LEU186      0.0001
    100  CD2      -14.5260   17.1170   24.5000 C.3   186  LEU186      0.0001
    101  N        -15.2700   20.7500   21.2660 N.am  187  LEU187     -0.1966
    102  CA       -14.8300   20.5210   19.8930 C.3   187  LEU187      0.1728
    103  C        -13.8970   19.3290   19.9130 C.2   187  LEU187      0.2616
    104  O        -12.9340   19.3030   20.6760 O.2   187  LEU187     -0.2715
    105  CB       -14.1070   21.7540   19.3370 C.3   187  LEU187      0.0311
    106  CG       -14.9800   22.8820   18.7540 C.3   187  LEU187      0.0022
    107  CD1      -15.6090   22.4980   17.4190 C.3   187  LEU187      0.0001
    108  CD2      -16.0600   23.3480   19.7320 C.3   187  LEU187      0.0001
    109  N        -14.2090   18.3130   19.1110 N.am  188  MET188     -0.1963
    110  CA       -13.4160   17.0860   19.1490 C.3   188  MET188      0.1736
    111  C        -13.6270   16.2740   17.8820 C.2   188  MET188      0.2616
    112  O        -14.4960   16.5910   17.0590 O.2   188  MET188     -0.2715
    113  CB       -13.7410   16.2760   20.3910 C.3   188  MET188      0.0427
    114  CG       -15.1810   15.8880   20.4680 C.3   188  MET188      0.0599
    115  SD       -15.6010   14.9140   21.9450 S.3   188  MET188     -0.1393
    116  CE       -15.5570   13.3000   21.3870 C.3   188  MET188      0.0692
    117  N        -12.8310   15.2240   17.7390 N.am  189  GLU189     -0.1977
    118  CA       -12.7820   14.4810   16.5010 C.3   189  GLU189      0.1602
    119  C        -13.9340   13.4800   16.3840 C.2   189  GLU189      0.2287
    120  O        -14.3810   12.8920   17.3690 O.2   189  GLU189     -0.2864
    121  CB       -11.3950   13.8600   16.3620 C.3   189  GLU189      0.0415
    122  CG       -10.3380   14.9770   16.1880 C.3   189  GLU189      0.1163
    123  CD        -8.8860   14.5000   16.2070 C.2   189  GLU189      0.3649
    124  OE1       -8.5930   13.4350   16.8030 O.co2 189  GLU189     -0.2457
    125  OE2       -8.0430   15.2370   15.6250 O.co2 189  GLU189     -0.2457
    126  N        -14.2480    9.8970   17.8320 N.3   192  SER192     -0.1217
    127  CA       -14.4630    9.8910   19.2830 C.3   192  SER192      0.1889
    128  C        -15.9090   10.2560   19.6300 C.2   192  SER192      0.2288
    129  O        -16.4880    9.6860   20.5590 O.2   192  SER192     -0.2866
    130  CB       -13.4920   10.8450   19.9740 C.3   192  SER192      0.2089
    131  OG       -12.1750   10.3190   19.8920 O.3   192  SER192     -0.2183
    132  N         -5.3350   10.0690   10.9510 N.3   215  TYR215     -0.1241
    133  CA        -4.4140    9.6660   12.0130 C.3   215  TYR215      0.1605
    134  C         -3.2770    8.8690   11.4070 C.2   215  TYR215      0.2264
    135  O         -3.4990    8.0410   10.5340 O.2   215  TYR215     -0.2867
    136  CB        -5.0940    8.7480   13.0280 C.3   215  TYR215      0.0534
    137  CG        -6.1730    9.3760   13.8780 C.ar  215  TYR215     -0.0201
    138  CD1       -6.0970   10.7090   14.2980 C.ar  215  TYR215     -0.0009
    139  CD2       -7.2450    8.6160   14.3180 C.ar  215  TYR215     -0.0009
    140  CE1       -7.0810   11.2700   15.1230 C.ar  215  TYR215      0.0417
    141  CE2       -8.2280    9.1580   15.1440 C.ar  215  TYR215      0.0417
    142  CZ        -8.1530   10.4800   15.5470 C.ar  215  TYR215      0.1957
    143  OH        -9.1530   11.0010   16.3570 O.3   215  TYR215     -0.2866
@<TRIPOS>BOND
     1   135   134    2
     2   132   133    1
     3   134   133    1
     4    46    47    2
     5    46    45    1
     6   133   136    1
     7    44    45    1
     8    45    48    1
     9    43    41    1
    10    39    40    2
    11    39    38    1
    12   136   137    1
    13    48    49    1
    14    38    41    1
    15    38    37    1
    16   137   138   ar
    17   137   139   ar
    18    32    31    2
    19    41    42    1
    20   138   140   ar
    21   139   141   ar
    22    49    50    1
    23    50    51    1
    24    37    31   am
    25    31    30    1
    26   140   142   ar
    27   141   142   ar
    28   142   143    1
    29   125   123   ar
    30    69    68    2
    31    70    71    1
    32    70    67    1
    33   122   123    1
    34   122   121    1
    35   123   124   ar
    36    53    52    1
    37    51    52    2
    38   121   118    1
    39    36    34    1
    40   119   118    1
    41   119   120    2
    42    30    33    1
    43    30    29    1
    44   118   117    1
    45    34    33    1
    46    34    35    1
    47    29    24   am
    48    68    67    1
    49    68    72   am
    50    67    66    1
    51    52    54    1
    52   112   111    2
    53    75    74    2
    54    24    23    1
    55    24    25    2
    56    73    72    1
    57    73    74    1
    58    73    76    1
    59   107   106    1
    60    77    76    1
    61    23    26    1
    62    23    22    1
    63   117   111   am
    64   126   127    1
    65   111   110    1
    66    74    79   am
    67    82    81    2
    68    78    76    1
    69    66    64   am
    70    26    27    1
    71    81    80    1
    72    22    28    1
    73   106   105    1
    74   106   108    1
    75    79    80    1
    76    65    64    2
    77   109   110    1
    78   109   103   am
    79   110   113    1
    80    64    63    1
    81   127   128    1
    82   127   130    1
    83   105   102    1
    84    80    83    1
    85   128   129    2
    86    27    28    1
    87   131   130    1
    88   102   103    1
    89   102   101    1
    90   103   104    2
    91   113   114    1
    92   114   115    1
    93    63    62    1
    94    16    18   ar
    95    16    15   ar
    96    83    84    1
    97    18    20   ar
    98    13    12    2
    99    96    95    2
   100    86    85    1
   101   101    95   am
   102    14    15    1
   103    14    11    1
   104   116   115    1
   105    84    85    1
   106    12    11    1
   107    15    17   ar
   108    95    94    1
   109    20    21    1
   110    20    19   ar
   111    11    10    1
   112    17    19   ar
   113     6     5    1
   114     6     7    1
   115    58    57    2
   116    94    93    1
   117    94    97    1
   118     4     3    2
   119     5     2    1
   120     7     8   ar
   121     7     9   ar
   122    55    56    1
   123    98    97    1
   124    98   100    1
   125    98    99    1
   126     3     2    1
   127    59    56    1
   128    59    61    1
   129    59    60    1
   130    57    56    1
   131     2     1    1
   132    91    92    1
   133    91    88    1
   134    88    87    1
   135    88    89    1
   136    90    89    2
