@<TRIPOS>MOLECULE
tmp/3fvlC00.pdb
 199 189 0 0 0
SMALL
GASTEIGER

@<TRIPOS>ATOM
      1  N         10.9280   -8.1320  -42.8680 N.3    69  HIS69      -0.1241
      2  CA        11.0740   -7.4560  -44.1620 C.3    69  HIS69       0.1621
      3  C         12.3020   -8.1420  -44.7490 C.2    69  HIS69       0.2264
      4  O         13.4320   -7.8500  -44.3630 O.2    69  HIS69      -0.2867
      5  CB        11.3130   -5.9560  -43.9590 C.3    69  HIS69       0.0745
      6  CG        10.0550   -5.1890  -43.6860 C.ar   69  HIS69       0.0817
      7  ND1       10.0130   -4.0840  -42.8660 N.ar   69  HIS69      -0.2268
      8  CD2        8.7930   -5.3640  -44.1430 C.ar   69  HIS69       0.1154
      9  CE1        8.7800   -3.6110  -42.8270 C.ar   69  HIS69       0.1986
     10  NE2        8.0190   -4.3710  -43.5950 N.ar   69  HIS69      -0.2212
     11  N         14.3970   -8.0950  -47.3380 N.3    71  ARG71      -0.1231
     12  CA        15.6120   -7.4540  -47.8370 C.3    71  ARG71       0.1694
     13  C         16.5410   -6.8870  -46.7680 C.2    71  ARG71       0.2591
     14  O         17.6870   -6.5240  -47.0580 O.2    71  ARG71      -0.2718
     15  CB        15.2490   -6.3420  -48.8310 C.3    71  ARG71       0.0321
     16  CG        14.4080   -5.2080  -48.2550 C.3    71  ARG71       0.0489
     17  CD        14.0900   -4.1720  -49.3320 C.3    71  ARG71       0.2205
     18  NE        13.3270   -3.0350  -48.8210 N.pl3  71  ARG71      -0.0865
     19  CZ        12.7500   -2.1220  -49.5960 C.cat  71  ARG71       0.5346
     20  NH1       12.8510   -2.2160  -50.9130 N.pl3  71  ARG71       0.1354
     21  NH2       12.0820   -1.1090  -49.0580 N.pl3  71  ARG71       0.1354
     22  N         16.0510   -6.8050  -45.5370 N.am   72  GLU72      -0.1979
     23  CA        16.8500   -6.2650  -44.4410 C.3    72  GLU72       0.1602
     24  C         17.7850   -7.3430  -43.8750 C.2    72  GLU72       0.2287
     25  O         17.7580   -7.6660  -42.6890 O.2    72  GLU72      -0.2864
     26  CB        15.8910   -5.6750  -43.3910 C.3    72  GLU72       0.0415
     27  CG        15.1530   -4.4570  -43.9770 C.3    72  GLU72       0.1163
     28  CD        13.9280   -3.9940  -43.1990 C.2    72  GLU72       0.3649
     29  OE1       13.8060   -4.3140  -42.0030 O.co2  72  GLU72      -0.2457
     30  OE2       13.0890   -3.2790  -43.7980 O.co2  72  GLU72      -0.2457
     31  N         10.6120   -6.9910  -50.1840 N.3   127  ARG127     -0.1245
     32  CA        10.3890   -6.8030  -48.7500 C.3   127  ARG127      0.1563
     33  C          9.1040   -7.4190  -48.1940 C.2   127  ARG127      0.2260
     34  O          9.0040   -7.6820  -46.9940 O.2   127  ARG127     -0.2867
     35  CB        10.3990   -5.3040  -48.4170 C.3   127  ARG127      0.0307
     36  CG         9.1240   -4.5580  -48.8050 C.3   127  ARG127      0.0489
     37  CD         9.3110   -3.0390  -48.7370 C.3   127  ARG127      0.2205
     38  NE         9.6150   -2.5540  -47.3900 N.pl3 127  ARG127     -0.0865
     39  CZ         8.6970   -2.2230  -46.4870 C.cat 127  ARG127      0.5346
     40  NH1        7.4100   -2.3160  -46.7820 N.pl3 127  ARG127      0.1354
     41  NH2        9.0670   -1.8000  -45.2840 N.pl3 127  ARG127      0.1354
     42  N          4.7290   -6.0270  -41.8080 N.3   144  ASN144     -0.1225
     43  CA         4.7270   -5.1460  -40.6390 C.3   144  ASN144      0.1785
     44  C          3.6780   -4.0410  -40.7110 C.2   144  ASN144      0.2597
     45  O          3.7980   -3.0120  -40.0490 O.2   144  ASN144     -0.2718
     46  CB         6.1160   -4.5390  -40.3870 C.3   144  ASN144      0.1169
     47  CG         6.2700   -4.0330  -38.9570 C.2   144  ASN144      0.2627
     48  OD1        5.7520   -4.6440  -38.0220 O.2   144  ASN144     -0.2716
     49  ND2        6.9920   -2.9290  -38.7780 N.am  144  ASN144     -0.0877
     50  N          2.6540   -4.2560  -41.5310 N.am  145  ARG145     -0.1979
     51  CA         1.5510   -3.3070  -41.6560 C.3   145  ARG145      0.1597
     52  C          0.2770   -4.1360  -41.6470 C.2   145  ARG145      0.2287
     53  O         -0.8210   -3.6290  -41.8860 O.2   145  ARG145     -0.2864
     54  CB         1.6430   -2.5210  -42.9670 C.3   145  ARG145      0.0334
     55  CG         2.7010   -1.4350  -42.9760 C.3   145  ARG145      0.0492
     56  CD         2.5300   -0.5210  -44.1820 C.3   145  ARG145      0.2205
     57  NE         2.9880    0.8370  -43.8970 N.pl3 145  ARG145     -0.0865
     58  CZ         4.2610    1.2160  -43.8470 C.cat 145  ARG145      0.5346
     59  NH1        5.2290    0.3400  -44.0720 N.pl3 145  ARG145      0.1354
     60  NH2        4.5640    2.4730  -43.5470 N.pl3 145  ARG145      0.1354
     61  N          3.8760   -1.1120  -49.5310 N.3   164  THR164     -0.1218
     62  CA         3.4110   -1.0030  -48.1580 C.3   164  THR164      0.1862
     63  C          1.9570   -1.4550  -48.0160 C.2   164  THR164      0.2287
     64  O          1.2340   -0.9990  -47.1270 O.2   164  THR164     -0.2866
     65  CB         3.5580    0.4410  -47.6480 C.3   164  THR164      0.1770
     66  OG1        2.8710    1.3370  -48.5310 O.3   164  THR164     -0.2211
     67  CG2        5.0310    0.8260  -47.5860 C.3   164  THR164      0.0375
     68  N         14.6610   -4.4380  -37.4580 N.3   196  HIS196     -0.1226
     69  CA        14.6010   -4.0310  -38.8650 C.3   196  HIS196      0.1752
     70  C         15.9020   -3.3710  -39.2860 C.2   196  HIS196      0.2597
     71  O         16.8140   -3.2140  -38.4700 O.2   196  HIS196     -0.2718
     72  CB        13.4580   -3.0390  -39.0550 C.3   196  HIS196      0.0759
     73  CG        12.1040   -3.6330  -38.8290 C.ar  196  HIS196      0.0818
     74  ND1       11.2590   -3.9650  -39.8630 N.ar  196  HIS196     -0.2268
     75  CD2       11.4720   -4.0070  -37.6920 C.ar  196  HIS196      0.1154
     76  CE1       10.1660   -4.5220  -39.3760 C.ar  196  HIS196      0.1986
     77  NE2       10.2700   -4.5620  -38.0600 N.ar  196  HIS196     -0.2212
     78  N         16.0010   -2.9520  -40.5440 N.am  197  SER197     -0.1938
     79  CA        17.2540   -2.3310  -40.9320 C.3   197  SER197      0.2055
     80  C         17.3020   -0.9520  -41.5440 C.2   197  SER197      0.2643
     81  O         16.4690   -0.5360  -42.3500 O.2   197  SER197     -0.2714
     82  CB        18.0720   -3.2660  -41.8210 C.3   197  SER197      0.2130
     83  OG        17.8200   -3.0360  -43.1850 O.3   197  SER197     -0.2179
     84  N         18.3620   -0.2790  -41.1150 N.am  198  TYR198     -0.1973
     85  CA        18.7840    1.0480  -41.4950 C.3   198  TYR198      0.1639
     86  C         17.8990    2.2610  -41.2420 C.2   198  TYR198      0.2290
     87  O         16.6990    2.3150  -41.5480 O.2   198  TYR198     -0.2864
     88  CB        19.3900    0.9790  -42.9130 C.3   198  TYR198      0.0560
     89  CG        18.7960    1.8050  -44.0200 C.ar  198  TYR198     -0.0198
     90  CD1       18.0960    1.1900  -45.0560 C.ar  198  TYR198     -0.0009
     91  CD2       19.0390    3.1740  -44.1070 C.ar  198  TYR198     -0.0009
     92  CE1       17.6610    1.9120  -46.1600 C.ar  198  TYR198      0.0417
     93  CE2       18.6070    3.9090  -45.2070 C.ar  198  TYR198      0.0417
     94  CZ        17.9240    3.2700  -46.2300 C.ar  198  TYR198      0.1957
     95  OH        17.5350    3.9880  -47.3360 O.3   198  TYR198     -0.2866
     96  N         12.7540    2.6840  -31.5370 N.3   203  LEU203     -0.1245
     97  CA        11.4430    3.2840  -31.3510 C.3   203  LEU203      0.1561
     98  C         10.5290    2.5250  -30.4080 C.2   203  LEU203      0.2260
     99  O         10.6410    1.3100  -30.2540 O.2   203  LEU203     -0.2867
    100  CB        10.7500    3.4010  -32.7120 C.3   203  LEU203      0.0270
    101  CG        11.6140    3.8850  -33.8830 C.3   203  LEU203      0.0019
    102  CD1       10.8800    3.6370  -35.1860 C.3   203  LEU203      0.0001
    103  CD2       11.9430    5.3530  -33.7210 C.3   203  LEU203      0.0001
    104  N          2.7630    4.0090  -33.9610 N.3   207  GLY207     -0.1225
    105  CA         3.1590    4.5990  -35.2110 C.3   207  GLY207      0.1811
    106  C          1.8330    4.9410  -35.8690 C.2   207  GLY207      0.2280
    107  O          1.7600    5.8450  -36.6850 O.2   207  GLY207     -0.2866
    108  N          7.3770    5.7910  -32.7340 N.3   243  ILE243     -0.1245
    109  CA         7.4180    5.6020  -34.1830 C.3   243  ILE243      0.1561
    110  C          6.8750    6.8050  -34.9510 C.2   243  ILE243      0.2260
    111  O          7.5440    7.3560  -35.8290 O.2   243  ILE243     -0.2867
    112  CB         6.6030    4.3620  -34.6140 C.3   243  ILE243      0.0252
    113  CG1        7.2200    3.0950  -34.0170 C.3   243  ILE243      0.0019
    114  CG2        6.5590    4.2680  -36.1380 C.3   243  ILE243      0.0019
    115  CD1        6.3910    1.8370  -34.2680 C.3   243  ILE243      0.0001
    116  N          9.6390    8.7430  -37.1540 N.3   247  ILE247     -0.1231
    117  CA         9.6730    8.4380  -38.5830 C.3   247  ILE247      0.1692
    118  C          8.4730    9.0340  -39.2970 C.2   247  ILE247      0.2592
    119  O          8.6040    9.9540  -40.1030 O.2   247  ILE247     -0.2718
    120  CB         9.6380    6.9200  -38.8590 C.3   247  ILE247      0.0266
    121  CG1       10.8000    6.2190  -38.1610 C.3   247  ILE247      0.0019
    122  CG2        9.7080    6.6740  -40.3600 C.3   247  ILE247      0.0020
    123  CD1       10.8280    4.7220  -38.4070 C.3   247  ILE247      0.0001
    124  N          7.3040    8.4750  -39.0060 N.am  248  TYR248     -0.1976
    125  CA         6.0520    8.9150  -39.6050 C.3   248  TYR248      0.1639
    126  C          4.9130    8.0250  -39.1310 C.2   248  TYR248      0.2290
    127  O          5.1410    6.9840  -38.5040 O.2   248  TYR248     -0.2864
    128  CB         6.1330    8.8500  -41.1360 C.3   248  TYR248      0.0560
    129  CG         6.6100    7.5190  -41.7010 C.ar  248  TYR248     -0.0198
    130  CD1        6.1890    6.3040  -41.1530 C.ar  248  TYR248     -0.0009
    131  CD2        7.4460    7.4770  -42.8170 C.ar  248  TYR248     -0.0009
    132  CE1        6.5840    5.0860  -41.7010 C.ar  248  TYR248      0.0417
    133  CE2        7.8450    6.2620  -43.3770 C.ar  248  TYR248      0.0417
    134  CZ         7.4100    5.0720  -42.8140 C.ar  248  TYR248      0.1957
    135  OH         7.7890    3.8720  -43.3720 O.3   248  TYR248     -0.2866
    136  N          2.4580    5.2270  -39.1830 N.3   250  ALA250     -0.1231
    137  CA         2.4720    3.9150  -39.8270 C.3   250  ALA250      0.1694
    138  C          1.5390    2.9940  -39.0450 C.2   250  ALA250      0.2592
    139  O          1.6800    2.8410  -37.8330 O.2   250  ALA250     -0.2718
    140  CB         3.8800    3.3490  -39.8310 C.3   250  ALA250      0.0304
    141  N          0.5960    2.3760  -39.7440 N.am  251  SER251     -0.1952
    142  CA        -0.3740    1.4960  -39.1040 C.3   251  SER251      0.1924
    143  C         -0.0780    0.0090  -39.2870 C.2   251  SER251      0.2314
    144  O          0.7060   -0.3810  -40.1500 O.2   251  SER251     -0.2863
    145  CB        -1.7720    1.8010  -39.6460 C.3   251  SER251      0.2116
    146  OG        -1.7950    1.6810  -41.0600 O.3   251  SER251     -0.2180
    147  N          1.5400   -2.0010  -37.2950 N.3   253  GLY253     -0.1210
    148  CA         2.8740   -2.4030  -36.8620 C.3   253  GLY253      0.1956
    149  C          2.9120   -3.4070  -35.7210 C.2   253  GLY253      0.2613
    150  O          2.0200   -3.4380  -34.8710 O.2   253  GLY253     -0.2717
    151  N          3.9700   -4.2150  -35.6810 N.am  254  SER254     -0.1938
    152  CA         4.1090   -5.2520  -34.6590 C.3   254  SER254      0.2055
    153  C          4.1450   -4.7780  -33.2070 C.2   254  SER254      0.2643
    154  O          3.4490   -5.3360  -32.3530 O.2   254  SER254     -0.2714
    155  CB         5.3560   -6.1060  -34.9430 C.3   254  SER254      0.2130
    156  OG         6.5420   -5.3290  -34.9080 O.3   254  SER254     -0.2179
    157  N          4.9420   -3.7580  -32.9080 N.am  255  ILE255     -0.1963
    158  CA         5.0230   -3.3100  -31.5210 C.3   255  ILE255      0.1727
    159  C          3.8010   -2.5550  -31.0410 C.2   255  ILE255      0.2616
    160  O          3.5930   -2.4260  -29.8350 O.2   255  ILE255     -0.2715
    161  CB         6.2870   -2.4670  -31.2470 C.3   255  ILE255      0.0290
    162  CG1        6.2650   -1.1770  -32.0610 C.3   255  ILE255      0.0022
    163  CG2        7.5220   -3.3000  -31.5520 C.3   255  ILE255      0.0023
    164  CD1        7.4110   -0.2530  -31.7240 C.3   255  ILE255      0.0001
    165  N          2.9900   -2.0510  -31.9680 N.am  256  ASP256     -0.1971
    166  CA         1.7720   -1.3600  -31.5620 C.3   256  ASP256      0.1709
    167  C          0.8110   -2.4480  -31.1030 C.2   256  ASP256      0.2293
    168  O          0.0930   -2.2860  -30.1230 O.2   256  ASP256     -0.2864
    169  CB         1.1620   -0.5820  -32.7230 C.3   256  ASP256      0.1436
    170  CG         1.9350    0.6760  -33.0410 C.2   256  ASP256      0.3671
    171  OD1        2.9340    0.9460  -32.3370 O.co2 256  ASP256     -0.2456
    172  OD2        1.5450    1.3910  -33.9830 O.co2 256  ASP256     -0.2456
    173  N         11.1540   -1.3540  -31.3790 N.3   268  THR268     -0.1218
    174  CA        11.5590   -1.7640  -32.7140 C.3   268  THR268      0.1862
    175  C         12.9080   -1.1270  -32.9950 C.2   268  THR268      0.2287
    176  O         13.1120    0.0660  -32.7460 O.2   268  THR268     -0.2866
    177  CB        10.5640   -1.3330  -33.8060 C.3   268  THR268      0.1770
    178  OG1        9.2960   -1.9490  -33.5670 O.3   268  THR268     -0.2211
    179  CG2       11.0610   -1.7790  -35.1770 C.3   268  THR268      0.0375
    180  N         15.9150   -0.2530  -35.8010 N.3   270  GLU270     -0.1245
    181  CA        16.1960   -0.0790  -37.2250 C.3   270  GLU270      0.1567
    182  C         17.7220   -0.0310  -37.2020 C.2   270  GLU270      0.2260
    183  O         18.3230    0.9500  -36.7560 O.2   270  GLU270     -0.2867
    184  CB        15.6160    1.2300  -37.7600 C.3   270  GLU270      0.0388
    185  CG        14.1080    1.1990  -38.0420 C.3   270  GLU270      0.1160
    186  CD        13.7270    0.3160  -39.2310 C.2   270  GLU270      0.3649
    187  OE1       14.6210   -0.0680  -40.0240 O.co2 270  GLU270     -0.2457
    188  OE2       12.5200    0.0160  -39.3760 O.co2 270  GLU270     -0.2457
    189  N         19.9890   -1.0530  -47.5670 N.3   279  PHE279     -0.1241
    190  CA        19.6940   -2.4640  -47.3510 C.3   279  PHE279      0.1605
    191  C         20.8650   -3.3580  -47.7440 C.2   279  PHE279      0.2264
    192  O         20.9890   -4.4800  -47.2550 O.2   279  PHE279     -0.2867
    193  CB        18.4400   -2.8590  -48.1390 C.3   279  PHE279      0.0534
    194  CG        17.2120   -2.0930  -47.7370 C.ar  279  PHE279     -0.0203
    195  CD1       16.7190   -2.1800  -46.4370 C.ar  279  PHE279     -0.0042
    196  CD2       16.5620   -1.2650  -48.6490 C.ar  279  PHE279     -0.0042
    197  CE1       15.5900   -1.4480  -46.0450 C.ar  279  PHE279     -0.0003
    198  CE2       15.4320   -0.5280  -48.2720 C.ar  279  PHE279     -0.0003
    199  CZ        14.9460   -0.6200  -46.9660 C.ar  279  PHE279     -0.0000
@<TRIPOS>BOND
     1    20    19    1
     2    31    32    1
     3    19    21    1
     4    19    18    2
     5    61    62    1
     6    17    18    1
     7    17    16    1
     8    15    16    1
     9    15    12    1
    10    36    37    1
    11    36    35    1
    12    32    35    1
    13    32    33    1
    14    37    38    1
    15   196   198   ar
    16   196   194   ar
    17    66    65    1
    18   198   199   ar
    19    33    34    2
    20    62    63    1
    21    62    65    1
    22   193   194    1
    23   193   190    1
    24    63    64    2
    25    12    11    1
    26    12    13    1
    27   191   190    1
    28   191   192    2
    29   194   195   ar
    30    65    67    1
    31   189   190    1
    32    38    39    2
    33    95    94    1
    34    14    13    2
    35   199   197   ar
    36    40    39    1
    37    13    22   am
    38    39    41    1
    39   195   197   ar
    40    94    92   ar
    41    94    93   ar
    42    92    90   ar
    43    22    23    1
    44    93    91   ar
    45    90    89   ar
    46     3     4    2
    47     3     2    1
    48    23    24    1
    49    23    26    1
    50    56    57    1
    51    56    55    1
    52     2     5    1
    53     2     1    1
    54     8     6   ar
    55     8    10   ar
    56    91    89   ar
    57    59    58    1
    58    89    88    1
    59    27    26    1
    60    27    28    1
    61     5     6    1
    62    57    58    2
    63    24    25    2
    64    58    60    1
    65    30    28   ar
    66     6     7   ar
    67    10     9   ar
    68   133   131   ar
    69   133   134   ar
    70   135   134    1
    71    28    29   ar
    72    83    82    1
    73    55    54    1
    74    54    51    1
    75    88    85    1
    76     7     9   ar
    77   131   129   ar
    78   134   132   ar
    79    81    80    2
    80    53    52    2
    81    82    79    1
    82    42    43    1
    83   132   130   ar
    84   129   130   ar
    85   129   128    1
    86    51    52    1
    87    51    50    1
    88    87    86    2
    89    80    84   am
    90    80    79    1
    91    50    44   am
    92    85    86    1
    93    85    84    1
    94   128   125    1
    95   146   145    1
    96    79    78    1
    97    44    43    1
    98    44    45    2
    99    43    46    1
   100    78    70   am
   101    46    47    1
   102   122   120    1
   103   144   143    2
   104   119   118    2
   105   187   186   ar
   106    74    76   ar
   107    74    73   ar
   108   140   137    1
   109   137   136    1
   110   137   138    1
   111   141   142    1
   112   141   138   am
   113   145   142    1
   114   125   126    1
   115   125   124    1
   116    76    77   ar
   117   188   186   ar
   118   118   124   am
   119   118   117    1
   120   143   142    1
   121    70    69    1
   122    70    71    2
   123   186   185    1
   124   126   127    2
   125    72    69    1
   126    72    73    1
   127   138   139    2
   128    47    49   am
   129    47    48    2
   130    69    68    1
   131   120   117    1
   132   120   121    1
   133    73    75   ar
   134   117   116    1
   135   123   121    1
   136    77    75   ar
   137   185   184    1
   138   184   181    1
   139   147   148    1
   140   181   182    1
   141   181   180    1
   142   182   183    2
   143   148   149    1
   144   107   106    2
   145   114   112    1
   146   106   105    1
   147   111   110    2
   148   149   151   am
   149   149   150    2
   150   151   152    1
   151   105   104    1
   152   102   101    1
   153   179   177    1
   154   110   109    1
   155   155   156    1
   156   155   152    1
   157   152   153    1
   158   112   109    1
   159   112   113    1
   160   115   113    1
   161   109   108    1
   162   172   170   ar
   163   101   103    1
   164   101   100    1
   165   177   178    1
   166   177   174    1
   167   153   157   am
   168   153   154    2
   169   170   169    1
   170   170   171   ar
   171   175   176    2
   172   175   174    1
   173   157   158    1
   174   169   166    1
   175   174   173    1
   176   100    97    1
   177   162   164    1
   178   162   161    1
   179   165   166    1
   180   165   159   am
   181   166   167    1
   182   163   161    1
   183    96    97    1
   184   158   161    1
   185   158   159    1
   186    97    98    1
   187   167   168    2
   188   159   160    2
   189    98    99    2
