@<TRIPOS>MOLECULE
tmp/3fvqB00.pdb
 85 81 0 0 0
SMALL
GASTEIGER

@<TRIPOS>ATOM
      1  N        -45.6460  -12.6560   18.3790 N.3   130  LEU130     -0.1245
      2  CA       -45.0760  -13.8520   19.0140 C.3   130  LEU130      0.1561
      3  C        -45.7390  -14.1810   20.3520 C.2   130  LEU130      0.2260
      4  O        -45.2590  -15.0040   21.1120 O.2   130  LEU130     -0.2867
      5  CB       -43.5390  -13.6950   19.1980 C.3   130  LEU130      0.0270
      6  CG       -42.7500  -13.2450   17.9650 C.3   130  LEU130      0.0019
      7  CD1      -41.2620  -12.8980   18.2590 C.3   130  LEU130      0.0001
      8  CD2      -42.8280  -14.3110   16.8480 C.3   130  LEU130      0.0001
      9  N        -46.2420  -17.7790   21.0770 N.3   133  ARG133     -0.1245
     10  CA       -45.0560  -18.6480   21.1200 C.3   133  ARG133      0.1563
     11  C        -44.6470  -19.1200   22.5010 C.2   133  ARG133      0.2260
     12  O        -44.8790  -18.4370   23.4890 O.2   133  ARG133     -0.2867
     13  CB       -43.8620  -17.9240   20.4870 C.3   133  ARG133      0.0307
     14  CG       -44.0480  -17.6090   18.9890 C.3   133  ARG133      0.0489
     15  CD       -43.8400  -18.8140   18.0810 C.3   133  ARG133      0.2205
     16  NE       -43.9570  -18.3380   16.7080 N.pl3 133  ARG133     -0.0865
     17  CZ       -42.9750  -17.7260   16.0680 C.cat 133  ARG133      0.5346
     18  NH1      -41.7690  -17.6390   16.6590 N.pl3 133  ARG133      0.1354
     19  NH2      -43.1740  -17.2330   14.8440 N.pl3 133  ARG133      0.1354
     20  N        -39.0890  -21.7230   23.7320 N.3   136  HIS136     -0.1226
     21  CA       -38.2290  -22.5660   22.9220 C.3   136  HIS136      0.1752
     22  C        -38.4820  -22.2910   21.4420 C.2   136  HIS136      0.2596
     23  O        -37.7000  -22.6720   20.5720 O.2   136  HIS136     -0.2718
     24  CB       -38.3720  -24.0630   23.2850 C.3   136  HIS136      0.0759
     25  CG       -39.6380  -24.7020   22.7810 C.ar  136  HIS136      0.0818
     26  ND1      -39.7410  -25.2690   21.5310 N.ar  136  HIS136     -0.2268
     27  CD2      -40.8470  -24.8640   23.3630 C.ar  136  HIS136      0.1154
     28  CE1      -40.9590  -25.7430   21.3570 C.ar  136  HIS136      0.1986
     29  NE2      -41.6570  -25.4990   22.4490 N.ar  136  HIS136     -0.2212
     30  N        -39.5230  -21.5170   21.1730 N.am  137  GLU137     -0.1965
     31  CA       -39.9120  -21.2070   19.8090 C.3   137  GLU137      0.1733
     32  C        -39.4300  -19.8020   19.3580 C.2   137  GLU137      0.2616
     33  O        -39.9260  -19.2640   18.3990 O.2   137  GLU137     -0.2715
     34  CB       -41.4510  -21.2620   19.7840 C.3   137  GLU137      0.0429
     35  CG       -41.9530  -22.6860   19.9370 C.3   137  GLU137      0.1163
     36  CD       -43.4630  -22.7910   19.8290 C.2   137  GLU137      0.3649
     37  OE1      -44.1610  -21.8280   20.1800 O.co2 137  GLU137     -0.2457
     38  OE2      -43.9420  -23.8480   19.3480 O.co2 137  GLU137     -0.2457
     39  N        -38.4580  -19.2360   20.0750 N.am  138  LEU138     -0.1963
     40  CA       -38.0240  -17.8660   19.8540 C.3   138  LEU138      0.1728
     41  C        -36.5110  -17.7900   19.5530 C.2   138  LEU138      0.2617
     42  O        -35.7420  -18.6100   20.0230 O.2   138  LEU138     -0.2715
     43  CB       -38.2990  -17.0540   21.1200 C.3   138  LEU138      0.0311
     44  CG       -39.7300  -16.9440   21.6020 C.3   138  LEU138      0.0022
     45  CD1      -39.7710  -16.1990   22.9320 C.3   138  LEU138      0.0001
     46  CD2      -40.6650  -16.2780   20.5350 C.3   138  LEU138      0.0001
     47  N        -36.1090  -16.7920   18.7760 N.am  139  SER139     -0.1936
     48  CA       -34.6900  -16.4590   18.6120 C.3   139  SER139      0.2055
     49  C        -34.1160  -15.8510   19.9000 C.2   139  SER139      0.2644
     50  O        -34.8720  -15.5380   20.8570 O.2   139  SER139     -0.2714
     51  CB       -34.5440  -15.4440   17.5060 C.3   139  SER139      0.2130
     52  OG       -34.8510  -14.1430   17.9930 O.3   139  SER139     -0.2179
     53  N        -32.7850  -15.7000   19.9500 N.am  140  GLY140     -0.1939
     54  CA       -32.1560  -15.1580   21.1940 C.3   140  GLY140      0.2014
     55  C        -32.6420  -13.7450   21.5330 C.2   140  GLY140      0.2639
     56  O        -32.8850  -13.4150   22.7050 O.2   140  GLY140     -0.2714
     57  N        -32.7710  -12.8820   20.5360 N.am  141  GLY141     -0.1939
     58  CA       -33.1500  -11.4830   20.8050 C.3   141  GLY141      0.2014
     59  C        -34.6480  -11.4050   21.0370 C.2   141  GLY141      0.2638
     60  O        -35.1200  -10.4910   21.7010 O.2   141  GLY141     -0.2714
     61  N        -35.4090  -12.3610   20.4750 N.am  142  GLN142     -0.1977
     62  CA       -36.8490  -12.3770   20.7500 C.3   142  GLN142      0.1601
     63  C        -37.0880  -12.8530   22.2060 C.2   142  GLN142      0.2287
     64  O        -37.8850  -12.2640   22.9490 O.2   142  GLN142     -0.2864
     65  CB       -37.5970  -13.3060   19.7310 C.3   142  GLN142      0.0394
     66  CG       -37.5870  -12.7880   18.3090 C.3   142  GLN142      0.0908
     67  CD       -38.0540  -13.8230   17.3040 C.2   142  GLN142      0.2608
     68  OE1      -38.1730  -14.9970   17.6250 O.2   142  GLN142     -0.2717
     69  NE2      -38.2530  -13.4060   16.0910 N.am  142  GLN142     -0.0878
     70  N        -36.2570   -9.9110   24.4400 N.3   145  ARG145     -0.1245
     71  CA       -37.3110   -8.8990   24.5160 C.3   145  ARG145      0.1563
     72  C        -38.5450   -9.3430   25.3090 C.2   145  ARG145      0.2260
     73  O        -39.1750   -8.5370   26.0090 O.2   145  ARG145     -0.2867
     74  CB       -37.6580   -8.4160   23.0990 C.3   145  ARG145      0.0307
     75  CG       -36.5470   -7.5270   22.5080 C.3   145  ARG145      0.0489
     76  CD       -36.8730   -7.2570   21.0170 C.3   145  ARG145      0.2205
     77  NE       -36.6710   -8.4100   20.1290 N.pl3 145  ARG145     -0.0865
     78  CZ       -37.2130   -8.5090   18.9050 C.cat 145  ARG145      0.5346
     79  NH1      -38.0680   -7.5770   18.4920 N.pl3 145  ARG145      0.1354
     80  NH2      -36.9280   -9.5400   18.0940 N.pl3 145  ARG145      0.1354
     81  N        -28.5050   -8.7100   23.1210 N.3   167  ALA167     -0.1245
     82  CA       -28.6530   -9.6420   21.9920 C.3   167  ALA167      0.1562
     83  C        -29.2750   -8.9480   20.7720 C.2   167  ALA167      0.2260
     84  O        -29.5670   -9.6020   19.7840 O.2   167  ALA167     -0.2867
     85  CB       -29.5550  -10.8810   22.4320 C.3   167  ALA167      0.0290
@<TRIPOS>BOND
     1    19    17    1
     2    17    18    1
     3    17    16    2
     4    69    67   am
     5    16    15    1
     6     8     6    1
     7    67    68    2
     8    67    66    1
     9    51    52    1
    10    51    48    1
    11     6     7    1
    12     6     5    1
    13    15    14    1
    14    80    78    1
    15    66    65    1
    16     1     2    1
    17    33    32    2
    18    79    78    1
    19    48    47    1
    20    48    49    1
    21    47    41   am
    22    78    77    2
    23    14    13    1
    24     2     5    1
    25     2     3    1
    26    38    36   ar
    27    32    31    1
    28    32    39   am
    29    41    40    1
    30    41    42    2
    31    65    62    1
    32    84    83    2
    33    34    31    1
    34    34    35    1
    35    31    30    1
    36    36    35    1
    37    36    37   ar
    38    40    39    1
    39    40    43    1
    40    49    53   am
    41    49    50    2
    42    53    54    1
    43    77    76    1
    44     3     4    2
    45    61    62    1
    46    61    59   am
    47    13    10    1
    48    46    44    1
    49    57    58    1
    50    57    55   am
    51    23    22    2
    52    62    63    1
    53    83    82    1
    54    58    59    1
    55    76    75    1
    56    59    60    2
    57     9    10    1
    58    10    11    1
    59    43    44    1
    60    30    22   am
    61    54    55    1
    62    28    26   ar
    63    28    29   ar
    64    22    21    1
    65    26    25   ar
    66    55    56    2
    67    44    45    1
    68    82    85    1
    69    82    81    1
    70    63    64    2
    71    29    27   ar
    72    11    12    2
    73    75    74    1
    74    25    24    1
    75    25    27   ar
    76    21    24    1
    77    21    20    1
    78    74    71    1
    79    70    71    1
    80    71    72    1
    81    72    73    2
