@<TRIPOS>MOLECULE
tmp/3fvqB01.pdb
 104 98 0 0 0
SMALL
GASTEIGER

@<TRIPOS>ATOM
      1  N        -16.7890  -14.9530   48.0860 N.3    13  PHE13      -0.1227
      2  CA       -17.2140  -16.3600   47.9590 C.3    13  PHE13       0.1736
      3  C        -16.0560  -17.1980   48.4480 C.2    13  PHE13       0.2595
      4  O        -15.0010  -17.1610   47.8520 O.2    13  PHE13      -0.2718
      5  CB       -17.5060  -16.7320   46.4950 C.3    13  PHE13       0.0547
      6  CG       -18.6860  -16.0230   45.9030 C.ar   13  PHE13      -0.0202
      7  CD1      -18.4960  -14.9090   45.0870 C.ar   13  PHE13      -0.0042
      8  CD2      -19.9760  -16.4590   46.1610 C.ar   13  PHE13      -0.0042
      9  CE1      -19.5730  -14.2430   44.5490 C.ar   13  PHE13      -0.0003
     10  CE2      -21.0660  -15.7990   45.6220 C.ar   13  PHE13      -0.0003
     11  CZ       -20.8750  -14.6850   44.8180 C.ar   13  PHE13      -0.0000
     12  N        -16.2100  -17.9370   49.5440 N.am   14  GLN14      -0.1979
     13  CA       -15.0410  -18.6370   50.1020 C.3    14  GLN14       0.1601
     14  C        -13.8360  -17.7140   50.3050 C.2    14  GLN14       0.2287
     15  O        -13.8720  -16.7350   51.0570 O.2    14  GLN14      -0.2864
     16  CB       -14.5770  -19.7690   49.1760 C.3    14  GLN14       0.0394
     17  CG       -15.6480  -20.3830   48.2630 C.3    14  GLN14       0.0908
     18  CD       -15.3850  -20.1230   46.7570 C.2    14  GLN14       0.2608
     19  OE1      -16.3020  -20.2290   45.9210 O.2    14  GLN14      -0.2717
     20  NE2      -14.1220  -19.7910   46.4160 N.am   14  GLN14      -0.0878
     21  N        -12.6720  -16.0210   47.9800 N.3    16  THR16      -0.1218
     22  CA       -12.7840  -15.1810   46.7900 C.3    16  THR16       0.1862
     23  C        -13.5430  -13.8680   47.0510 C.2    16  THR16       0.2287
     24  O        -14.7530  -13.8500   47.0510 O.2    16  THR16      -0.2866
     25  CB       -13.5340  -15.9400   45.6490 C.3    16  THR16       0.1770
     26  OG1      -12.8990  -17.2000   45.3940 O.3    16  THR16      -0.2211
     27  CG2      -13.5990  -15.1170   44.3270 C.3    16  THR16       0.0375
     28  N        -15.0960  -10.2670   46.1140 N.3    18  VAL18      -0.1245
     29  CA       -15.7630   -9.8810   44.8670 C.3    18  VAL18       0.1561
     30  C        -16.2910   -8.4510   44.8650 C.2    18  VAL18       0.2260
     31  O        -16.2250   -7.7800   43.8610 O.2    18  VAL18      -0.2867
     32  CB       -16.9340  -10.8250   44.5580 C.3    18  VAL18       0.0252
     33  CG1      -17.6840  -10.3500   43.3230 C.3    18  VAL18       0.0019
     34  CG2      -16.4170  -12.2590   44.3780 C.3    18  VAL18       0.0019
     35  N        -15.4230   -7.3030   32.4110 N.3    38  SER38      -0.1202
     36  CA       -15.9210   -8.6530   32.7320 C.3    38  SER38       0.2020
     37  C        -15.3550   -9.1560   34.0570 C.2    38  SER38       0.2619
     38  O        -14.1140   -9.1430   34.2750 O.2    38  SER38      -0.2717
     39  CB       -15.5540   -9.6660   31.6300 C.3    38  SER38       0.2103
     40  OG       -16.1700  -10.9710   31.8930 O.3    38  SER38      -0.2182
     41  N        -16.2350   -9.5840   34.9390 N.am   39  GLY39      -0.1942
     42  CA       -15.8130  -10.1210   36.2170 C.3    39  GLY39       0.2014
     43  C        -15.6620   -9.1060   37.3450 C.2    39  GLY39       0.2639
     44  O        -15.3290   -9.5070   38.4670 O.2    39  GLY39      -0.2714
     45  N        -15.9150   -7.8130   37.0870 N.am   40  CYS40      -0.1953
     46  CA       -15.7180   -6.7820   38.1020 C.3    40  CYS40       0.1843
     47  C        -16.7470   -6.7410   39.2780 C.2    40  CYS40       0.2626
     48  O        -16.5260   -6.0150   40.2650 O.2    40  CYS40      -0.2714
     49  CB       -15.5390   -5.3890   37.4200 C.3    40  CYS40       0.0997
     50  SG       -17.1430   -4.7310   36.7650 S.3    40  CYS40      -0.0797
     51  N        -17.8890   -7.4500   39.1580 N.am   41  GLY41      -0.1940
     52  CA       -18.8680   -7.5670   40.2590 C.3    41  GLY41       0.2014
     53  C        -20.2520   -6.9620   39.9950 C.2    41  GLY41       0.2639
     54  O        -21.0210   -6.8050   40.9110 O.2    41  GLY41      -0.2714
     55  N        -20.5660   -6.5820   38.7490 N.am   42  LYS42      -0.1963
     56  CA       -21.8420   -5.8760   38.4870 C.3    42  LYS42       0.1728
     57  C        -23.0460   -6.7080   38.8620 C.2    42  LYS42       0.2617
     58  O        -23.9550   -6.2220   39.5790 O.2    42  LYS42      -0.2715
     59  CB       -21.9260   -5.3640   37.0400 C.3    42  LYS42       0.0311
     60  CG       -20.6300   -4.5900   36.6360 C.3    42  LYS42       0.0038
     61  CD       -20.5860   -4.0760   35.1470 C.3    42  LYS42       0.0206
     62  CE       -20.6360   -5.2140   34.1170 C.3    42  LYS42       0.1093
     63  NZ       -19.2910   -5.9910   34.1000 N.3    42  LYS42      -0.1314
     64  N        -23.1170   -7.9150   38.3060 N.am   43  THR43      -0.1937
     65  CA       -24.2680   -8.8290   38.6070 C.3    43  THR43       0.2028
     66  C        -24.3070   -9.2070   40.0720 C.2    43  THR43       0.2642
     67  O        -25.3700   -9.3080   40.6540 O.2    43  THR43      -0.2714
     68  CB       -24.1940  -10.0560   37.7370 C.3    43  THR43       0.1808
     69  OG1      -24.3710   -9.6430   36.3850 O.3    43  THR43      -0.2208
     70  CG2      -25.2710  -11.2010   38.1190 C.3    43  THR43       0.0379
     71  N        -23.1560   -9.4380   40.6780 N.am   44  THR44      -0.1950
     72  CA       -23.1560   -9.7360   42.1150 C.3    44  THR44       0.1897
     73  C        -23.7820   -8.5620   42.9230 C.2    44  THR44       0.2313
     74  O        -24.5740   -8.8090   43.8210 O.2    44  THR44      -0.2863
     75  CB       -21.7400   -9.9560   42.6060 C.3    44  THR44       0.1794
     76  OG1      -21.1850  -11.0730   41.9010 O.3    44  THR44      -0.2208
     77  CG2      -21.7470  -10.3110   44.1550 C.3    44  THR44       0.0378
     78  N        -27.5120   -8.6530   42.5140 N.3    47  ARG47      -0.1245
     79  CA       -28.0700   -9.8050   43.2330 C.3    47  ARG47       0.1563
     80  C        -28.0780   -9.5430   44.7400 C.2    47  ARG47       0.2260
     81  O        -28.9770  -10.0160   45.4620 O.2    47  ARG47      -0.2867
     82  CB       -27.3020  -11.0920   42.8830 C.3    47  ARG47       0.0307
     83  CG       -27.4800  -11.5510   41.4310 C.3    47  ARG47       0.0489
     84  CD       -26.6020  -12.7970   41.1080 C.3    47  ARG47       0.2205
     85  NE       -27.1460  -14.0010   41.7330 N.pl3  47  ARG47      -0.0865
     86  CZ       -26.4900  -14.7850   42.5770 C.cat  47  ARG47       0.5346
     87  NH1      -25.2220  -14.5290   42.8820 N.pl3  47  ARG47       0.1354
     88  NH2      -27.0960  -15.8690   43.0830 N.pl3  47  ARG47       0.1354
     89  N        -29.4640  -11.1710   33.9770 N.3    86  GLN86      -0.1245
     90  CA       -28.6810  -11.2500   32.7300 C.3    86  GLN86       0.1566
     91  C        -29.0760  -12.4440   31.8570 C.2    86  GLN86       0.2260
     92  O        -29.2510  -12.3050   30.6420 O.2    86  GLN86      -0.2867
     93  CB       -27.1620  -11.2860   33.0440 C.3    86  GLN86       0.0367
     94  CG       -26.3010  -11.3160   31.7680 C.3    86  GLN86       0.0905
     95  CD       -24.8400  -10.9840   32.0390 C.2    86  GLN86       0.2608
     96  OE1      -24.3910  -11.0960   33.1520 O.2    86  GLN86      -0.2717
     97  NE2      -24.1200  -10.5920   31.0280 N.am   86  GLN86      -0.0878
     98  N        -27.2270   -2.1740   33.7070 N.3   194  VAL194     -0.1245
     99  CA       -25.8240   -2.6170   33.4800 C.3   194  VAL194      0.1561
    100  C        -25.6950   -2.6330   31.9770 C.2   194  VAL194      0.2260
    101  O        -26.6120   -3.1300   31.2840 O.2   194  VAL194     -0.2867
    102  CB       -25.5000   -4.0160   34.1020 C.3   194  VAL194      0.0252
    103  CG1      -23.9930   -4.5030   33.6940 C.3   194  VAL194      0.0019
    104  CG2      -25.6430   -3.9330   35.6250 C.3   194  VAL194      0.0019
@<TRIPOS>BOND
     1    92    91    2
     2    97    95   am
     3   101   100    2
     4    39    40    1
     5    39    36    1
     6    94    95    1
     7    94    93    1
     8    91    90    1
     9   100    99    1
    10    95    96    2
    11    35    36    1
    12    90    93    1
    13    90    89    1
    14    36    37    1
    15    99    98    1
    16    99   102    1
    17   103   102    1
    18    37    38    2
    19    37    41   am
    20    63    62    1
    21   102   104    1
    22    62    61    1
    23    41    42    1
    24    61    60    1
    25    42    43    1
    26    69    68    1
    27    60    59    1
    28    50    49    1
    29    59    56    1
    30    45    43   am
    31    45    46    1
    32    43    44    2
    33    49    46    1
    34    68    70    1
    35    68    65    1
    36    46    47    1
    37    64    65    1
    38    64    57   am
    39    56    55    1
    40    56    57    1
    41    65    66    1
    42    55    53   am
    43    57    58    2
    44    51    47   am
    45    51    52    1
    46    47    48    2
    47    53    52    1
    48    53    54    2
    49    66    67    2
    50    66    71   am
    51    71    72    1
    52    84    83    1
    53    84    85    1
    54    83    82    1
    55    85    86    2
    56    76    75    1
    57    72    75    1
    58    72    73    1
    59    78    79    1
    60    86    87    1
    61    86    88    1
    62    75    77    1
    63    82    79    1
    64    73    74    2
    65    79    80    1
    66    33    32    1
    67    31    30    2
    68    27    25    1
    69    34    32    1
    70     9    11   ar
    71     9     7   ar
    72    32    29    1
    73    80    81    2
    74    11    10   ar
    75    30    29    1
    76    29    28    1
    77     7     6   ar
    78    26    25    1
    79    10     8   ar
    80    25    22    1
    81     6     8   ar
    82     6     5    1
    83    19    18    2
    84    20    18   am
    85     5     2    1
    86    18    17    1
    87    22    23    1
    88    22    21    1
    89    23    24    2
    90     4     3    2
    91     2     1    1
    92     2     3    1
    93    17    16    1
    94     3    12   am
    95    16    13    1
    96    12    13    1
    97    13    14    1
    98    14    15    2
