@<TRIPOS>MOLECULE
tmp/3fvrG00.pdb
 112 107 0 0 0
SMALL
GASTEIGER

@<TRIPOS>ATOM
      1  N         16.6370   60.9530   -3.6720 N.3    86  ARG86      -0.1245
      2  CA        15.4170   60.8180   -2.8840 C.3    86  ARG86       0.1563
      3  C         14.8240   62.1740   -2.5250 C.2    86  ARG86       0.2260
      4  O         15.5340   63.0480   -2.0330 O.2    86  ARG86      -0.2867
      5  CB        15.7400   60.0380   -1.6070 C.3    86  ARG86       0.0307
      6  CG        14.6020   59.9300   -0.6090 C.3    86  ARG86       0.0489
      7  CD        15.1080   59.3590    0.7000 C.3    86  ARG86       0.2205
      8  NE        14.0390   59.1920    1.6800 N.pl3  86  ARG86      -0.0865
      9  CZ        13.3310   60.1910    2.1930 C.cat  86  ARG86       0.5346
     10  NH1       13.5760   61.4430    1.8230 N.pl3  86  ARG86       0.1354
     11  NH2       12.3730   59.9360    3.0700 N.pl3  86  ARG86       0.1354
     12  N         17.3230   57.5000    6.7650 N.3   100  ASP100     -0.1239
     13  CA        16.8080   56.7960    5.5950 C.3   100  ASP100      0.1674
     14  C         17.8210   56.8350    4.4680 C.2   100  ASP100      0.2266
     15  O         17.9510   55.8730    3.7120 O.2   100  ASP100     -0.2867
     16  CB        15.5020   57.4250    5.1150 C.3   100  ASP100      0.1410
     17  CG        14.3900   57.2580    6.1080 C.2   100  ASP100      0.3668
     18  OD1       13.9980   56.1000    6.3580 O.co2 100  ASP100     -0.2456
     19  OD2       13.9130   58.2790    6.6480 O.co2 100  ASP100     -0.2456
     20  N         20.4280   54.2320    5.1560 N.3   103  ASN103     -0.1225
     21  CA        19.9140   52.9010    4.8800 C.3   103  ASN103      0.1785
     22  C         19.8930   52.5970    3.3790 C.2   103  ASN103      0.2597
     23  O         20.1940   51.4800    2.9670 O.2   103  ASN103     -0.2718
     24  CB        18.5200   52.7170    5.4910 C.3   103  ASN103      0.1169
     25  CG        18.5660   52.4890    7.0050 C.2   103  ASN103      0.2627
     26  OD1       19.6320   52.2310    7.5850 O.2   103  ASN103     -0.2716
     27  ND2       17.4000   52.5660    7.6480 N.am  103  ASN103     -0.0877
     28  N         19.5450   53.5840    2.5600 N.am  104  TRP104     -0.1976
     29  CA        19.5410   53.3650    1.1190 C.3   104  TRP104      0.1640
     30  C         20.9540   53.0310    0.6480 C.2   104  TRP104      0.2290
     31  O         21.1430   52.1760   -0.2120 O.2   104  TRP104     -0.2864
     32  CB        19.0380   54.6000    0.3840 C.3   104  TRP104      0.0576
     33  CG        17.5710   54.6270    0.2150 C.ar  104  TRP104      0.0006
     34  CD1       16.7100   55.5820    0.6740 C.ar  104  TRP104      0.0946
     35  CD2       16.7760   53.6670   -0.4800 C.ar  104  TRP104      0.0152
     36  NE1       15.4250   55.2750    0.3070 N.ar  104  TRP104     -0.2442
     37  CE2       15.4340   54.1030   -0.4030 C.ar  104  TRP104      0.0810
     38  CE3       17.0620   52.4790   -1.1580 C.ar  104  TRP104      0.0012
     39  CZ2       14.3770   53.3910   -0.9810 C.ar  104  TRP104      0.0191
     40  CZ3       16.0080   51.7670   -1.7330 C.ar  104  TRP104      0.0001
     41  CH2       14.6820   52.2290   -1.6380 C.ar  104  TRP104      0.0015
     42  N         21.8640   49.6240    1.1580 N.3   107  HIS107     -0.1241
     43  CA        21.2140   48.7490    0.1890 C.3   107  HIS107      0.1621
     44  C         22.0310   48.7170   -1.1040 C.2   107  HIS107      0.2264
     45  O         21.7030   47.9730   -2.0310 O.2   107  HIS107     -0.2867
     46  CB        19.7860   49.2310   -0.0830 C.3   107  HIS107      0.0745
     47  CG        18.7680   48.6800    0.8720 C.ar  107  HIS107      0.0817
     48  ND1       18.0490   47.5300    0.6150 N.ar  107  HIS107     -0.2268
     49  CD2       18.3660   49.1070    2.0930 C.ar  107  HIS107      0.1154
     50  CE1       17.2480   47.2760    1.6340 C.ar  107  HIS107      0.1986
     51  NE2       17.4220   48.2170    2.5440 N.ar  107  HIS107     -0.2212
     52  N         13.3250   58.7120   -6.5750 N.3   177  ILE177     -0.1231
     53  CA        12.2360   58.1850   -5.7540 C.3   177  ILE177      0.1692
     54  C         11.7110   59.2070   -4.7580 C.2   177  ILE177      0.2593
     55  O         12.3610   60.2160   -4.4880 O.2   177  ILE177     -0.2718
     56  CB        12.6740   56.9320   -4.9500 C.3   177  ILE177      0.0266
     57  CG1       13.7090   57.3190   -3.8880 C.3   177  ILE177      0.0019
     58  CG2       13.2580   55.8850   -5.8890 C.3   177  ILE177      0.0020
     59  CD1       14.1000   56.1700   -2.9760 C.3   177  ILE177      0.0001
     60  N         10.5340   58.9250   -4.2050 N.am  178  GLY178     -0.1942
     61  CA         9.9260   59.8200   -3.2360 C.3   178  GLY178      0.2014
     62  C          8.4440   59.5600   -3.0530 C.2   178  GLY178      0.2639
     63  O          7.8070   58.9030   -3.8850 O.2   178  GLY178     -0.2714
     64  N          7.8920   60.0690   -1.9570 N.am  179  GLY179     -0.1954
     65  CA         6.4780   59.8870   -1.6910 C.3   179  GLY179      0.1869
     66  C          5.7520   61.2150   -1.6300 C.2   179  GLY179      0.2309
     67  O          6.2910   62.1900   -1.1120 O.2   179  GLY179     -0.2863
     68  N          5.5100   57.1740   -4.6460 N.3   202  ASP202     -0.1239
     69  CA         4.4570   56.7740   -3.7160 C.3   202  ASP202      0.1674
     70  C          3.3840   57.8640   -3.7780 C.2   202  ASP202      0.2266
     71  O          3.6950   59.0290   -3.5350 O.2   202  ASP202     -0.2867
     72  CB         4.9970   56.7280   -2.2750 C.3   202  ASP202      0.1410
     73  CG         6.2050   55.8090   -2.1040 C.2   202  ASP202      0.3668
     74  OD1        7.1900   55.9240   -2.8670 O.co2 202  ASP202     -0.2456
     75  OD2        6.1810   54.9730   -1.1790 O.co2 202  ASP202     -0.2456
     76  N          3.2430   54.9560    5.0860 N.3   299  PHE299     -0.1241
     77  CA         4.1930   53.9410    4.6710 C.3   299  PHE299      0.1605
     78  C          3.4040   52.6580    4.4160 C.2   299  PHE299      0.2264
     79  O          2.6600   52.2020    5.2840 O.2   299  PHE299     -0.2867
     80  CB         5.2130   53.6920    5.7790 C.3   299  PHE299      0.0534
     81  CG         6.0970   52.5020    5.5310 C.ar  299  PHE299     -0.0203
     82  CD1        7.0990   52.5480    4.5570 C.ar  299  PHE299     -0.0042
     83  CD2        5.9170   51.3270    6.2570 C.ar  299  PHE299     -0.0042
     84  CE1        7.9120   51.4340    4.3100 C.ar  299  PHE299     -0.0003
     85  CE2        6.7210   50.2100    6.0170 C.ar  299  PHE299     -0.0003
     86  CZ         7.7210   50.2640    5.0420 C.ar  299  PHE299     -0.0000
     87  N          6.8740   48.5510   -0.1620 N.3   304  GLN304     -0.1245
     88  CA         8.3080   48.6950    0.0470 C.3   304  GLN304      0.1566
     89  C          9.0210   47.5130   -0.6240 C.2   304  GLN304      0.2260
     90  O         10.0970   47.6730   -1.1910 O.2   304  GLN304     -0.2867
     91  CB         8.6240   48.7360    1.5440 C.3   304  GLN304      0.0367
     92  CG        10.0330   49.2100    1.8870 C.3   304  GLN304      0.0905
     93  CD        10.3340   50.6250    1.3870 C.2   304  GLN304      0.2608
     94  OE1        9.4860   51.5230    1.4530 O.2   304  GLN304     -0.2717
     95  NE2       11.5540   50.8300    0.9020 N.am  304  GLN304     -0.0878
     96  N          9.0220   48.1310   -4.3520 N.3   307  LYS307     -0.1231
     97  CA         9.9950   49.1770   -4.6300 C.3   307  LYS307      0.1693
     98  C         11.4170   48.6350   -4.6830 C.2   307  LYS307      0.2591
     99  O         12.1580   48.8940   -5.6340 O.2   307  LYS307     -0.2718
    100  CB         9.8960   50.2710   -3.5590 C.3   307  LYS307      0.0285
    101  CG        10.7530   51.5130   -3.8060 C.3   307  LYS307      0.0035
    102  CD        10.6610   52.4960   -2.6270 C.3   307  LYS307      0.0206
    103  CE         9.2090   52.8580   -2.3010 C.3   307  LYS307      0.1093
    104  NZ         9.0460   53.6410   -1.0390 N.3   307  LYS307     -0.1314
    105  N         11.7960   47.8820   -3.6590 N.am  308  LEU308     -0.1980
    106  CA        13.1310   47.3160   -3.5770 C.3   308  LEU308      0.1596
    107  C         13.4010   46.3630   -4.7310 C.2   308  LEU308      0.2287
    108  O         14.5020   46.3520   -5.2900 O.2   308  LEU308     -0.2864
    109  CB        13.3070   46.5850   -2.2450 C.3   308  LEU308      0.0297
    110  CG        13.2340   47.5000   -1.0180 C.3   308  LEU308      0.0022
    111  CD1       13.1810   46.6600    0.2680 C.3   308  LEU308      0.0001
    112  CD2       14.4320   48.4530   -1.0320 C.3   308  LEU308      0.0001
@<TRIPOS>BOND
     1    52    53    1
     2    58    56    1
     3    53    56    1
     4    53    54    1
     5    99    98    2
     6   108   107    2
     7    56    57    1
     8    54    55    2
     9    54    60   am
    10   107   106    1
    11    98    97    1
    12    98   105   am
    13    68    69    1
    14    97    96    1
    15    97   100    1
    16    60    61    1
    17    57    59    1
    18    63    62    2
    19   101   100    1
    20   101   102    1
    21    70    69    1
    22    70    71    2
    23    69    72    1
    24     1     2    1
    25   105   106    1
    26   106   109    1
    27    61    62    1
    28    62    64   am
    29     2     3    1
    30     2     5    1
    31    74    73   ar
    32   102   103    1
    33     3     4    2
    34   103   104    1
    35    72    73    1
    36   109   110    1
    37    73    75   ar
    38    45    44    2
    39    64    65    1
    40    40    41   ar
    41    40    38   ar
    42    65    66    1
    43    41    39   ar
    44    66    67    2
    45     5     6    1
    46    90    89    2
    47    38    35   ar
    48    44    43    1
    49   112   110    1
    50   110   111    1
    51    39    37   ar
    52    89    88    1
    53     6     7    1
    54    35    37   ar
    55    35    33   ar
    56    37    36   ar
    57    31    30    2
    58    87    88    1
    59    46    43    1
    60    46    47    1
    61    88    91    1
    62    43    42    1
    63    33    32    1
    64    33    34   ar
    65    36    34   ar
    66    32    29    1
    67    48    47   ar
    68    48    50   ar
    69    30    29    1
    70     7     8    1
    71    47    49   ar
    72    95    93   am
    73    29    28    1
    74    93    94    2
    75    93    92    1
    76    91    92    1
    77    50    51   ar
    78     8     9    2
    79    10     9    1
    80    49    51   ar
    81     9    11    1
    82    28    22   am
    83    23    22    2
    84    22    21    1
    85    15    14    2
    86    84    82   ar
    87    84    86   ar
    88    78    77    1
    89    78    79    2
    90    14    13    1
    91    82    81   ar
    92    77    76    1
    93    77    80    1
    94    21    20    1
    95    21    24    1
    96    86    85   ar
    97    16    13    1
    98    16    17    1
    99    24    25    1
   100    81    80    1
   101    81    83   ar
   102    13    12    1
   103    85    83   ar
   104    17    18   ar
   105    17    19   ar
   106    25    26    2
   107    25    27   am
