@<TRIPOS>MOLECULE
tmp/3fvrH00.pdb
 141 137 0 0 0
SMALL
GASTEIGER

@<TRIPOS>ATOM
      1  N        -30.5970   35.6130   26.8320 N.3    86  ARG86      -0.1245
      2  CA       -30.1870   36.9190   26.3660 C.3    86  ARG86       0.1563
      3  C        -28.6830   36.9750   26.1040 C.2    86  ARG86       0.2260
      4  O        -27.8790   36.5380   26.9290 O.2    86  ARG86      -0.2867
      5  CB       -30.6070   37.9590   27.4010 C.3    86  ARG86       0.0307
      6  CG       -30.3530   39.3870   26.9800 C.3    86  ARG86       0.0489
      7  CD       -29.3380   40.0100   27.8890 C.3    86  ARG86       0.2205
      8  NE       -29.0910   41.4040   27.5430 N.pl3  86  ARG86      -0.0865
      9  CZ       -28.3770   42.2290   28.2960 C.cat  86  ARG86       0.5346
     10  NH1      -27.8490   41.7880   29.4350 N.pl3  86  ARG86       0.1354
     11  NH2      -28.1840   43.4830   27.9080 N.pl3  86  ARG86       0.1354
     12  N        -23.8470   42.5570   23.9480 N.3    89  GLY89      -0.1210
     13  CA       -23.0830   43.1520   22.8680 C.3    89  GLY89       0.1956
     14  C        -21.5800   43.0170   22.9860 C.2    89  GLY89       0.2611
     15  O        -21.0460   42.7190   24.0550 O.2    89  GLY89      -0.2717
     16  N        -20.9020   43.2540   21.8680 N.am   90  TYR90      -0.1976
     17  CA       -19.4440   43.1620   21.7670 C.3    90  TYR90       0.1639
     18  C        -18.7200   44.0190   22.8160 C.2    90  TYR90       0.2290
     19  O        -18.8190   45.2510   22.7920 O.2    90  TYR90      -0.2864
     20  CB       -19.0150   43.6050   20.3560 C.3    90  TYR90       0.0560
     21  CG       -17.5660   43.3290   19.9970 C.ar   90  TYR90      -0.0198
     22  CD1      -17.1700   42.0720   19.5430 C.ar   90  TYR90      -0.0009
     23  CD2      -16.5920   44.3280   20.1130 C.ar   90  TYR90      -0.0009
     24  CE1      -15.8430   41.8130   19.2120 C.ar   90  TYR90       0.0417
     25  CE2      -15.2630   44.0820   19.7890 C.ar   90  TYR90       0.0417
     26  CZ       -14.8910   42.8210   19.3390 C.ar   90  TYR90       0.1957
     27  OH       -13.5670   42.5480   19.0340 O.3    90  TYR90      -0.2866
     28  N        -19.4520   44.7470   25.5630 N.3    92  ALA92      -0.1245
     29  CA       -20.4100   45.6210   26.2360 C.3    92  ALA92       0.1562
     30  C        -21.1130   45.0310   27.4550 C.2    92  ALA92       0.2260
     31  O        -22.2300   45.4240   27.7790 O.2    92  ALA92      -0.2867
     32  CB       -21.4490   46.1050   25.2340 C.3    92  ALA92       0.0290
     33  N        -31.2580   39.6770   21.8500 N.3   178  GLY178     -0.1210
     34  CA       -29.9790   40.3570   21.9610 C.3   178  GLY178      0.1956
     35  C        -29.8200   41.4750   20.9510 C.2   178  GLY178      0.2612
     36  O        -30.5590   41.5480   19.9630 O.2   178  GLY178     -0.2717
     37  N        -28.8580   42.3580   21.1970 N.am  179  GLY179     -0.1942
     38  CA       -28.6180   43.4480   20.2740 C.3   179  GLY179      0.2014
     39  C        -27.2200   43.3820   19.6930 C.2   179  GLY179      0.2639
     40  O        -26.2770   43.0290   20.4050 O.2   179  GLY179     -0.2714
     41  N        -27.0880   43.7140   18.4050 N.am  180  SER180     -0.1949
     42  CA       -25.7980   43.7100   17.7060 C.3   180  SER180      0.1924
     43  C        -25.1670   42.3190   17.7870 C.2   180  SER180      0.2314
     44  O        -25.6780   41.3790   17.1880 O.2   180  SER180     -0.2863
     45  CB       -24.8720   44.7550   18.3270 C.3   180  SER180      0.2116
     46  OG       -23.8490   45.1340   17.4240 O.3   180  SER180     -0.2180
     47  N        -31.8740   43.0830   17.7740 N.3   202  ASP202     -0.1225
     48  CA       -31.6770   44.5180   17.5570 C.3   202  ASP202      0.1805
     49  C        -30.4610   44.6660   16.6510 C.2   202  ASP202      0.2597
     50  O        -29.3830   44.1900   16.9990 O.2   202  ASP202     -0.2718
     51  CB       -31.3200   45.2460   18.8620 C.3   202  ASP202      0.1424
     52  CG       -32.3890   45.1500   19.9130 C.2   202  ASP202      0.3668
     53  OD1      -33.1510   46.1240   20.0630 O.co2 202  ASP202     -0.2456
     54  OD2      -32.4610   44.1080   20.5940 O.co2 202  ASP202     -0.2456
     55  N        -30.6260   45.3320   15.5110 N.am  203  TYR203     -0.1976
     56  CA       -29.5170   45.5690   14.5830 C.3   203  TYR203      0.1639
     57  C        -28.3840   44.5520   14.7000 C.2   203  TYR203      0.2290
     58  O        -27.2900   44.8660   15.1770 O.2   203  TYR203     -0.2864
     59  CB       -28.9710   46.9890   14.7970 C.3   203  TYR203      0.0560
     60  CG       -28.9700   47.4440   16.2440 C.ar  203  TYR203     -0.0198
     61  CD1      -28.0040   46.9830   17.1430 C.ar  203  TYR203     -0.0009
     62  CD2      -29.9540   48.3220   16.7210 C.ar  203  TYR203     -0.0009
     63  CE1      -28.0140   47.3850   18.4800 C.ar  203  TYR203      0.0417
     64  CE2      -29.9730   48.7280   18.0560 C.ar  203  TYR203      0.0417
     65  CZ       -28.9980   48.2590   18.9290 C.ar  203  TYR203      0.1957
     66  OH       -28.9830   48.6850   20.2390 O.3   203  TYR203     -0.2866
     67  N        -22.2140   51.5530   13.2740 N.3   270  ILE270     -0.1245
     68  CA       -21.5320   50.3610   13.7700 C.3   270  ILE270      0.1561
     69  C        -22.0130   49.1380   12.9910 C.2   270  ILE270      0.2260
     70  O        -21.2070   48.3740   12.4630 O.2   270  ILE270     -0.2867
     71  CB       -21.8080   50.1870   15.2660 C.3   270  ILE270      0.0252
     72  CG1      -21.2770   51.4140   16.0140 C.3   270  ILE270      0.0019
     73  CG2      -21.1670   48.9040   15.7760 C.3   270  ILE270      0.0019
     74  CD1      -21.4670   51.3750   17.5230 C.3   270  ILE270      0.0001
     75  N        -26.8880   53.0020   16.5760 N.3   297  HIS297     -0.1226
     76  CA       -26.5430   51.8070   17.3450 C.3   297  HIS297      0.1752
     77  C        -26.7600   52.1310   18.8210 C.2   297  HIS297      0.2596
     78  O        -25.8160   52.4410   19.5430 O.2   297  HIS297     -0.2718
     79  CB       -25.0760   51.4610   17.0980 C.3   297  HIS297      0.0759
     80  CG       -24.7520   50.0130   17.2890 C.ar  297  HIS297      0.0818
     81  ND1      -25.1730   49.0340   16.4140 N.ar  297  HIS297     -0.2268
     82  CD2      -24.0460   49.3800   18.2530 C.ar  297  HIS297      0.1154
     83  CE1      -24.7390   47.8600   16.8300 C.ar  297  HIS297      0.1986
     84  NE2      -24.0530   48.0420   17.9440 N.ar  297  HIS297     -0.2212
     85  N        -28.0050   52.0480   19.2740 N.am  298  GLU298     -0.1965
     86  CA       -28.3240   52.3960   20.6570 C.3   298  GLU298      0.1733
     87  C        -29.6820   51.8290   21.0550 C.2   298  GLU298      0.2616
     88  O        -30.3830   51.2160   20.2450 O.2   298  GLU298     -0.2715
     89  CB       -28.3800   53.9260   20.7860 C.3   298  GLU298      0.0429
     90  CG       -29.5550   54.5380   19.9900 C.3   298  GLU298      0.1163
     91  CD       -29.4100   56.0250   19.7040 C.2   298  GLU298      0.3649
     92  OE1      -29.2860   56.8340   20.6520 O.co2 298  GLU298     -0.2457
     93  OE2      -29.4230   56.3850   18.5140 O.co2 298  GLU298     -0.2457
     94  N        -30.0480   52.0590   22.3100 N.am  299  PHE299     -0.1960
     95  CA       -31.3350   51.6190   22.8260 C.3   299  PHE299      0.1771
     96  C        -32.4170   52.4440   22.1190 C.2   299  PHE299      0.2619
     97  O        -32.3690   53.6760   22.1240 O.2   299  PHE299     -0.2715
     98  CB       -31.4080   51.8600   24.3350 C.3   299  PHE299      0.0574
     99  CG       -32.7760   51.6510   24.9150 C.ar  299  PHE299     -0.0200
    100  CD1      -33.3180   50.3730   25.0180 C.ar  299  PHE299     -0.0042
    101  CD2      -33.5310   52.7360   25.3510 C.ar  299  PHE299     -0.0042
    102  CE1      -34.5910   50.1730   25.5470 C.ar  299  PHE299     -0.0003
    103  CE2      -34.8020   52.5520   25.8810 C.ar  299  PHE299     -0.0003
    104  CZ       -35.3360   51.2600   25.9800 C.ar  299  PHE299     -0.0000
    105  N        -33.3810   51.7610   21.5060 N.am  300  ILE300     -0.1977
    106  CA       -34.4770   52.4260   20.8000 C.3   300  ILE300      0.1596
    107  C        -35.7690   52.1940   21.5810 C.2   300  ILE300      0.2287
    108  O        -36.3750   51.1320   21.4940 O.2   300  ILE300     -0.2864
    109  CB       -34.6310   51.8670   19.3660 C.3   300  ILE300      0.0276
    110  CG1      -33.2850   51.9470   18.6360 C.3   300  ILE300      0.0022
    111  CG2      -35.6880   52.6700   18.5990 C.3   300  ILE300      0.0022
    112  CD1      -33.2870   51.2880   17.2860 C.3   300  ILE300      0.0001
    113  N        -38.8350   50.6170   20.0040 N.3   303  PHE303     -0.1227
    114  CA       -38.6580   49.2020   19.6990 C.3   303  PHE303      0.1736
    115  C        -38.8080   48.3270   20.9290 C.2   303  PHE303      0.2595
    116  O        -39.1700   47.1550   20.8240 O.2   303  PHE303     -0.2718
    117  CB       -37.2870   48.9450   19.0740 C.3   303  PHE303      0.0547
    118  CG       -37.0940   47.5280   18.6070 C.ar  303  PHE303     -0.0202
    119  CD1      -37.8520   47.0200   17.5510 C.ar  303  PHE303     -0.0042
    120  CD2      -36.1820   46.6850   19.2510 C.ar  303  PHE303     -0.0042
    121  CE1      -37.7150   45.6970   17.1430 C.ar  303  PHE303     -0.0003
    122  CE2      -36.0330   45.3590   18.8540 C.ar  303  PHE303     -0.0003
    123  CZ       -36.8030   44.8580   17.7970 C.ar  303  PHE303     -0.0000
    124  N        -38.5210   48.8870   22.0970 N.am  304  GLN304     -0.1979
    125  CA       -38.6290   48.1150   23.3220 C.3   304  GLN304      0.1601
    126  C        -40.0890   47.7050   23.5110 C.2   304  GLN304      0.2287
    127  O        -40.3760   46.6030   23.9750 O.2   304  GLN304     -0.2864
    128  CB       -38.1260   48.9340   24.5150 C.3   304  GLN304      0.0394
    129  CG       -37.8770   48.1200   25.7860 C.3   304  GLN304      0.0908
    130  CD       -36.7530   47.0900   25.6430 C.2   304  GLN304      0.2608
    131  OE1      -35.9000   47.1880   24.7510 O.2   304  GLN304     -0.2717
    132  NE2      -36.7390   46.1080   26.5400 N.am  304  GLN304     -0.0878
    133  N        -40.8130   44.8840   21.1110 N.3   307  LYS307     -0.1245
    134  CA       -40.1550   43.7030   21.6520 C.3   307  LYS307      0.1561
    135  C        -40.9860   43.0320   22.7420 C.2   307  LYS307      0.2260
    136  O        -41.2360   41.8230   22.6910 O.2   307  LYS307     -0.2867
    137  CB       -38.7960   44.1220   22.2130 C.3   307  LYS307      0.0271
    138  CG       -37.8830   43.0040   22.6620 C.3   307  LYS307      0.0035
    139  CD       -36.6130   43.5770   23.2850 C.3   307  LYS307      0.0206
    140  CE       -35.8860   44.4870   22.3020 C.3   307  LYS307      0.1093
    141  NZ       -34.6420   45.1000   22.8530 N.3   307  LYS307     -0.1314
@<TRIPOS>BOND
     1    70    69    2
     2    69    68    1
     3    67    68    1
     4    68    71    1
     5    56    57    1
     6    56    59    1
     7    56    55    1
     8    57    58    2
     9    59    60    1
    10    71    73    1
    11    71    72    1
    12    55    49   am
    13    72    74    1
    14    60    62   ar
    15    60    61   ar
    16    81    83   ar
    17    81    80   ar
    18    75    76    1
    19    49    50    2
    20    49    48    1
    21    62    64   ar
    22    83    84   ar
    23    79    80    1
    24    79    76    1
    25    61    63   ar
    26   121   119   ar
    27   121   123   ar
    28    44    43    2
    29   112   110    1
    30    80    82   ar
    31    76    77    1
    32    46    45    1
    33   119   118   ar
    34    48    47    1
    35    48    51    1
    36    42    43    1
    37    42    45    1
    38    42    41    1
    39   123   122   ar
    40    84    82   ar
    41    64    65   ar
    42    41    39   am
    43    63    65   ar
    44    93    91   ar
    45   111   109    1
    46   118   117    1
    47   118   120   ar
    48   110   109    1
    49    77    85   am
    50    77    78    2
    51   122   120   ar
    52    51    52    1
    53    65    66    1
    54    27    26    1
    55   117   114    1
    56    24    26   ar
    57    24    22   ar
    58    85    86    1
    59    26    25   ar
    60   109   106    1
    61    22    21   ar
    62    39    38    1
    63    39    40    2
    64   114   113    1
    65   114   115    1
    66    91    90    1
    67    91    92   ar
    68    25    23   ar
    69    52    53   ar
    70    52    54   ar
    71    36    35    2
    72    90    89    1
    73    21    23   ar
    74    21    20    1
    75    88    87    2
    76    38    37    1
    77    20    17    1
    78    86    89    1
    79    86    87    1
    80   106   105    1
    81   106   107    1
    82   116   115    2
    83   115   124   am
    84    35    37   am
    85    35    34    1
    86    87    94   am
    87   133   134    1
    88   108   107    2
    89   105    96   am
    90   134   137    1
    91   134   135    1
    92    17    16    1
    93    17    18    1
    94    33    34    1
    95    16    14   am
    96   124   125    1
    97    96    97    2
    98    96    95    1
    99   137   138    1
   100   140   141    1
   101   140   139    1
   102    94    95    1
   103   138   139    1
   104   136   135    2
   105    19    18    2
   106    95    98    1
   107    13    14    1
   108    13    12    1
   109    14    15    2
   110   125   126    1
   111   125   128    1
   112   126   127    2
   113    98    99    1
   114   128   129    1
   115   131   130    2
   116    99   100   ar
   117    99   101   ar
   118   100   102   ar
   119    32    29    1
   120   101   103   ar
   121   102   104   ar
   122    28    29    1
   123   130   129    1
   124   130   132   am
   125   103   104   ar
   126     3     2    1
   127     3     4    2
   128    29    30    1
   129     2     1    1
   130     2     5    1
   131     6     5    1
   132     6     7    1
   133    30    31    2
   134     8     7    1
   135     8     9    2
   136    11     9    1
   137     9    10    1
