@<TRIPOS>MOLECULE
tmp/3fvrH01.pdb
 92 90 0 0 0
SMALL
GASTEIGER

@<TRIPOS>ATOM
      1  N        -22.9130   23.4950    5.2920 N.3    24  SER24      -0.1217
      2  CA       -23.7470   22.6390    6.1230 C.3    24  SER24       0.1889
      3  C        -22.9590   21.5630    6.8640 C.2    24  SER24       0.2288
      4  O        -23.2090   21.3030    8.0470 O.2    24  SER24      -0.2866
      5  CB       -24.8200   21.9670    5.2710 C.3    24  SER24       0.2089
      6  OG       -25.4990   20.9740    6.0270 O.3    24  SER24      -0.2183
      7  N        -21.0700   22.8530   10.0670 N.3    27  TRP27      -0.1227
      8  CA       -21.8950   23.0220   11.2540 C.3    27  TRP27       0.1737
      9  C        -22.3520   21.6970   11.8300 C.2    27  TRP27       0.2595
     10  O        -22.4990   21.5620   13.0490 O.2    27  TRP27      -0.2718
     11  CB       -23.0930   23.9130   10.9440 C.3    27  TRP27       0.0564
     12  CG       -22.6740   25.3380   10.8910 C.ar   27  TRP27       0.0003
     13  CD1      -22.7200   26.1750    9.8140 C.ar   27  TRP27       0.0946
     14  CD2      -22.0680   26.0750   11.9510 C.ar   27  TRP27       0.0152
     15  NE1      -22.1740   27.3910   10.1380 N.ar   27  TRP27      -0.2442
     16  CE2      -21.7660   27.3600   11.4450 C.ar   27  TRP27       0.0810
     17  CE3      -21.7500   25.7760   13.2830 C.ar   27  TRP27       0.0012
     18  CZ2      -21.1610   28.3530   12.2240 C.ar   27  TRP27       0.0191
     19  CZ3      -21.1490   26.7620   14.0620 C.ar   27  TRP27       0.0001
     20  CH2      -20.8620   28.0400   13.5260 C.ar   27  TRP27       0.0015
     21  N        -22.5730   20.7160   10.9580 N.am   28  LYS28      -0.1980
     22  CA       -22.9820   19.3980   11.4170 C.3    28  LYS28       0.1596
     23  C        -21.8570   18.8270   12.2670 C.2    28  LYS28       0.2287
     24  O        -22.0850   18.3070   13.3580 O.2    28  LYS28      -0.2864
     25  CB       -23.2240   18.4400   10.2490 C.3    28  LYS28       0.0298
     26  CG       -23.7300   17.0640   10.7060 C.3    28  LYS28       0.0038
     27  CD       -23.4490   15.9340    9.7000 C.3    28  LYS28       0.0206
     28  CE       -21.9500   15.5840    9.6320 C.3    28  LYS28       0.1093
     29  NZ       -21.3600   15.2030   10.9600 N.3    28  LYS28      -0.1314
     30  N        -21.4560   20.7900   15.5970 N.3    31  LEU31      -0.1245
     31  CA       -22.4790   20.4350   16.5700 C.3    31  LEU31       0.1561
     32  C        -22.1870   19.0670   17.1810 C.2    31  LEU31       0.2260
     33  O        -22.5210   18.8150   18.3380 O.2    31  LEU31      -0.2867
     34  CB       -23.8620   20.4450   15.9180 C.3    31  LEU31       0.0270
     35  CG       -24.4630   21.8390   15.6880 C.3    31  LEU31       0.0019
     36  CD1      -25.7630   21.7260   14.8910 C.3    31  LEU31       0.0001
     37  CD2      -24.7080   22.5260   17.0350 C.3    31  LEU31       0.0001
     38  N        -30.8740   30.2720   16.7230 N.3   190  ALA190     -0.1231
     39  CA       -32.1510   29.8430   16.1720 C.3   190  ALA190      0.1694
     40  C        -31.9410   29.0840   14.8690 C.2   190  ALA190      0.2592
     41  O        -32.7430   28.2310   14.5020 O.2   190  ALA190     -0.2718
     42  CB       -33.0450   31.0530   15.9320 C.3   190  ALA190      0.0304
     43  N        -30.8590   29.4000   14.1690 N.am  191  ALA191     -0.1966
     44  CA       -30.5630   28.7380   12.9090 C.3   191  ALA191      0.1728
     45  C        -29.9420   27.3610   13.1270 C.2   191  ALA191      0.2616
     46  O        -30.1480   26.4560   12.3270 O.2   191  ALA191     -0.2715
     47  CB       -29.6350   29.6000   12.0830 C.3   191  ALA191      0.0334
     48  N        -29.1940   27.2020   14.2150 N.am  192  LEU192     -0.1963
     49  CA       -28.5280   25.9410   14.5050 C.3   192  LEU192      0.1728
     50  C        -29.3180   25.0230   15.4340 C.2   192  LEU192      0.2617
     51  O        -28.9850   23.8470   15.5850 O.2   192  LEU192     -0.2715
     52  CB       -27.1580   26.2280   15.1130 C.3   192  LEU192      0.0311
     53  CG       -26.2030   26.9880   14.1950 C.3   192  LEU192      0.0022
     54  CD1      -25.0260   27.5320   14.9840 C.3   192  LEU192      0.0001
     55  CD2      -25.7370   26.0620   13.1010 C.3   192  LEU192      0.0001
     56  N        -30.3740   25.5550   16.0380 N.am  193  SER193     -0.1936
     57  CA       -31.1880   24.7920   16.9750 C.3   193  SER193      0.2055
     58  C        -32.6730   25.0980   16.8080 C.2   193  SER193      0.2643
     59  O        -33.0540   26.2290   16.5210 O.2   193  SER193     -0.2714
     60  CB       -30.7460   25.1310   18.4020 C.3   193  SER193      0.2130
     61  OG       -31.6030   24.5550   19.3690 O.3   193  SER193     -0.2179
     62  N        -33.5120   24.0870   16.9900 N.am  194  ASP194     -0.1971
     63  CA       -34.9490   24.2730   16.8600 C.3   194  ASP194      0.1709
     64  C        -35.5800   24.4440   18.2390 C.2   194  ASP194      0.2293
     65  O        -36.8020   24.4560   18.3720 O.2   194  ASP194     -0.2864
     66  CB       -35.5720   23.0660   16.1410 C.3   194  ASP194      0.1436
     67  CG       -35.3430   21.7550   16.8890 C.2   194  ASP194      0.3671
     68  OD1      -35.7350   21.6680   18.0770 O.co2 194  ASP194     -0.2456
     69  OD2      -34.7730   20.8080   16.2950 O.co2 194  ASP194     -0.2456
     70  N        -31.7570   29.2270    7.5290 N.3   255  TRP255     -0.1241
     71  CA       -32.1090   28.1080    8.3960 C.3   255  TRP255      0.1605
     72  C        -33.1190   28.4540    9.4820 C.2   255  TRP255      0.2264
     73  O        -33.6630   27.5640   10.1320 O.2   255  TRP255     -0.2867
     74  CB       -30.8560   27.5400    9.0680 C.3   255  TRP255      0.0550
     75  CG       -29.9710   26.7560    8.1610 C.ar  255  TRP255      0.0003
     76  CD1      -30.2800   26.2860    6.9190 C.ar  255  TRP255      0.0946
     77  CD2      -28.6530   26.2760    8.4550 C.ar  255  TRP255      0.0152
     78  NE1      -29.2390   25.5370    6.4200 N.ar  255  TRP255     -0.2442
     79  CE2      -28.2270   25.5140    7.3420 C.ar  255  TRP255      0.0810
     80  CE3      -27.7920   26.4120    9.5510 C.ar  255  TRP255      0.0012
     81  CZ2      -26.9780   24.8910    7.2910 C.ar  255  TRP255      0.0191
     82  CZ3      -26.5470   25.7910    9.5030 C.ar  255  TRP255      0.0001
     83  CH2      -26.1530   25.0390    8.3770 C.ar  255  TRP255      0.0015
     84  N        -36.4440   29.1500   11.1890 N.3   257  LYS257     -0.1245
     85  CA       -37.8430   28.8070   10.9610 C.3   257  LYS257      0.1561
     86  C        -38.7780   29.4830   11.9690 C.2   257  LYS257      0.2260
     87  O        -39.9990   29.4590   11.8010 O.2   257  LYS257     -0.2867
     88  CB       -38.0280   27.2830   11.0600 C.3   257  LYS257      0.0271
     89  CG       -37.1890   26.4670   10.0760 C.3   257  LYS257      0.0035
     90  CD       -37.5850   26.7630    8.6330 C.3   257  LYS257      0.0206
     91  CE       -36.6650   26.0460    7.6590 C.3   257  LYS257      0.1093
     92  NZ       -36.9680   26.3690    6.2360 N.3   257  LYS257     -0.1314
@<TRIPOS>BOND
     1     5     6    1
     2     5     2    1
     3     1     2    1
     4     2     3    1
     5    92    91    1
     6    78    76   ar
     7    78    79   ar
     8     3     4    2
     9    76    75   ar
    10    81    79   ar
    11    81    83   ar
    12    79    77   ar
    13    70    71    1
    14    91    90    1
    15    75    77   ar
    16    75    74    1
    17    83    82   ar
    18    71    74    1
    19    71    72    1
    20    77    80   ar
    21    90    89    1
    22    72    73    2
    23    82    80   ar
    24    28    27    1
    25    28    29    1
    26    27    26    1
    27    13    15   ar
    28    13    12   ar
    29     7     8    1
    30    89    88    1
    31    15    16   ar
    32    25    26    1
    33    25    22    1
    34    12    11    1
    35    12    14   ar
    36    11     8    1
    37    21    22    1
    38    21     9   am
    39    85    88    1
    40    85    84    1
    41    85    86    1
    42     8     9    1
    43    22    23    1
    44    16    14   ar
    45    16    18   ar
    46    87    86    2
    47     9    10    2
    48    14    17   ar
    49    47    44    1
    50    18    20   ar
    51    23    24    2
    52    46    45    2
    53    44    45    1
    54    44    43    1
    55    55    53    1
    56    45    48   am
    57    17    19   ar
    58    20    19   ar
    59    43    40   am
    60    53    54    1
    61    53    52    1
    62    48    49    1
    63    41    40    2
    64    49    52    1
    65    49    50    1
    66    40    39    1
    67    36    35    1
    68    50    51    2
    69    50    56   am
    70    30    31    1
    71    35    34    1
    72    35    37    1
    73    34    31    1
    74    42    39    1
    75    56    57    1
    76    66    63    1
    77    66    67    1
    78    39    38    1
    79    69    67   ar
    80    59    58    2
    81    31    32    1
    82    58    57    1
    83    58    62   am
    84    63    62    1
    85    63    64    1
    86    67    68   ar
    87    57    60    1
    88    32    33    2
    89    64    65    2
    90    60    61    1
