@<TRIPOS>MOLECULE
tmp/3fvrC00.pdb
 114 110 0 0 0
SMALL
GASTEIGER

@<TRIPOS>ATOM
      1  N         44.0460  -55.4760   48.2430 N.3    87  ARG87      -0.1231
      2  CA        44.5510  -54.2240   48.7940 C.3    87  ARG87       0.1694
      3  C         43.7650  -53.0180   48.2830 C.2    87  ARG87       0.2592
      4  O         43.5330  -52.8790   47.0810 O.2    87  ARG87      -0.2718
      5  CB        46.0220  -54.0480   48.4250 C.3    87  ARG87       0.0321
      6  CG        46.6190  -52.7340   48.8940 C.3    87  ARG87       0.0489
      7  CD        47.4570  -52.1090   47.8030 C.3    87  ARG87       0.2205
      8  NE        48.0730  -50.8550   48.2290 N.pl3  87  ARG87      -0.0865
      9  CZ        48.7620  -50.0510   47.4240 C.cat  87  ARG87       0.5346
     10  NH1       48.9190  -50.3670   46.1430 N.pl3  87  ARG87       0.1354
     11  NH2       49.3040  -48.9370   47.8990 N.pl3  87  ARG87       0.1354
     12  N         43.3580  -52.1460   49.2020 N.am   88  PHE88      -0.1962
     13  CA        42.6060  -50.9410   48.8420 C.3    88  PHE88       0.1771
     14  C         43.4880  -49.7110   49.0620 C.2    88  PHE88       0.2619
     15  O         44.1480  -49.5790   50.0960 O.2    88  PHE88      -0.2715
     16  CB        41.3300  -50.8250   49.6820 C.3    88  PHE88       0.0574
     17  CG        40.4100  -52.0180   49.5690 C.ar   88  PHE88      -0.0200
     18  CD1       40.3830  -52.9920   50.5670 C.ar   88  PHE88      -0.0042
     19  CD2       39.5770  -52.1690   48.4620 C.ar   88  PHE88      -0.0042
     20  CE1       39.5410  -54.0920   50.4630 C.ar   88  PHE88      -0.0003
     21  CE2       38.7310  -53.2660   48.3450 C.ar   88  PHE88      -0.0003
     22  CZ        38.7070  -54.2320   49.3440 C.ar   88  PHE88      -0.0000
     23  N         43.4950  -48.8070   48.0910 N.am   89  HIS89      -0.1973
     24  CA        44.3330  -47.6240   48.1760 C.3    89  HIS89       0.1656
     25  C         43.6790  -46.4200   48.8480 C.2    89  HIS89       0.2291
     26  O         42.4600  -46.3800   49.0390 O.2    89  HIS89      -0.2864
     27  CB        44.8030  -47.2490   46.7810 C.3    89  HIS89       0.0771
     28  CG        43.7140  -46.7310   45.9000 C.ar   89  HIS89       0.0820
     29  ND1       43.2430  -45.4380   45.9840 N.ar   89  HIS89      -0.2267
     30  CD2       43.0110  -47.3250   44.9070 C.ar   89  HIS89       0.1154
     31  CE1       42.3010  -45.2540   45.0770 C.ar   89  HIS89       0.1986
     32  NE2       42.1400  -46.3840   44.4100 N.ar   89  HIS89      -0.2212
     33  N         53.6970  -51.7520   44.4410 N.3   101  ASP101     -0.1239
     34  CA        53.3690  -52.3360   45.7330 C.3   101  ASP101      0.1674
     35  C         52.6330  -53.6660   45.5600 C.2   101  ASP101      0.2266
     36  O         52.8160  -54.5920   46.3540 O.2   101  ASP101     -0.2867
     37  CB        52.5110  -51.3780   46.5630 C.3   101  ASP101      0.1410
     38  CG        53.3110  -50.2170   47.1330 C.2   101  ASP101      0.3668
     39  OD1       54.2870  -50.4740   47.8710 O.co2 101  ASP101     -0.2456
     40  OD2       52.9610  -49.0490   46.8490 O.co2 101  ASP101     -0.2456
     41  N         53.8530  -57.3620   47.0090 N.3   105  TRP105     -0.1241
     42  CA        53.0410  -58.2140   47.8670 C.3   105  TRP105      0.1605
     43  C         53.0720  -59.6400   47.3190 C.2   105  TRP105      0.2264
     44  O         53.1420  -60.6070   48.0750 O.2   105  TRP105     -0.2867
     45  CB        51.6020  -57.6990   47.9390 C.3   105  TRP105      0.0550
     46  CG        51.3930  -56.7010   49.0330 C.ar  105  TRP105      0.0003
     47  CD1       50.9540  -55.4140   48.8970 C.ar  105  TRP105      0.0946
     48  CD2       51.6260  -56.8980   50.4340 C.ar  105  TRP105      0.0152
     49  NE1       50.9010  -54.7980   50.1240 N.ar  105  TRP105     -0.2442
     50  CE2       51.3090  -55.6830   51.0850 C.ar  105  TRP105      0.0810
     51  CE3       52.0700  -57.9820   51.2040 C.ar  105  TRP105      0.0012
     52  CZ2       51.4220  -55.5210   52.4660 C.ar  105  TRP105      0.0191
     53  CZ3       52.1820  -57.8200   52.5820 C.ar  105  TRP105      0.0001
     54  CH2       51.8580  -56.5940   53.1970 C.ar  105  TRP105      0.0015
     55  N         43.4240  -55.6360   53.1480 N.3   178  ILE178     -0.1231
     56  CA        44.2860  -54.6430   53.7680 C.3   178  ILE178      0.1692
     57  C         44.1790  -53.2720   53.1040 C.2   178  ILE178      0.2593
     58  O         43.6830  -53.1410   51.9810 O.2   178  ILE178     -0.2718
     59  CB        45.7490  -55.0940   53.7010 C.3   178  ILE178      0.0266
     60  CG1       46.2090  -55.1370   52.2430 C.3   178  ILE178      0.0019
     61  CG2       45.8890  -56.4770   54.3070 C.3   178  ILE178      0.0020
     62  CD1       47.6790  -55.4440   52.0810 C.3   178  ILE178      0.0001
     63  N         44.6630  -52.2520   53.8050 N.am  179  GLY179     -0.1942
     64  CA        44.6290  -50.9040   53.2710 C.3   179  GLY179      0.2014
     65  C         44.8400  -49.8390   54.3320 C.2   179  GLY179      0.2639
     66  O         44.6980  -50.0990   55.5290 O.2   179  GLY179     -0.2714
     67  N         45.1890  -48.6360   53.8960 N.am  180  GLY180     -0.1954
     68  CA        45.3930  -47.5510   54.8360 C.3   180  GLY180      0.1869
     69  C         44.4100  -46.4140   54.6030 C.2   180  GLY180      0.2309
     70  O         44.0930  -46.0890   53.4610 O.2   180  GLY180     -0.2863
     71  N         43.5570  -56.0090   58.0580 N.3   201  VAL201     -0.1245
     72  CA        44.6180  -55.1250   58.5160 C.3   201  VAL201      0.1561
     73  C         44.2660  -53.7400   58.0060 C.2   201  VAL201      0.2260
     74  O         44.1840  -53.5230   56.7950 O.2   201  VAL201     -0.2867
     75  CB        45.9950  -55.4830   57.9450 C.3   201  VAL201      0.0252
     76  CG1       47.0440  -54.5300   58.5370 C.3   201  VAL201      0.0019
     77  CG2       46.3450  -56.9220   58.2750 C.3   201  VAL201      0.0019
     78  N         45.2850  -49.6150   58.4030 N.3   203  ASP203     -0.1239
     79  CA        46.1150  -48.5230   58.9180 C.3   203  ASP203      0.1674
     80  C         45.2110  -47.3090   59.0710 C.2   203  ASP203      0.2266
     81  O         44.5680  -46.8910   58.1040 O.2   203  ASP203     -0.2867
     82  CB        47.2320  -48.1370   57.9380 C.3   203  ASP203      0.1410
     83  CG        48.1210  -49.3020   57.5670 C.2   203  ASP203      0.3668
     84  OD1       47.5930  -50.3170   57.0790 O.co2 203  ASP203     -0.2456
     85  OD2       49.3530  -49.2040   57.7480 O.co2 203  ASP203     -0.2456
     86  N         53.3330  -43.6400   56.3080 N.3   300  PHE300     -0.1241
     87  CA        53.8700  -44.9880   56.4130 C.3   300  PHE300      0.1605
     88  C         54.5870  -45.1190   57.7590 C.2   300  PHE300      0.2264
     89  O         55.4700  -44.3170   58.0820 O.2   300  PHE300     -0.2867
     90  CB        54.8690  -45.2540   55.2970 C.3   300  PHE300      0.0534
     91  CG        55.5580  -46.5740   55.4210 C.ar  300  PHE300     -0.0203
     92  CD1       54.8290  -47.7640   55.3240 C.ar  300  PHE300     -0.0042
     93  CD2       56.9320  -46.6380   55.6570 C.ar  300  PHE300     -0.0042
     94  CE1       55.4570  -49.0060   55.4590 C.ar  300  PHE300     -0.0003
     95  CE2       57.5760  -47.8760   55.7970 C.ar  300  PHE300     -0.0003
     96  CZ        56.8340  -49.0650   55.6970 C.ar  300  PHE300     -0.0000
     97  N         54.7390  -51.8660   59.7750 N.3   305  GLN305     -0.1245
     98  CA        54.8840  -52.7250   58.6170 C.3   305  GLN305      0.1566
     99  C         55.3440  -54.1080   59.0820 C.2   305  GLN305      0.2260
    100  O         54.9090  -55.1240   58.5450 O.2   305  GLN305     -0.2867
    101  CB        55.8840  -52.1130   57.6370 C.3   305  GLN305      0.0367
    102  CG        55.8630  -52.7160   56.2370 C.3   305  GLN305      0.0905
    103  CD        54.4880  -52.6740   55.5910 C.2   305  GLN305      0.2608
    104  OE1       53.7390  -51.7020   55.7370 O.2   305  GLN305     -0.2717
    105  NE2       54.1570  -53.7260   54.8530 N.am  305  GLN305     -0.0878
    106  N         52.3970  -55.8850   60.6220 N.3   308  LYS308     -0.1245
    107  CA        51.5260  -56.2600   59.5090 C.3   308  LYS308      0.1561
    108  C         51.9690  -57.5670   58.8430 C.2   308  LYS308      0.2260
    109  O         51.1830  -58.5080   58.6860 O.2   308  LYS308     -0.2867
    110  CB        51.5440  -55.1330   58.4750 C.3   308  LYS308      0.0271
    111  CG        50.5140  -55.2370   57.3810 C.3   308  LYS308      0.0035
    112  CD        50.6830  -54.0950   56.3660 C.3   308  LYS308      0.0206
    113  CE        50.5910  -52.7160   57.0310 C.3   308  LYS308      0.1093
    114  NZ        50.8110  -51.6060   56.0620 N.3   308  LYS308     -0.1314
@<TRIPOS>BOND
     1    32    30   ar
     2    32    31   ar
     3    33    34    1
     4    30    28   ar
     5    31    29   ar
     6    35    34    1
     7    35    36    2
     8    34    37    1
     9    28    29   ar
    10    28    27    1
    11    10     9    1
    12    37    38    1
    13    27    24    1
    14    40    38   ar
    15    41    42    1
    16     4     3    2
    17    38    39   ar
    18    43    42    1
    19    43    44    2
    20     9    11    1
    21     9     8    2
    22     7     8    1
    23     7     6    1
    24    42    45    1
    25    45    46    1
    26    23    24    1
    27    23    14   am
    28    24    25    1
    29     1     2    1
    30     3     2    1
    31     3    12   am
    32    21    19   ar
    33    21    22   ar
    34     5     2    1
    35     5     6    1
    36    19    17   ar
    37    13    14    1
    38    13    12    1
    39    13    16    1
    40    25    26    2
    41    47    46   ar
    42    47    49   ar
    43    46    48   ar
    44    14    15    2
    45    22    20   ar
    46    17    16    1
    47    17    18   ar
    48    49    50   ar
    49    48    50   ar
    50    48    51   ar
    51    20    18   ar
    52    50    52   ar
    53    51    53   ar
    54    58    57    2
    55    62    60    1
    56    60    59    1
    57    52    54   ar
    58    53    54   ar
    59    57    56    1
    60    57    63   am
    61    55    56    1
    62    64    63    1
    63    64    65    1
    64    70    69    2
    65    59    56    1
    66    59    61    1
    67    67    65   am
    68    67    68    1
    69    65    66    2
    70    69    68    1
    71   105   103   am
    72    90    91    1
    73    90    87    1
    74    92    91   ar
    75    92    94   ar
    76    91    93   ar
    77    94    96   ar
    78   103   104    2
    79   103   102    1
    80    93    95   ar
    81    96    95   ar
    82   114   113    1
    83   102   101    1
    84    86    87    1
    85   112   113    1
    86   112   111    1
    87    87    88    1
    88    74    73    2
    89    84    83   ar
    90   111   110    1
    91    83    85   ar
    92    83    82    1
    93   101    98    1
    94    88    89    2
    95    82    79    1
    96    75    77    1
    97    75    72    1
    98    75    76    1
    99    73    72    1
   100    71    72    1
   101    81    80    2
   102    78    79    1
   103   110   107    1
   104   100    99    2
   105    98    99    1
   106    98    97    1
   107   109   108    2
   108   108   107    1
   109    79    80    1
   110   107   106    1
