@<TRIPOS>MOLECULE
tmp/3fvuA00.pdb
 111 109 0 0 0
SMALL
GASTEIGER

@<TRIPOS>ATOM
      1  N         17.9960   10.2470    0.1390 N.3    15  TRP15      -0.1241
      2  CA        18.4360    9.0350   -0.5340 C.3    15  TRP15       0.1605
      3  C         17.3200    8.3650   -1.3050 C.2    15  TRP15       0.2264
      4  O         17.5490    7.7620   -2.3490 O.2    15  TRP15      -0.2867
      5  CB        18.9910    8.0230    0.4780 C.3    15  TRP15       0.0550
      6  CG        20.2410    8.4430    1.1870 C.ar   15  TRP15       0.0003
      7  CD1       20.3410    9.3370    2.2090 C.ar   15  TRP15       0.0946
      8  CD2       21.5670    7.9530    0.9610 C.ar   15  TRP15       0.0152
      9  NE1       21.6440    9.4360    2.6260 N.ar   15  TRP15      -0.2442
     10  CE2       22.4180    8.6010    1.8690 C.ar   15  TRP15       0.0810
     11  CE3       22.1260    7.0380    0.0700 C.ar   15  TRP15       0.0012
     12  CZ2       23.7790    8.3700    1.9020 C.ar   15  TRP15       0.0191
     13  CZ3       23.4760    6.8220    0.1070 C.ar   15  TRP15       0.0001
     14  CH2       24.2850    7.4800    1.0100 C.ar   15  TRP15       0.0015
     15  N         26.7420    1.8210   -0.4260 N.3    33  GLY33      -0.1210
     16  CA        27.9530    1.9790    0.3760 C.3    33  GLY33       0.1956
     17  C         28.2340    0.7590    1.2230 C.2    33  GLY33       0.2611
     18  O         28.3890    0.8440    2.4570 O.2    33  GLY33      -0.2717
     19  N         28.2590   -0.3940    0.5620 N.am   34  PHE34      -0.1976
     20  CA        28.5390   -1.6760    1.1950 C.3    34  PHE34       0.1639
     21  C         29.0070   -2.6780    0.1530 C.2    34  PHE34       0.2290
     22  O         28.7250   -2.5090   -1.0410 O.2    34  PHE34      -0.2864
     23  CB        27.3310   -2.2250    1.9810 C.3    34  PHE34       0.0560
     24  CG        26.0420   -2.3000    1.1970 C.ar   34  PHE34      -0.0200
     25  CD1       25.6880   -3.4640    0.5180 C.ar   34  PHE34      -0.0042
     26  CD2       25.1760   -1.2180    1.1640 C.ar   34  PHE34      -0.0042
     27  CE1       24.4780   -3.5250   -0.1800 C.ar   34  PHE34      -0.0003
     28  CE2       23.9840   -1.2700    0.4860 C.ar   34  PHE34      -0.0003
     29  CZ        23.6260   -2.4140   -0.1880 C.ar   34  PHE34      -0.0000
     30  N         25.7740    3.7000   13.5990 N.3    98  TYR98      -0.1241
     31  CA        24.6470    4.6120   13.6010 C.3    98  TYR98       0.1605
     32  C         24.0510    4.7440   15.0150 C.2    98  TYR98       0.2264
     33  O         23.8360    5.8560   15.4860 O.2    98  TYR98      -0.2867
     34  CB        23.5960    4.1260   12.6060 C.3    98  TYR98       0.0534
     35  CG        22.7320    5.1950   12.0090 C.ar   98  TYR98      -0.0201
     36  CD1       23.1430    5.9290   10.9280 C.ar   98  TYR98      -0.0009
     37  CD2       21.4610    5.4430   12.5350 C.ar   98  TYR98      -0.0009
     38  CE1       22.3300    6.8770   10.3570 C.ar   98  TYR98       0.0417
     39  CE2       20.6400    6.4120   12.0030 C.ar   98  TYR98       0.0417
     40  CZ        21.0710    7.1350   10.9120 C.ar   98  TYR98       0.1957
     41  OH        20.2600    8.1020   10.3650 O.3    98  TYR98      -0.2866
     42  N         28.6350   12.9320    6.6580 N.3   122  PHE122     -0.1227
     43  CA        27.7060   11.8020    6.7160 C.3   122  PHE122      0.1736
     44  C         26.3640   12.3480    7.1970 C.2   122  PHE122      0.2595
     45  O         26.3030   13.0160    8.2350 O.2   122  PHE122     -0.2718
     46  CB        28.2730   10.7850    7.6870 C.3   122  PHE122      0.0547
     47  CG        27.5100    9.4880    7.7530 C.ar  122  PHE122     -0.0202
     48  CD1       27.4470    8.6450    6.6580 C.ar  122  PHE122     -0.0042
     49  CD2       26.9000    9.0970    8.9350 C.ar  122  PHE122     -0.0042
     50  CE1       26.7690    7.4390    6.7280 C.ar  122  PHE122     -0.0003
     51  CE2       26.2150    7.8960    9.0100 C.ar  122  PHE122     -0.0003
     52  CZ        26.1590    7.0640    7.9040 C.ar  122  PHE122     -0.0000
     53  N         25.3050   12.1430    6.4140 N.am  123  ASP123     -0.1974
     54  CA        24.1820   13.0790    6.4660 C.3   123  ASP123      0.1709
     55  C         23.4250   13.0890    7.8000 C.2   123  ASP123      0.2293
     56  O         22.8300   14.1150    8.1520 O.2   123  ASP123     -0.2864
     57  CB        23.2310   12.8860    5.2850 C.3   123  ASP123      0.1436
     58  CG        22.6750   11.4860    5.1970 C.2   123  ASP123      0.3671
     59  OD1       23.4560   10.5380    4.9780 O.co2 123  ASP123     -0.2456
     60  OD2       21.4390   11.3400    5.3530 O.co2 123  ASP123     -0.2456
     61  N         33.5020    9.9970    4.9860 N.3   182  ASN182     -0.1240
     62  CA        32.4770    9.6720    4.0040 C.3   182  ASN182      0.1653
     63  C         31.6890   10.9860    3.7870 C.2   182  ASN182      0.2266
     64  O         31.1730   11.5530    4.7650 O.2   182  ASN182     -0.2867
     65  CB        31.5950    8.5610    4.5950 C.3   182  ASN182      0.1155
     66  CG        30.3310    8.2730    3.7650 C.2   182  ASN182      0.2627
     67  OD1       30.1170    8.8230    2.6700 O.2   182  ASN182     -0.2716
     68  ND2       29.5070    7.3680    4.2870 N.am  182  ASN182     -0.0877
     69  N         35.6870    3.8770    9.2280 N.3   213  TYR213     -0.1241
     70  CA        36.5840    3.4920    8.1050 C.3   213  TYR213      0.1605
     71  C         38.0730    3.3810    8.4460 C.2   213  TYR213      0.2264
     72  O         38.9080    3.3750    7.5400 O.2   213  TYR213     -0.2867
     73  CB        36.4000    4.4130    6.8890 C.3   213  TYR213      0.0534
     74  CG        35.0100    4.2870    6.3010 C.ar  213  TYR213     -0.0201
     75  CD1       34.5980    3.1080    5.6810 C.ar  213  TYR213     -0.0009
     76  CD2       34.1090    5.3280    6.4190 C.ar  213  TYR213     -0.0009
     77  CE1       33.2970    2.9870    5.1730 C.ar  213  TYR213      0.0417
     78  CE2       32.8310    5.2190    5.9290 C.ar  213  TYR213      0.0417
     79  CZ        32.4380    4.0570    5.3070 C.ar  213  TYR213      0.1957
     80  OH        31.1410    3.9690    4.8640 O.3   213  TYR213     -0.2866
     81  N         25.2650   -4.9550   11.8560 N.3   251  LYS251     -0.1245
     82  CA        24.8200   -3.7790   12.6540 C.3   251  LYS251      0.1561
     83  C         25.2470   -3.9000   14.1080 C.2   251  LYS251      0.2260
     84  O         24.4310   -3.8150   15.0360 O.2   251  LYS251     -0.2867
     85  CB        23.2960   -3.5780   12.5380 C.3   251  LYS251      0.0271
     86  CG        22.8470   -3.2020   11.1460 C.3   251  LYS251      0.0035
     87  CD        23.2280   -1.7490   10.7300 C.3   251  LYS251      0.0206
     88  CE        22.7520   -0.6520   11.7110 C.3   251  LYS251      0.1093
     89  NZ        22.9560    0.7460   11.1680 N.3   251  LYS251     -0.1314
     90  N         34.7850    5.1830   -0.5890 N.3   335  PHE335     -0.1241
     91  CA        34.2420    6.1510   -1.5590 C.3   335  PHE335      0.1605
     92  C         35.2460    7.0380   -2.2850 C.2   335  PHE335      0.2264
     93  O         36.3430    7.3220   -1.7820 O.2   335  PHE335     -0.2867
     94  CB        33.2250    7.0550   -0.8580 C.3   335  PHE335      0.0534
     95  CG        32.2380    6.2880   -0.0380 C.ar  335  PHE335     -0.0203
     96  CD1       31.2470    5.5250   -0.6670 C.ar  335  PHE335     -0.0042
     97  CD2       32.3130    6.2890    1.3540 C.ar  335  PHE335     -0.0042
     98  CE1       30.3310    4.7790    0.0800 C.ar  335  PHE335     -0.0003
     99  CE2       31.3930    5.5510    2.1150 C.ar  335  PHE335     -0.0003
    100  CZ        30.4010    4.7860    1.4790 C.ar  335  PHE335     -0.0000
    101  N         29.1390   10.9440   -5.5930 N.3   394  ARG394     -0.1245
    102  CA        29.8850    9.9250   -4.8560 C.3   394  ARG394      0.1563
    103  C         29.7050    8.5360   -5.4620 C.2   394  ARG394      0.2260
    104  O         28.5760    8.1050   -5.7210 O.2   394  ARG394     -0.2867
    105  CB        29.4520    9.8860   -3.3780 C.3   394  ARG394      0.0307
    106  CG        30.3810    9.1020   -2.4580 C.3   394  ARG394      0.0489
    107  CD        29.6910    8.6740   -1.1780 C.3   394  ARG394      0.2205
    108  NE        28.7210    7.5870   -1.3840 N.pl3 394  ARG394     -0.0865
    109  CZ        27.9920    7.0520   -0.4020 C.cat 394  ARG394      0.5346
    110  NH1       28.0880    7.5320    0.8380 N.pl3 394  ARG394      0.1354
    111  NH2       27.1540    6.0500   -0.6590 N.pl3 394  ARG394      0.1354
@<TRIPOS>BOND
     1   104   103    2
     2   101   102    1
     3   103   102    1
     4   102   105    1
     5   105   106    1
     6   106   107    1
     7     4     3    2
     8    92    93    2
     9    92    91    1
    10    91    94    1
    11    91    90    1
    12   108   107    1
    13   108   109    2
    14     3     2    1
    15    22    21    2
    16    94    95    1
    17    96    95   ar
    18    96    98   ar
    19   111   109    1
    20     2     1    1
    21     2     5    1
    22    15    16    1
    23   109   110    1
    24    29    27   ar
    25    29    28   ar
    26    27    25   ar
    27    95    97   ar
    28    11    13   ar
    29    11     8   ar
    30    98   100   ar
    31    13    14   ar
    32    21    20    1
    33    16    17    1
    34     5     6    1
    35    28    26   ar
    36    25    24   ar
    37    19    20    1
    38    19    17   am
    39     8     6   ar
    40     8    10   ar
    41    14    12   ar
    42    26    24   ar
    43     6     7   ar
    44    20    23    1
    45    24    23    1
    46    17    18    2
    47    97    99   ar
    48   100    99   ar
    49    10    12   ar
    50    10     9   ar
    51     7     9   ar
    52    67    66    2
    53    66    68   am
    54    66    65    1
    55    63    62    1
    56    63    64    2
    57    62    65    1
    58    62    61    1
    59    80    79    1
    60    59    58   ar
    61    77    79   ar
    62    77    75   ar
    63    58    57    1
    64    58    60   ar
    65    57    54    1
    66    79    78   ar
    67    75    74   ar
    68    78    76   ar
    69    74    76   ar
    70    74    73    1
    71    53    54    1
    72    53    44   am
    73    54    55    1
    74    48    50   ar
    75    48    47   ar
    76    42    43    1
    77    43    44    1
    78    43    46    1
    79    50    52   ar
    80    73    70    1
    81    44    45    2
    82    72    71    2
    83    46    47    1
    84    47    49   ar
    85    55    56    2
    86    52    51   ar
    87    70    71    1
    88    70    69    1
    89    49    51   ar
    90    38    40   ar
    91    38    36   ar
    92    41    40    1
    93    87    86    1
    94    87    88    1
    95    40    39   ar
    96    36    35   ar
    97    86    85    1
    98    89    88    1
    99    81    82    1
   100    39    37   ar
   101    35    37   ar
   102    35    34    1
   103    85    82    1
   104    34    31    1
   105    82    83    1
   106    30    31    1
   107    31    32    1
   108    83    84    2
   109    32    33    2
