@<TRIPOS>MOLECULE
tmp/3fvxA00.pdb
 124 123 0 0 0
SMALL
GASTEIGER

@<TRIPOS>ATOM
      1  N         16.9490    8.0650    1.0100 N.3    15  TRP15      -0.1241
      2  CA        17.4100    6.7200    0.6540 C.3    15  TRP15       0.1605
      3  C         16.3050    5.7920    0.1540 C.2    15  TRP15       0.2264
      4  O         16.5270    4.9980   -0.7650 O.2    15  TRP15      -0.2867
      5  CB        18.1830    6.0960    1.8170 C.3    15  TRP15       0.0550
      6  CG        19.3690    6.9300    2.1700 C.ar   15  TRP15       0.0003
      7  CD1       19.4570    7.8380    3.1840 C.ar   15  TRP15       0.0946
      8  CD2       20.6250    6.9730    1.4770 C.ar   15  TRP15       0.0152
      9  NE1       20.6990    8.4350    3.1770 N.ar   15  TRP15      -0.2442
     10  CE2       21.4370    7.9170    2.1430 C.ar   15  TRP15       0.0810
     11  CE3       21.1470    6.2910    0.3670 C.ar   15  TRP15       0.0012
     12  CZ2       22.7450    8.2060    1.7290 C.ar   15  TRP15       0.0191
     13  CZ3       22.4520    6.5720   -0.0400 C.ar   15  TRP15       0.0001
     14  CH2       23.2340    7.5210    0.6410 C.ar   15  TRP15       0.0015
     15  N         26.3620    1.8090   -0.6710 N.3    33  GLY33      -0.1210
     16  CA        27.5960    1.9590    0.1040 C.3    33  GLY33       0.1956
     17  C         27.9130    0.7410    0.9410 C.2    33  GLY33       0.2611
     18  O         28.1160    0.8270    2.1600 O.2    33  GLY33      -0.2717
     19  N         27.9410   -0.4060    0.2810 N.am   34  PHE34      -0.1976
     20  CA        28.2730   -1.6840    0.9100 C.3    34  PHE34       0.1639
     21  C         28.7620   -2.6700   -0.1380 C.2    34  PHE34       0.2290
     22  O         28.4190   -2.5520   -1.3230 O.2    34  PHE34      -0.2864
     23  CB        27.1000   -2.2750    1.7210 C.3    34  PHE34       0.0560
     24  CG        25.8210   -2.4430    0.9460 C.ar   34  PHE34      -0.0200
     25  CD1       25.5800   -3.6040    0.2090 C.ar   34  PHE34      -0.0042
     26  CD2       24.8400   -1.4550    0.9850 C.ar   34  PHE34      -0.0042
     27  CE1       24.3830   -3.7760   -0.4980 C.ar   34  PHE34      -0.0003
     28  CE2       23.6390   -1.6200    0.2820 C.ar   34  PHE34      -0.0003
     29  CZ        23.4180   -2.7880   -0.4570 C.ar   34  PHE34      -0.0000
     30  N         25.5710    3.9670   13.3130 N.3    98  TYR98      -0.1241
     31  CA        24.3810    4.8170   13.4240 C.3    98  TYR98       0.1605
     32  C         23.9230    4.9210   14.8760 C.2    98  TYR98       0.2264
     33  O         23.7010    6.0230   15.3760 O.2    98  TYR98      -0.2867
     34  CB        23.2010    4.2880   12.6100 C.3    98  TYR98       0.0534
     35  CG        23.0150    4.8480   11.2250 C.ar   98  TYR98      -0.0201
     36  CD1       23.4670    4.1310   10.1100 C.ar   98  TYR98      -0.0009
     37  CD2       22.3630    6.0560   11.0080 C.ar   98  TYR98      -0.0009
     38  CE1       23.2890    4.6100    8.8170 C.ar   98  TYR98       0.0417
     39  CE2       22.1720    6.5610    9.7080 C.ar   98  TYR98       0.0417
     40  CZ        22.6480    5.8250    8.6180 C.ar   98  TYR98       0.1957
     41  OH        22.4870    6.2610    7.3110 O.3    98  TYR98      -0.2866
     42  N         28.0080   13.1080    6.3470 N.3   122  PHE122     -0.1241
     43  CA        27.1230   11.9530    6.4510 C.3   122  PHE122      0.1605
     44  C         25.7600   12.4690    6.8960 C.2   122  PHE122      0.2264
     45  O         25.6570   13.1990    7.8760 O.2   122  PHE122     -0.2867
     46  CB        27.7090   10.9690    7.4560 C.3   122  PHE122      0.0534
     47  CG        26.9840    9.6680    7.5360 C.ar  122  PHE122     -0.0203
     48  CD1       26.8760    8.8470    6.4220 C.ar  122  PHE122     -0.0042
     49  CD2       26.4450    9.2520    8.7460 C.ar  122  PHE122     -0.0042
     50  CE1       26.2200    7.6190    6.5120 C.ar  122  PHE122     -0.0003
     51  CE2       25.7890    8.0240    8.8460 C.ar  122  PHE122     -0.0003
     52  CZ        25.6710    7.2160    7.7270 C.ar  122  PHE122     -0.0000
     53  N         32.9030   10.2770    4.5030 N.3   182  ASN182     -0.1240
     54  CA        31.8540    9.9590    3.5100 C.3   182  ASN182      0.1653
     55  C         31.0710   11.2590    3.3410 C.2   182  ASN182      0.2266
     56  O         30.5560   11.7710    4.3280 O.2   182  ASN182     -0.2867
     57  CB        30.9770    8.8640    4.1270 C.3   182  ASN182      0.1155
     58  CG        29.7250    8.5420    3.3300 C.2   182  ASN182      0.2627
     59  OD1       29.4860    9.0230    2.2290 O.2   182  ASN182     -0.2716
     60  ND2       28.9020    7.6790    3.9210 N.am  182  ASN182     -0.0877
     61  N         35.4390    4.3340    8.7350 N.3   213  TYR213     -0.1241
     62  CA        36.2990    3.9420    7.5890 C.3   213  TYR213      0.1605
     63  C         37.7870    3.8790    7.9050 C.2   213  TYR213      0.2264
     64  O         38.6020    3.8750    6.9940 O.2   213  TYR213     -0.2867
     65  CB        36.0600    4.8180    6.3360 C.3   213  TYR213      0.0534
     66  CG        34.6400    4.7010    5.8430 C.ar  213  TYR213     -0.0201
     67  CD1       34.1860    3.5340    5.2430 C.ar  213  TYR213     -0.0009
     68  CD2       33.7260    5.7280    6.0790 C.ar  213  TYR213     -0.0009
     69  CE1       32.8470    3.4180    4.8330 C.ar  213  TYR213      0.0417
     70  CE2       32.3970    5.6200    5.6750 C.ar  213  TYR213      0.0417
     71  CZ        31.9630    4.4530    5.0770 C.ar  213  TYR213      0.1957
     72  OH        30.6310    4.3460    4.7250 O.3   213  TYR213     -0.2866
     73  N         27.9620   -5.2420    6.4630 N.3   248  THR248     -0.1218
     74  CA        27.1290   -4.1130    6.8920 C.3   248  THR248      0.1862
     75  C         25.8200   -4.5200    7.5930 C.2   248  THR248      0.2287
     76  O         25.3040   -3.7820    8.4450 O.2   248  THR248     -0.2866
     77  CB        26.8440   -3.1390    5.7450 C.3   248  THR248      0.1770
     78  OG1       26.1880   -3.8210    4.6710 O.3   248  THR248     -0.2211
     79  CG2       28.1710   -2.4850    5.2580 C.3   248  THR248      0.0375
     80  N         34.8930    4.1620    1.2920 N.3   334  TYR334     -0.1227
     81  CA        34.3740    3.3410    0.2140 C.3   334  TYR334      0.1736
     82  C         34.0970    4.1350   -1.0590 C.2   334  TYR334      0.2595
     83  O         33.6610    3.5530   -2.0700 O.2   334  TYR334     -0.2718
     84  CB        33.0020    2.7780    0.5980 C.3   334  TYR334      0.0548
     85  CG        32.9170    1.6330    1.5750 C.ar  334  TYR334     -0.0200
     86  CD1       34.0530    1.0060    2.1050 C.ar  334  TYR334     -0.0009
     87  CD2       31.6620    1.1410    1.9340 C.ar  334  TYR334     -0.0009
     88  CE1       33.9250   -0.0660    2.9920 C.ar  334  TYR334      0.0417
     89  CE2       31.5300    0.0760    2.8000 C.ar  334  TYR334      0.0417
     90  CZ        32.6460   -0.5250    3.3270 C.ar  334  TYR334      0.1957
     91  OH        32.4760   -1.5870    4.2060 O.3   334  TYR334     -0.2866
     92  N         34.2850    5.4570   -0.9970 N.am  335  PHE335     -0.1976
     93  CA        33.6350    6.3640   -1.9500 C.3   335  PHE335      0.1639
     94  C         34.5720    7.2790   -2.7030 C.2   335  PHE335      0.2290
     95  O         35.6500    7.6480   -2.2160 O.2   335  PHE335     -0.2864
     96  CB        32.5890    7.2360   -1.2300 C.3   335  PHE335      0.0560
     97  CG        31.6350    6.4450   -0.3830 C.ar  335  PHE335     -0.0200
     98  CD1       30.6630    5.6490   -0.9780 C.ar  335  PHE335     -0.0042
     99  CD2       31.7350    6.4720    1.0090 C.ar  335  PHE335     -0.0042
    100  CE1       29.7900    4.8940   -0.1850 C.ar  335  PHE335     -0.0003
    101  CE2       30.8730    5.7240    1.7940 C.ar  335  PHE335     -0.0003
    102  CZ        29.8940    4.9400    1.1940 C.ar  335  PHE335     -0.0000
    103  N         24.3260   15.6980    1.1530 N.3   380  PHE380     -0.1241
    104  CA        25.3340   15.7970    2.2180 C.3   380  PHE380      0.1605
    105  C         25.6810   17.2680    2.5420 C.2   380  PHE380      0.2264
    106  O         26.7120   17.5570    3.1740 O.2   380  PHE380     -0.2867
    107  CB        26.6000   15.0250    1.8230 C.3   380  PHE380      0.0534
    108  CG        26.3410   13.5820    1.4480 C.ar  380  PHE380     -0.0203
    109  CD1       26.0400   12.6380    2.4230 C.ar  380  PHE380     -0.0042
    110  CD2       26.4050   13.1820    0.1230 C.ar  380  PHE380     -0.0042
    111  CE1       25.8080   11.3100    2.0860 C.ar  380  PHE380     -0.0003
    112  CE2       26.1690   11.8600   -0.2320 C.ar  380  PHE380     -0.0003
    113  CZ        25.8690   10.9250    0.7430 C.ar  380  PHE380     -0.0000
    114  N         28.2850   10.9450   -5.9320 N.3   394  ARG394     -0.1245
    115  CA        29.0980    9.9630   -5.2120 C.3   394  ARG394      0.1563
    116  C         28.9440    8.5450   -5.7600 C.2   394  ARG394      0.2260
    117  O         27.8160    8.0470   -5.9030 O.2   394  ARG394     -0.2867
    118  CB        28.7030    9.9560   -3.7210 C.3   394  ARG394      0.0307
    119  CG        29.6320    9.1330   -2.8330 C.3   394  ARG394      0.0489
    120  CD        28.9760    8.7500   -1.5210 C.3   394  ARG394      0.2205
    121  NE        28.0550    7.6330   -1.6690 N.pl3 394  ARG394     -0.0865
    122  CZ        27.3330    7.1350   -0.6670 C.cat 394  ARG394      0.5346
    123  NH1       27.4180    7.6630    0.5590 N.pl3 394  ARG394      0.1354
    124  NH2       26.5260    6.0970   -0.8890 N.pl3 394  ARG394      0.1354
@<TRIPOS>BOND
     1   114   115    1
     2   117   116    2
     3   116   115    1
     4   115   118    1
     5   118   119    1
     6   119   120    1
     7    94    95    2
     8    94    93    1
     9    83    82    2
    10    93    96    1
    11    93    92    1
    12   121   120    1
    13   121   122    2
    14    22    21    2
    15    96    97    1
    16    82    92   am
    17    82    81    1
    18    98    97   ar
    19    98   100   ar
    20   124   122    1
    21     4     3    2
    22    15    16    1
    23   122   123    1
    24    27    29   ar
    25    27    25   ar
    26    29    28   ar
    27    97    99   ar
    28   112   110   ar
    29   112   113   ar
    30   100   102   ar
    31    21    20    1
    32    13    11   ar
    33    13    14   ar
    34    16    17    1
    35   110   108   ar
    36     3     2    1
    37    25    24   ar
    38    81    84    1
    39    81    80    1
    40    19    20    1
    41    19    17   am
    42    28    26   ar
    43    11     8   ar
    44    84    85    1
    45    14    12   ar
    46     2     1    1
    47     2     5    1
    48   113   111   ar
    49    20    23    1
    50    17    18    2
    51    24    26   ar
    52    24    23    1
    53    99   101   ar
    54   103   104    1
    55   102   101   ar
    56   108   107    1
    57   108   109   ar
    58     8    10   ar
    59     8     6   ar
    60    85    87   ar
    61    85    86   ar
    62    12    10   ar
    63     5     6    1
    64   107   104    1
    65    87    89   ar
    66   111   109   ar
    67    86    88   ar
    68    10     9   ar
    69     6     7   ar
    70   104   105    1
    71    59    58    2
    72   105   106    2
    73    89    90   ar
    74    88    90   ar
    75     9     7   ar
    76    90    91    1
    77    58    60   am
    78    58    57    1
    79    55    54    1
    80    55    56    2
    81    54    57    1
    82    54    53    1
    83    78    77    1
    84    72    71    1
    85    69    71   ar
    86    69    67   ar
    87    71    70   ar
    88    67    66   ar
    89    79    77    1
    90    70    68   ar
    91    77    74    1
    92    66    68   ar
    93    66    65    1
    94    65    62    1
    95    42    43    1
    96    48    50   ar
    97    48    47   ar
    98    43    44    1
    99    43    46    1
   100    73    74    1
   101    50    52   ar
   102    74    75    1
   103    44    45    2
   104    64    63    2
   105    41    40    1
   106    46    47    1
   107    47    49   ar
   108    62    63    1
   109    62    61    1
   110    75    76    2
   111    52    51   ar
   112    40    38   ar
   113    40    39   ar
   114    49    51   ar
   115    38    36   ar
   116    39    37   ar
   117    36    35   ar
   118    37    35   ar
   119    35    34    1
   120    34    31    1
   121    30    31    1
   122    31    32    1
   123    32    33    2
