@<TRIPOS>MOLECULE
tmp/3fw0A00.pdb
 130 126 0 0 0
SMALL
GASTEIGER

@<TRIPOS>ATOM
      1  N         -6.1160   15.7360   31.3050 N.3    25  GLN25      -0.1245
      2  CA        -5.0450   14.7760   31.5210 C.3    25  GLN25       0.1566
      3  C         -3.7080   15.5080   31.5960 C.2    25  GLN25       0.2260
      4  O         -3.3220   16.2190   30.6630 O.2    25  GLN25      -0.2867
      5  CB        -5.0310   13.7220   30.4110 C.3    25  GLN25       0.0367
      6  CG        -6.3870   13.0870   30.1570 C.3    25  GLN25       0.0905
      7  CD        -6.2950   11.8150   29.3380 C.2    25  GLN25       0.2608
      8  OE1       -5.8600   11.8230   28.1870 O.2    25  GLN25      -0.2717
      9  NE2       -6.7180   10.7100   29.9320 N.am   25  GLN25      -0.0878
     10  N         -4.3440   18.2610   28.8280 N.3    42  ARG42      -0.1245
     11  CA        -5.0980   18.0340   27.6010 C.3    42  ARG42       0.1563
     12  C         -6.5130   18.6260   27.5940 C.2    42  ARG42       0.2260
     13  O         -7.2770   18.3820   26.6570 O.2    42  ARG42      -0.2867
     14  CB        -5.1400   16.5410   27.2820 C.3    42  ARG42       0.0307
     15  CG        -3.7730   15.8720   27.2160 C.3    42  ARG42       0.0489
     16  CD        -3.8250   14.5740   26.4270 C.3    42  ARG42       0.2205
     17  NE        -2.4890   14.0130   26.3000 N.pl3  42  ARG42      -0.0865
     18  CZ        -2.1430   12.7820   26.6610 C.cat  42  ARG42       0.5346
     19  NH1       -3.0500   11.9430   27.1540 N.pl3  42  ARG42       0.1354
     20  NH2       -0.8820   12.3880   26.5090 N.pl3  42  ARG42       0.1354
     21  N         -6.6510   10.9840   25.0510 N.3    47  TRP47      -0.1241
     22  CA        -6.1410    9.9350   24.1710 C.3    47  TRP47       0.1605
     23  C         -6.9560    8.6640   24.4410 C.2    47  TRP47       0.2264
     24  O         -6.8360    8.0660   25.5110 O.2    47  TRP47      -0.2867
     25  CB        -4.6600    9.6730   24.4400 C.3    47  TRP47       0.0550
     26  CG        -3.9440    8.8510   23.3830 C.ar   47  TRP47       0.0003
     27  CD1       -4.5080    8.0380   22.4390 C.ar   47  TRP47       0.0946
     28  CD2       -2.5240    8.7450   23.2010 C.ar   47  TRP47       0.0152
     29  NE1       -3.5300    7.4520   21.6700 N.ar   47  TRP47      -0.2442
     30  CE2       -2.3050    7.8660   22.1190 C.ar   47  TRP47       0.0810
     31  CE3       -1.4150    9.3140   23.8460 C.ar   47  TRP47       0.0012
     32  CZ2       -1.0280    7.5490   21.6610 C.ar   47  TRP47       0.0191
     33  CZ3       -0.1430    8.9930   23.3930 C.ar   47  TRP47       0.0001
     34  CH2        0.0380    8.1150   22.3110 C.ar   47  TRP47       0.0015
     35  N          1.6430   16.1710   24.8850 N.3    94  HIS94      -0.1241
     36  CA         2.4090   15.1430   25.5540 C.3    94  HIS94       0.1621
     37  C          3.5300   15.7470   26.4070 C.2    94  HIS94       0.2264
     38  O          3.2820   16.1570   27.5390 O.2    94  HIS94      -0.2867
     39  CB         2.9240   14.1210   24.5530 C.3    94  HIS94       0.0745
     40  CG         3.3890   12.8550   25.1920 C.ar   94  HIS94       0.0817
     41  ND1        4.6250   12.7340   25.7890 N.ar   94  HIS94      -0.2268
     42  CD2        2.7760   11.6620   25.3540 C.ar   94  HIS94       0.1154
     43  CE1        4.7570   11.5190   26.2820 C.ar   94  HIS94       0.1986
     44  NE2        3.6540   10.8470   26.0220 N.ar   94  HIS94      -0.2212
     45  N          4.1510   10.2080   16.7620 N.3   144  GLN144     -0.1245
     46  CA         3.7390   10.3420   18.1530 C.3   144  GLN144      0.1566
     47  C          4.9260   10.6640   19.0830 C.2   144  GLN144      0.2260
     48  O          5.2430    9.8850   19.9910 O.2   144  GLN144     -0.2867
     49  CB         2.9380    9.1080   18.5970 C.3   144  GLN144      0.0367
     50  CG         1.6560    8.8890   17.7700 C.3   144  GLN144      0.0905
     51  CD         0.9030    7.6000   18.1020 C.2   144  GLN144      0.2608
     52  OE1        1.4620    6.6560   18.6550 O.2   144  GLN144     -0.2717
     53  NE2       -0.3740    7.5580   17.7410 N.am  144  GLN144     -0.0878
     54  N          6.0490    6.7800   20.4500 N.3   163  TYR163     -0.1241
     55  CA         4.9410    5.8190   20.4700 C.3   163  TYR163      0.1605
     56  C          4.8120    4.9530   19.2140 C.2   163  TYR163      0.2264
     57  O          4.2990    3.8330   19.2920 O.2   163  TYR163     -0.2867
     58  CB         3.6080    6.4590   20.8760 C.3   163  TYR163      0.0534
     59  CG         3.3210    6.3730   22.3590 C.ar  163  TYR163     -0.0201
     60  CD1        3.3200    7.5150   23.1570 C.ar  163  TYR163     -0.0009
     61  CD2        3.0590    5.1480   22.9630 C.ar  163  TYR163     -0.0009
     62  CE1        3.0520    7.4400   24.5260 C.ar  163  TYR163      0.0417
     63  CE2        2.7980    5.0550   24.3230 C.ar  163  TYR163      0.0417
     64  CZ         2.7980    6.2050   25.1000 C.ar  163  TYR163      0.1957
     65  OH         2.5470    6.1080   26.4430 O.3   163  TYR163     -0.2866
     66  N         10.0410    7.4230   26.0640 N.3   199  HIS199     -0.1241
     67  CA         8.8950    8.1350   26.5730 C.3   199  HIS199      0.1621
     68  C          9.2320    9.3750   27.4000 C.2   199  HIS199      0.2264
     69  O          8.3880   10.2700   27.5510 O.2   199  HIS199     -0.2867
     70  CB         8.0460    7.1660   27.3840 C.3   199  HIS199      0.0745
     71  CG         6.7190    7.7160   27.7710 C.ar  199  HIS199      0.0817
     72  ND1        6.4730    8.2490   29.0170 N.ar  199  HIS199     -0.2268
     73  CD2        5.5700    7.8420   27.0700 C.ar  199  HIS199      0.1154
     74  CE1        5.2230    8.6670   29.0720 C.ar  199  HIS199      0.1986
     75  NE2        4.6570    8.4330   27.9030 N.ar  199  HIS199     -0.2212
     76  N          9.7920    2.9300   27.9130 N.3   215  ARG215     -0.1245
     77  CA         8.4910    2.6540   28.5360 C.3   215  ARG215      0.1563
     78  C          8.0620    1.1770   28.5300 C.2   215  ARG215      0.2260
     79  O          7.9030    0.5800   29.5940 O.2   215  ARG215     -0.2867
     80  CB         7.4000    3.5670   27.9570 C.3   215  ARG215      0.0307
     81  CG         6.1600    3.6760   28.8280 C.3   215  ARG215      0.0489
     82  CD         4.8970    3.7860   27.9870 C.3   215  ARG215      0.2205
     83  NE         3.9220    2.7690   28.3860 N.pl3 215  ARG215     -0.0865
     84  CZ         2.6230    2.7860   28.0940 C.cat 215  ARG215      0.5346
     85  NH1        2.0920    3.7810   27.3940 N.pl3 215  ARG215      0.1354
     86  NH2        1.8450    1.8010   28.5240 N.pl3 215  ARG215      0.1354
     87  N          7.5020    5.1270   33.1300 N.3   244  PHE244     -0.1241
     88  CA         6.8400    6.2310   32.4430 C.3   244  PHE244      0.1605
     89  C          7.6960    7.4890   32.3410 C.2   244  PHE244      0.2264
     90  O          7.8110    8.0590   31.2580 O.2   244  PHE244     -0.2867
     91  CB         5.4570    6.5090   33.0420 C.3   244  PHE244      0.0534
     92  CG         4.3540    5.7170   32.3880 C.ar  244  PHE244     -0.0203
     93  CD1        4.3050    4.3290   32.5070 C.ar  244  PHE244     -0.0042
     94  CD2        3.3690    6.3560   31.6510 C.ar  244  PHE244     -0.0042
     95  CE1        3.2960    3.5910   31.8940 C.ar  244  PHE244     -0.0003
     96  CE2        2.3540    5.6310   31.0410 C.ar  244  PHE244     -0.0003
     97  CZ         2.3150    4.2460   31.1620 C.ar  244  PHE244     -0.0000
     98  N         -2.1500    6.6870   36.2660 N.3   293  MET293     -0.1245
     99  CA        -1.0630    6.8120   35.3120 C.3   293  MET293      0.1570
    100  C         -0.1680    8.0110   35.6330 C.2   293  MET293      0.2261
    101  O         -0.2420    9.0340   34.9530 O.2   293  MET293     -0.2867
    102  CB        -1.5850    6.8850   33.8750 C.3   293  MET293      0.0387
    103  CG        -0.5250    6.5740   32.8420 C.3   293  MET293      0.0595
    104  SD        -1.1490    6.4160   31.1630 S.3   293  MET293     -0.1393
    105  CE        -0.9440    8.1140   30.6840 C.3   293  MET293      0.0692
    106  N          2.5880   10.2690   35.0500 N.3   295  HIS295     -0.1241
    107  CA         2.9850   10.4020   33.6590 C.3   295  HIS295      0.1621
    108  C          4.2260   11.2560   33.3910 C.2   295  HIS295      0.2264
    109  O          4.8930   11.0960   32.3630 O.2   295  HIS295     -0.2867
    110  CB         1.7920   10.8600   32.8440 C.3   295  HIS295      0.0745
    111  CG         2.0650   10.9300   31.3840 C.ar  295  HIS295      0.0817
    112  ND1        2.5660   12.0630   30.7790 N.ar  295  HIS295     -0.2268
    113  CD2        1.9380   10.0040   30.4090 C.ar  295  HIS295      0.1154
    114  CE1        2.7190   11.8350   29.4900 C.ar  295  HIS295      0.1986
    115  NE2        2.3390   10.5980   29.2430 N.ar  295  HIS295     -0.2212
    116  N         -2.0080   11.2610   34.1690 N.3   310  ALA310     -0.1231
    117  CA        -2.8110   11.4060   32.9590 C.3   310  ALA310      0.1694
    118  C         -4.1880   10.7290   33.0460 C.2   310  ALA310      0.2592
    119  O         -5.0470   10.9550   32.1890 O.2   310  ALA310     -0.2718
    120  CB        -2.0360   10.9110   31.7380 C.3   310  ALA310      0.0304
    121  N         -4.4090    9.9000   34.0640 N.am  311  HIS311     -0.1976
    122  CA        -5.7300    9.2930   34.2350 C.3   311  HIS311      0.1656
    123  C         -6.5160    9.9110   35.3860 C.2   311  HIS311      0.2291
    124  O         -7.7300   10.0290   35.3030 O.2   311  HIS311     -0.2864
    125  CB        -5.6520    7.7650   34.3740 C.3   311  HIS311      0.0771
    126  CG        -5.3040    7.0480   33.1010 C.ar  311  HIS311      0.0820
    127  ND1       -4.8570    5.7440   33.0820 N.ar  311  HIS311     -0.2267
    128  CD2       -5.3400    7.4490   31.8070 C.ar  311  HIS311      0.1154
    129  CE1       -4.6390    5.3690   31.8340 C.ar  311  HIS311      0.1986
    130  NE2       -4.9210    6.3860   31.0400 N.ar  311  HIS311     -0.2212
@<TRIPOS>BOND
     1    45    46    1
     2    53    51   am
     3    50    51    1
     4    50    49    1
     5    51    52    2
     6    46    49    1
     7    46    47    1
     8    47    48    2
     9    56    57    2
    10    56    55    1
    11    54    55    1
    12    55    58    1
    13    58    59    1
    14    32    30   ar
    15    32    34   ar
    16    29    30   ar
    17    29    27   ar
    18    30    28   ar
    19    34    33   ar
    20    59    61   ar
    21    59    60   ar
    22    27    26   ar
    23    61    63   ar
    24    60    62   ar
    25    28    26   ar
    26    28    31   ar
    27    26    25    1
    28    33    31   ar
    29    22    25    1
    30    22    23    1
    31    22    21    1
    32    63    64   ar
    33    23    24    2
    34    62    64   ar
    35    39    40    1
    36    39    36    1
    37    35    36    1
    38    64    65    1
    39    40    42   ar
    40    40    41   ar
    41    42    44   ar
    42    36    37    1
    43    41    43   ar
    44    44    43   ar
    45    66    67    1
    46    17    16    1
    47    17    18    2
    48    37    38    2
    49    16    15    1
    50    20    18    1
    51    67    70    1
    52    67    68    1
    53    13    12    2
    54    18    19    1
    55    73    71   ar
    56    73    75   ar
    57    15    14    1
    58    14    11    1
    59    70    71    1
    60    85    84    1
    61    68    69    2
    62    12    11    1
    63    11    10    1
    64    71    72   ar
    65    75    74   ar
    66    76    77    1
    67    80    77    1
    68    80    81    1
    69    82    83    1
    70    82    81    1
    71    84    83    2
    72    84    86    1
    73     8     7    2
    74    78    77    1
    75    78    79    2
    76    72    74   ar
    77   115   114   ar
    78   115   113   ar
    79     7     9   am
    80     7     6    1
    81   114   112   ar
    82     6     5    1
    83   113   111   ar
    84     5     2    1
    85     4     3    2
    86   105   104    1
    87   112   111   ar
    88   130   128   ar
    89   130   129   ar
    90    96    97   ar
    91    96    94   ar
    92    97    95   ar
    93   104   103    1
    94    90    89    2
    95     1     2    1
    96   111   110    1
    97     2     3    1
    98    94    92   ar
    99   120   117    1
   100   128   126   ar
   101   129   127   ar
   102    95    93   ar
   103   119   118    2
   104    89    88    1
   105   109   108    2
   106    92    93   ar
   107    92    91    1
   108    88    91    1
   109    88    87    1
   110   103   102    1
   111   110   107    1
   112   117   118    1
   113   117   116    1
   114   118   121   am
   115   127   126   ar
   116   126   125    1
   117   108   107    1
   118   107   106    1
   119   102    99    1
   120   121   122    1
   121   122   125    1
   122   122   123    1
   123   101   100    2
   124   124   123    2
   125    99   100    1
   126    99    98    1
