@<TRIPOS>MOLECULE
tmp/3fw1A01.pdb
 97 97 0 0 0
SMALL
GASTEIGER

@<TRIPOS>ATOM
      1  N         37.7240   23.5840   23.5440 N.3   103  TYR103     -0.1227
      2  CA        37.4020   24.1730   24.8520 C.3   103  TYR103      0.1736
      3  C         37.4310   23.0140   25.8720 C.2   103  TYR103      0.2595
      4  O         36.6300   22.0780   25.7590 O.2   103  TYR103     -0.2718
      5  CB        35.9700   24.7480   24.8750 C.3   103  TYR103      0.0548
      6  CG        35.7880   26.1540   24.3000 C.ar  103  TYR103     -0.0200
      7  CD1       36.7870   26.7610   23.5040 C.ar  103  TYR103     -0.0009
      8  CD2       34.6180   26.8550   24.5450 C.ar  103  TYR103     -0.0009
      9  CE1       36.5700   28.0720   22.9520 C.ar  103  TYR103      0.0417
     10  CE2       34.3990   28.1550   24.0260 C.ar  103  TYR103      0.0417
     11  CZ        35.3900   28.7400   23.2390 C.ar  103  TYR103      0.1957
     12  OH        35.1350   29.9930   22.7260 O.3   103  TYR103     -0.2866
     13  N         38.3250   23.0850   26.8380 N.am  104  TRP104     -0.1962
     14  CA        38.4310   22.0740   27.8760 C.3   104  TRP104      0.1771
     15  C         38.4810   20.6410   27.2770 C.2   104  TRP104      0.2619
     16  O         37.6830   19.7490   27.6460 O.2   104  TRP104     -0.2715
     17  CB        37.2660   22.2460   28.8420 C.3   104  TRP104      0.0590
     18  CG        37.4040   23.5690   29.6280 C.ar  104  TRP104      0.0006
     19  CD1       36.5380   24.6480   29.6210 C.ar  104  TRP104      0.0946
     20  CD2       38.5080   23.9350   30.4550 C.ar  104  TRP104      0.0152
     21  NE1       37.0430   25.6630   30.4450 N.ar  104  TRP104     -0.2442
     22  CE2       38.2410   25.2250   30.9810 C.ar  104  TRP104      0.0810
     23  CE3       39.6960   23.2600   30.8450 C.ar  104  TRP104      0.0012
     24  CZ2       39.1430   25.8980   31.8410 C.ar  104  TRP104      0.0191
     25  CZ3       40.5790   23.9110   31.7280 C.ar  104  TRP104      0.0001
     26  CH2       40.2780   25.2100   32.2360 C.ar  104  TRP104      0.0015
     27  N         39.3920   20.4890   26.3300 N.am  105  PHE105     -0.1974
     28  CA        39.7100   19.2000   25.7180 C.3   105  PHE105      0.1639
     29  C         38.4710   18.6250   25.0310 C.2   105  PHE105      0.2290
     30  O         38.3520   17.3880   24.8870 O.2   105  PHE105     -0.2864
     31  CB        40.1880   18.1740   26.7690 C.3   105  PHE105      0.0560
     32  CG        41.6750   18.1930   27.0500 C.ar  105  PHE105     -0.0200
     33  CD1       42.3910   19.3850   27.1130 C.ar  105  PHE105     -0.0042
     34  CD2       42.3310   17.0160   27.3580 C.ar  105  PHE105     -0.0042
     35  CE1       43.7810   19.3930   27.4220 C.ar  105  PHE105     -0.0003
     36  CE2       43.7020   17.0000   27.6870 C.ar  105  PHE105     -0.0003
     37  CZ        44.4350   18.2010   27.6960 C.ar  105  PHE105     -0.0000
     38  N         44.7850   26.0780   21.7750 N.3   148  GLY148     -0.1210
     39  CA        45.7330   26.9820   22.4390 C.3   148  GLY148      0.1956
     40  C         47.0970   26.3260   22.5790 C.2   148  GLY148      0.2612
     41  O         48.1110   26.9450   22.2700 O.2   148  GLY148     -0.2717
     42  N         47.1330   25.0640   23.0150 N.am  149  GLY149     -0.1942
     43  CA        48.3830   24.3610   23.2720 C.3   149  GLY149      0.2014
     44  C         49.1200   23.9880   21.9810 C.2   149  GLY149      0.2639
     45  O         48.5150   23.8600   20.9180 O.2   149  GLY149     -0.2714
     46  N         50.4370   23.8220   22.0810 N.am  150  THR150     -0.1950
     47  CA        51.2510   23.5110   20.8800 C.3   150  THR150      0.1897
     48  C         51.2530   22.0300   20.5580 C.2   150  THR150      0.2313
     49  O         50.9200   21.2020   21.4000 O.2   150  THR150     -0.2863
     50  CB        52.7340   23.9240   21.1020 C.3   150  THR150      0.1794
     51  OG1       53.2240   23.1920   22.2260 O.3   150  THR150     -0.2208
     52  CG2       52.8420   25.4200   21.3940 C.3   150  THR150      0.0378
     53  N         53.0850   19.9370   23.1180 N.3   153  MET153     -0.1230
     54  CA        52.3830   19.7580   24.3910 C.3   153  MET153      0.1702
     55  C         51.3680   18.6250   24.2510 C.2   153  MET153      0.2592
     56  O         51.0710   17.9330   25.2200 O.2   153  MET153     -0.2718
     57  CB        51.6690   21.0660   24.7820 C.3   153  MET153      0.0401
     58  CG        52.6810   22.1530   25.1660 C.3   153  MET153      0.0596
     59  SD        51.9260   23.7870   25.3680 S.3   153  MET153     -0.1393
     60  CE        50.9410   23.5350   26.8720 C.3   153  MET153      0.0692
     61  N         50.8690   18.4420   23.0250 N.am  154  TYR154     -0.1976
     62  CA        49.8930   17.4090   22.7200 C.3   154  TYR154      0.1639
     63  C         50.5860   16.1750   22.1500 C.2   154  TYR154      0.2290
     64  O         50.2260   15.6790   21.1000 O.2   154  TYR154     -0.2864
     65  CB        48.8400   17.9210   21.7150 C.3   154  TYR154      0.0560
     66  CG        47.8040   18.7970   22.3820 C.ar  154  TYR154     -0.0198
     67  CD1       46.8310   18.2280   23.1830 C.ar  154  TYR154     -0.0009
     68  CD2       47.8160   20.1930   22.2200 C.ar  154  TYR154     -0.0009
     69  CE1       45.8480   19.0020   23.8230 C.ar  154  TYR154      0.0417
     70  CE2       46.8650   20.9780   22.8450 C.ar  154  TYR154      0.0417
     71  CZ        45.8700   20.3600   23.6450 C.ar  154  TYR154      0.1957
     72  OH        44.9440   21.0960   24.2980 O.3   154  TYR154     -0.2866
     73  N         49.8840   17.8630   27.9120 N.3   160  ASN160     -0.1240
     74  CA        48.4790   17.6430   27.5660 C.3   160  ASN160      0.1653
     75  C         48.1470   16.2230   27.1380 C.2   160  ASN160      0.2266
     76  O         46.9600   15.8970   27.0090 O.2   160  ASN160     -0.2867
     77  CB        48.0180   18.6190   26.4750 C.3   160  ASN160      0.1155
     78  CG        47.9810   20.0700   26.9620 C.2   160  ASN160      0.2627
     79  OD1       47.7860   20.3370   28.1520 O.2   160  ASN160     -0.2716
     80  ND2       48.1780   21.0140   26.0300 N.am  160  ASN160     -0.0877
     81  N         47.1160   31.2210   17.6930 N.3   192  GLU192     -0.1231
     82  CA        47.2890   32.5210   18.3500 C.3   192  GLU192      0.1699
     83  C         48.7380   32.8930   18.6100 C.2   192  GLU192      0.2592
     84  O         49.0610   34.0780   18.6960 O.2   192  GLU192     -0.2718
     85  CB        46.5200   32.5800   19.6580 C.3   192  GLU192      0.0402
     86  CG        45.0250   32.6510   19.4210 C.3   192  GLU192      0.1161
     87  CD        44.2400   32.1700   20.6180 C.2   192  GLU192      0.3649
     88  OE1       43.5940   32.9760   21.2940 O.co2 192  GLU192     -0.2457
     89  OE2       44.3060   30.9770   20.9020 O.co2 192  GLU192     -0.2457
     90  N         49.6080   31.8970   18.7240 N.am  193  ILE193     -0.1980
     91  CA        51.0230   32.1890   18.9590 C.3   193  ILE193      0.1595
     92  C         51.8780   31.8380   17.7540 C.2   193  ILE193      0.2287
     93  O         53.1060   31.9470   17.8020 O.2   193  ILE193     -0.2864
     94  CB        51.5680   31.5280   20.2450 C.3   193  ILE193      0.0276
     95  CG1       51.4970   30.0090   20.1820 C.3   193  ILE193      0.0022
     96  CG2       50.8080   32.0480   21.4630 C.3   193  ILE193      0.0022
     97  CD1       51.8830   29.3530   21.5330 C.3   193  ILE193      0.0001
@<TRIPOS>BOND
     1    81    82    1
     2    92    93    2
     3    92    91    1
     4    82    83    1
     5    82    85    1
     6    83    84    2
     7    83    90   am
     8    90    91    1
     9    91    94    1
    10    86    85    1
    11    86    87    1
    12    95    94    1
    13    95    97    1
    14    94    96    1
    15    48    47    1
    16    48    49    2
    17    87    89   ar
    18    87    88   ar
    19    47    50    1
    20    47    46    1
    21    45    44    2
    22    64    63    2
    23    50    52    1
    24    50    51    1
    25    65    66    1
    26    65    62    1
    27    38    39    1
    28    44    46   am
    29    44    43    1
    30    63    62    1
    31    68    66   ar
    32    68    70   ar
    33    41    40    2
    34    66    67   ar
    35    39    40    1
    36    40    42   am
    37    62    61    1
    38    12    11    1
    39    70    71   ar
    40     9    11   ar
    41     9     7   ar
    42    42    43    1
    43    61    55   am
    44    53    54    1
    45    67    69   ar
    46    11    10   ar
    47     7     6   ar
    48     1     2    1
    49    71    69   ar
    50    71    72    1
    51    10     8   ar
    52    55    54    1
    53    55    56    2
    54     6     8   ar
    55     6     5    1
    56    54    57    1
    57    57    58    1
    58     2     5    1
    59     2     3    1
    60    30    29    2
    61    29    28    1
    62    58    59    1
    63    59    60    1
    64    28    27    1
    65    28    31    1
    66     4     3    2
    67     3    13   am
    68    80    78   am
    69    27    15   am
    70    77    78    1
    71    77    74    1
    72    31    32    1
    73    13    14    1
    74    78    79    2
    75    76    75    2
    76    32    33   ar
    77    32    34   ar
    78    33    35   ar
    79    75    74    1
    80    15    16    2
    81    15    14    1
    82    34    36   ar
    83    35    37   ar
    84    74    73    1
    85    36    37   ar
    86    14    17    1
    87    17    18    1
    88    19    18   ar
    89    19    21   ar
    90    18    20   ar
    91    21    22   ar
    92    20    23   ar
    93    20    22   ar
    94    23    25   ar
    95    22    24   ar
    96    25    26   ar
    97    24    26   ar
