@<TRIPOS>MOLECULE
tmp/3fw3B00.pdb
 166 162 0 0 0
SMALL
GASTEIGER

@<TRIPOS>ATOM
      1  N          3.4280   -3.9320  -20.5290 N.3     2  TRP2       -0.1241
      2  CA         3.8500   -3.7570  -19.1480 C.3     2  TRP2        0.1605
      3  C          4.0170   -2.2770  -18.8170 C.2     2  TRP2        0.2264
      4  O          4.2080   -1.4350  -19.7050 O.2     2  TRP2       -0.2867
      5  CB         5.1410   -4.5640  -18.8500 C.3     2  TRP2        0.0550
      6  CG         6.3890   -4.0570  -19.5220 C.ar    2  TRP2        0.0003
      7  CD1        6.9180   -4.4810  -20.7060 C.ar    2  TRP2        0.0946
      8  CD2        7.2910   -3.0380  -19.0330 C.ar    2  TRP2        0.0152
      9  NE1        8.0690   -3.7890  -20.9920 N.ar    2  TRP2       -0.2442
     10  CE2        8.3170   -2.8920  -19.9890 C.ar    2  TRP2        0.0810
     11  CE3        7.3330   -2.2430  -17.8890 C.ar    2  TRP2        0.0012
     12  CZ2        9.3720   -1.9950  -19.8260 C.ar    2  TRP2        0.0191
     13  CZ3        8.3780   -1.3260  -17.7360 C.ar    2  TRP2        0.0001
     14  CH2        9.3920   -1.2300  -18.6920 C.ar    2  TRP2        0.0015
     15  N         11.2650    5.5990  -25.5580 N.3    65  ASN65      -0.1240
     16  CA        10.6860    4.2880  -25.8690 C.3    65  ASN65       0.1653
     17  C          9.4080    3.9530  -25.0700 C.2    65  ASN65       0.2266
     18  O          8.9450    2.8020  -25.0640 O.2    65  ASN65      -0.2867
     19  CB        11.7160    3.1470  -25.7030 C.3    65  ASN65       0.1155
     20  CG        12.1190    2.9250  -24.2470 C.2    65  ASN65       0.2627
     21  OD1       11.5680    3.5450  -23.3350 O.2    65  ASN65      -0.2716
     22  ND2       13.0740    2.0420  -24.0260 N.am   65  ASN65      -0.0877
     23  N          9.1440    3.9680  -21.8870 N.3    67  HIS67      -0.1226
     24  CA         9.5720    3.5510  -20.5430 C.3    67  HIS67       0.1752
     25  C         10.7110    4.3880  -19.9360 C.2    67  HIS67       0.2596
     26  O         10.8710    4.4380  -18.7060 O.2    67  HIS67      -0.2718
     27  CB         9.9930    2.0850  -20.5650 C.3    67  HIS67       0.0759
     28  CG         9.0130    1.1630  -21.2650 C.ar   67  HIS67       0.0818
     29  ND1        7.8150    0.7800  -20.7020 N.ar   67  HIS67      -0.2268
     30  CD2        9.1010    0.5020  -22.4430 C.ar   67  HIS67       0.1154
     31  CE1        7.1990   -0.0660  -21.5100 C.ar   67  HIS67       0.1986
     32  NE2        7.9580   -0.2530  -22.5750 N.ar   67  HIS67      -0.2212
     33  N         11.5150    4.9770  -20.8020 N.am   68  SER68      -0.1952
     34  CA        12.6900    5.7210  -20.4530 C.3    68  SER68       0.1924
     35  C         13.1050    6.5220  -21.7010 C.2    68  SER68       0.2314
     36  O         12.4030    6.4940  -22.7480 O.2    68  SER68      -0.2863
     37  CB        13.8070    4.7650  -20.0200 C.3    68  SER68       0.2116
     38  OG        14.9550    5.4540  -19.5710 O.3    68  SER68      -0.2180
     39  N         16.5950    6.5760  -24.1150 N.3    70  MET70      -0.1245
     40  CA        17.7000    5.6790  -24.4050 C.3    70  MET70       0.1570
     41  C         18.5760    6.2010  -25.5380 C.2    70  MET70       0.2261
     42  O         18.0790    6.5160  -26.6220 O.2    70  MET70      -0.2867
     43  CB        17.0820    4.3240  -24.7860 C.3    70  MET70       0.0387
     44  CG        18.0150    3.2730  -25.1470 C.3    70  MET70       0.0595
     45  SD        17.1270    1.7870  -25.6670 S.3    70  MET70      -0.1393
     46  CE        15.8040    2.3550  -26.5640 C.3    70  MET70       0.0692
     47  N         25.7710   -1.2940  -25.8290 N.3    91  LYS91      -0.1231
     48  CA        24.5460   -1.3880  -26.6040 C.3    91  LYS91       0.1693
     49  C         23.6540   -0.1350  -26.4830 C.2    91  LYS91       0.2591
     50  O         23.2340    0.4380  -27.4730 O.2    91  LYS91      -0.2718
     51  CB        23.7250   -2.6140  -26.1910 C.3    91  LYS91       0.0285
     52  CG        24.4310   -3.9600  -26.4430 C.3    91  LYS91       0.0035
     53  CD        24.8370   -4.0560  -27.9330 C.3    91  LYS91       0.0206
     54  CE        25.1530   -5.4780  -28.3850 C.3    91  LYS91       0.1093
     55  NZ        24.9770   -5.5500  -29.8690 N.3    91  LYS91      -0.1314
     56  N         23.3370    0.2530  -25.2540 N.am   92  GLN92      -0.1979
     57  CA        22.4160    1.3640  -25.0140 C.3    92  GLN92       0.1601
     58  C         22.6530    1.9530  -23.6120 C.2    92  GLN92       0.2287
     59  O         23.2590    1.3130  -22.7600 O.2    92  GLN92      -0.2864
     60  CB        20.9630    0.9330  -25.2130 C.3    92  GLN92       0.0394
     61  CG        20.5010   -0.0860  -24.1970 C.3    92  GLN92       0.0908
     62  CD        19.4280    0.4440  -23.3020 C.2    92  GLN92       0.2608
     63  OE1       19.6200    1.4360  -22.6060 O.2    92  GLN92      -0.2717
     64  NE2       18.3200   -0.2080  -23.2920 N.am   92  GLN92      -0.0878
     65  N         20.3220    4.2180  -20.7220 N.3    94  HIS94      -0.1241
     66  CA        19.0240    4.8180  -20.3860 C.3    94  HIS94       0.1621
     67  C         19.0240    5.1650  -18.9000 C.2    94  HIS94       0.2264
     68  O         20.0230    4.9010  -18.1960 O.2    94  HIS94      -0.2867
     69  CB        17.8850    3.8750  -20.6780 C.3    94  HIS94       0.0745
     70  CG        17.9590    2.6060  -19.8920 C.ar   94  HIS94       0.0817
     71  ND1       18.4870    1.4430  -20.4100 N.ar   94  HIS94      -0.2268
     72  CD2       17.6250    2.3290  -18.6080 C.ar   94  HIS94       0.1154
     73  CE1       18.4380    0.4970  -19.4910 C.ar   94  HIS94       0.1986
     74  NE2       17.9220    1.0070  -18.3910 N.ar   94  HIS94      -0.2212
     75  N         16.5150    5.9110  -15.0800 N.3    96  HIS96      -0.1241
     76  CA        15.3290    5.7950  -14.2400 C.3    96  HIS96       0.1621
     77  C         15.3520    7.0200  -13.3200 C.2    96  HIS96       0.2264
     78  O         16.4090    7.4810  -12.9070 O.2    96  HIS96      -0.2867
     79  CB        15.3780    4.5140  -13.4120 C.3    96  HIS96       0.0745
     80  CG        15.6200    3.2830  -14.2300 C.ar   96  HIS96       0.0817
     81  ND1       14.5830    2.5380  -14.7400 N.ar   96  HIS96      -0.2268
     82  CD2       16.7640    2.7340  -14.7210 C.ar   96  HIS96       0.1154
     83  CE1       15.0710    1.5420  -15.4600 C.ar   96  HIS96       0.1986
     84  NE2       16.3890    1.6430  -15.4770 N.ar   96  HIS96      -0.2212
     85  N         21.8610    3.5560  -16.3940 N.3   119  HIS119     -0.1241
     86  CA        22.3080    2.2100  -16.7620 C.3   119  HIS119      0.1621
     87  C         22.9740    2.2040  -18.1210 C.2   119  HIS119      0.2264
     88  O         22.3370    2.5210  -19.1000 O.2   119  HIS119     -0.2867
     89  CB        21.1370    1.2440  -16.7830 C.3   119  HIS119      0.0745
     90  CG        20.5800    0.9490  -15.4360 C.ar  119  HIS119      0.0817
     91  ND1       19.2420    0.6640  -15.2360 N.ar  119  HIS119     -0.2268
     92  CD2       21.1790    0.8750  -14.2180 C.ar  119  HIS119      0.1154
     93  CE1       19.0430    0.4650  -13.9360 C.ar  119  HIS119      0.1986
     94  NE2       20.2030    0.5610  -13.3040 N.ar  119  HIS119     -0.2212
     95  N         24.2990   -0.3590  -20.7080 N.3   121  VAL121     -0.1245
     96  CA        24.0630   -1.7720  -20.9550 C.3   121  VAL121      0.1561
     97  C         25.0320   -2.2620  -22.0170 C.2   121  VAL121      0.2260
     98  O         25.1410   -1.6480  -23.1010 O.2   121  VAL121     -0.2867
     99  CB        22.6330   -2.0140  -21.4760 C.3   121  VAL121      0.0252
    100  CG1       22.3390   -3.5030  -21.6600 C.3   121  VAL121      0.0019
    101  CG2       21.6200   -1.3390  -20.5690 C.3   121  VAL121      0.0019
    102  N         24.9680  -10.0880  -20.1200 N.3   134  ILE134     -0.1245
    103  CA        24.8520   -8.6330  -20.1310 C.3   134  ILE134      0.1561
    104  C         25.5750   -8.0690  -18.9190 C.2   134  ILE134      0.2260
    105  O         25.5130   -8.6550  -17.8390 O.2   134  ILE134     -0.2867
    106  CB        23.3370   -8.2530  -20.1330 C.3   134  ILE134      0.0252
    107  CG1       22.7120   -8.7080  -21.4560 C.3   134  ILE134      0.0019
    108  CG2       23.1320   -6.7660  -19.9410 C.3   134  ILE134      0.0019
    109  CD1       21.2820   -8.2420  -21.6840 C.3   134  ILE134      0.0001
    110  N         25.6250   -4.5390  -16.8910 N.3   136  VAL136     -0.1245
    111  CA        25.1060   -3.1850  -16.7030 C.3   136  VAL136      0.1561
    112  C         25.9770   -2.4020  -15.7220 C.2   136  VAL136      0.2260
    113  O         26.3290   -2.8860  -14.6250 O.2   136  VAL136     -0.2867
    114  CB        23.6140   -3.1440  -16.2650 C.3   136  VAL136      0.0252
    115  CG1       23.1060   -1.6980  -16.2440 C.3   136  VAL136      0.0019
    116  CG2       22.7310   -3.8970  -17.2130 C.3   136  VAL136      0.0019
    117  N         17.6680   -8.3310  -15.6270 N.3   195  LEU195     -0.1231
    118  CA        17.1250   -7.0940  -16.1950 C.3   195  LEU195      0.1693
    119  C         16.0440   -6.5900  -15.2640 C.2   195  LEU195      0.2593
    120  O         15.3630   -7.3740  -14.5660 O.2   195  LEU195     -0.2718
    121  CB        16.5540   -7.2990  -17.5970 C.3   195  LEU195      0.0284
    122  CG        17.5280   -7.7840  -18.6770 C.3   195  LEU195      0.0019
    123  CD1       16.7250   -8.2410  -19.9020 C.3   195  LEU195      0.0001
    124  CD2       18.5170   -6.7140  -19.0480 C.3   195  LEU195      0.0001
    125  N         15.8570   -5.2850  -15.2210 N.am  196  THR196     -0.1939
    126  CA        14.8620   -4.7430  -14.3040 C.3   196  THR196      0.2028
    127  C         13.5540   -4.3670  -14.9640 C.2   196  THR196      0.2643
    128  O         12.7410   -3.6860  -14.3660 O.2   196  THR196     -0.2714
    129  CB        15.3790   -3.5260  -13.5200 C.3   196  THR196      0.1808
    130  OG1       15.5190   -2.3910  -14.4140 O.3   196  THR196     -0.2208
    131  CG2       16.7120   -3.8220  -12.8410 C.3   196  THR196      0.0379
    132  N         13.3760   -4.8020  -16.2000 N.am  197  THR197     -0.1937
    133  CA        12.0950   -4.7270  -16.8720 C.3   197  THR197      0.2013
    134  C         11.8400   -6.0790  -17.4610 C.2   197  THR197      0.2484
    135  O         12.7660   -6.8730  -17.5800 O.2   197  THR197     -0.2729
    136  CB        12.1290   -3.7200  -18.0080 C.3   197  THR197      0.1807
    137  OG1       13.0390   -4.1600  -19.0160 O.3   197  THR197     -0.2208
    138  CG2       12.6600   -2.4050  -17.5450 C.3   197  THR197      0.0379
    139  N         10.5970   -6.3500  -17.8400 N.am  198  PRO198     -0.2715
    140  CA        10.2790   -7.5910  -18.5600 C.3   198  PRO198      0.1536
    141  C         11.1830   -7.7350  -19.8240 C.2   198  PRO198      0.2599
    142  O         11.5490   -6.7170  -20.4420 O.2   198  PRO198     -0.2715
    143  CB         8.7890   -7.4200  -18.8860 C.3   198  PRO198      0.0310
    144  CG         8.2820   -6.5370  -17.8320 C.3   198  PRO198      0.0237
    145  CD         9.3830   -5.5480  -17.5860 C.3   198  PRO198      0.0939
    146  N         11.6620   -8.9340  -20.1330 N.am  199  THR199     -0.1951
    147  CA        11.2790  -10.1820  -19.4660 C.3   199  THR199      0.1897
    148  C         12.1130  -10.5790  -18.2300 C.2   199  THR199      0.2313
    149  O         12.0140  -11.7110  -17.7560 O.2   199  THR199     -0.2863
    150  CB        11.3380  -11.3310  -20.4990 C.3   199  THR199      0.1794
    151  OG1       12.5700  -11.2500  -21.2330 O.3   199  THR199     -0.2208
    152  CG2       10.2200  -11.1750  -21.5280 C.3   199  THR199      0.0378
    153  N         25.9950   -7.2080  -12.5670 N.3   206  TRP206     -0.1241
    154  CA        25.7460   -5.8350  -12.1420 C.3   206  TRP206      0.1605
    155  C         26.9590   -5.1810  -11.5010 C.2   206  TRP206      0.2264
    156  O         27.7120   -5.8160  -10.7380 O.2   206  TRP206     -0.2867
    157  CB        24.5660   -5.7580  -11.1490 C.3   206  TRP206      0.0550
    158  CG        23.2280   -5.7630  -11.7910 C.ar  206  TRP206      0.0003
    159  CD1       22.4120   -6.8400  -11.9380 C.ar  206  TRP206      0.0946
    160  CD2       22.5420   -4.6500  -12.3790 C.ar  206  TRP206      0.0152
    161  NE1       21.2700   -6.4730  -12.6150 N.ar  206  TRP206     -0.2442
    162  CE2       21.3090   -5.1290  -12.8750 C.ar  206  TRP206      0.0810
    163  CE3       22.8490   -3.2800  -12.5510 C.ar  206  TRP206      0.0012
    164  CZ2       20.3950   -4.3100  -13.5590 C.ar  206  TRP206      0.0191
    165  CZ3       21.9390   -2.4530  -13.1850 C.ar  206  TRP206      0.0001
    166  CH2       20.7070   -2.9600  -13.6800 C.ar  206  TRP206      0.0015
@<TRIPOS>BOND
     1    55    54    1
     2    54    53    1
     3    53    52    1
     4    50    49    2
     5    42    41    2
     6    48    49    1
     7    48    51    1
     8    48    47    1
     9    46    45    1
    10    49    56   am
    11    52    51    1
    12    16    19    1
    13    16    15    1
    14    16    17    1
    15    19    20    1
    16    45    44    1
    17    41    40    1
    18    56    57    1
    19    60    57    1
    20    60    61    1
    21    44    43    1
    22    17    18    2
    23    57    58    1
    24    43    40    1
    25    40    39    1
    26    20    22   am
    27    20    21    2
    28    61    62    1
    29    58    59    2
    30    62    64   am
    31    62    63    2
    32    98    97    2
    33    36    35    2
    34    32    30   ar
    35    32    31   ar
    36    30    28   ar
    37    97    96    1
    38    23    24    1
    39    35    34    1
    40   109   107    1
    41   100    99    1
    42   152   150    1
    43    31    29   ar
    44    99    96    1
    45    99   101    1
    46   107   106    1
    47    28    29   ar
    48    28    27    1
    49   151   150    1
    50     9     7   ar
    51     9    10   ar
    52    96    95    1
    53    33    34    1
    54    33    25   am
    55    65    66    1
    56     7     6   ar
    57    69    66    1
    58    69    70    1
    59    27    24    1
    60    24    25    1
    61     1     2    1
    62   150   147    1
    63    34    37    1
    64   142   141    2
    65    71    70   ar
    66    71    73   ar
    67    66    67    1
    68   146   141   am
    69   146   147    1
    70   106   103    1
    71   106   108    1
    72   103   102    1
    73   103   104    1
    74    37    38    1
    75    10    12   ar
    76    10     8   ar
    77    25    26    2
    78   123   122    1
    79    70    72   ar
    80    12    14   ar
    81   141   140    1
    82     4     3    2
    83     6     8   ar
    84     6     5    1
    85    73    74   ar
    86   147   148    1
    87     2     5    1
    88     2     3    1
    89    88    87    2
    90   124   122    1
    91     8    11   ar
    92   137   136    1
    93   104   105    2
    94    67    68    2
    95   143   140    1
    96   143   144    1
    97    14    13   ar
    98   122   121    1
    99    72    74   ar
   100   140   139    1
   101   148   149    2
   102    87    86    1
   103   136   138    1
   104   136   133    1
   105    11    13   ar
   106   139   145    1
   107   139   134   am
   108   144   145    1
   109   121   118    1
   110   135   134    2
   111   134   133    1
   112   116   114    1
   113   110   111    1
   114   133   132    1
   115    89    86    1
   116    89    90    1
   117    86    85    1
   118   111   114    1
   119   111   112    1
   120   114   115    1
   121   132   127   am
   122   118   117    1
   123   118   119    1
   124   112   113    2
   125    84    83   ar
   126    84    82   ar
   127    83    81   ar
   128    90    91   ar
   129    90    92   ar
   130   119   125   am
   131   119   120    2
   132    91    93   ar
   133   125   126    1
   134    75    76    1
   135   127   128    2
   136   127   126    1
   137    81    80   ar
   138    82    80   ar
   139   130   129    1
   140   126   129    1
   141    76    79    1
   142    76    77    1
   143    80    79    1
   144    92    94   ar
   145    93    94   ar
   146   166   164   ar
   147   166   165   ar
   148   164   162   ar
   149   129   131    1
   150    77    78    2
   151   165   163   ar
   152   162   161   ar
   153   162   160   ar
   154   161   159   ar
   155   153   154    1
   156   163   160   ar
   157   160   158   ar
   158   154   155    1
   159   154   157    1
   160   159   158   ar
   161   158   157    1
   162   155   156    2
