@<TRIPOS>MOLECULE
tmp/3fw4C00.pdb
 97 96 0 0 0
SMALL
GASTEIGER

@<TRIPOS>ATOM
      1  N         58.6570   41.8630   40.1940 N.3    36  ALA36      -0.1231
      2  CA        58.3890   40.6500   39.4200 C.3    36  ALA36       0.1694
      3  C         57.6330   40.9540   38.1210 C.2    36  ALA36       0.2591
      4  O         57.1610   40.0380   37.4510 O.2    36  ALA36      -0.2718
      5  CB        57.6000   39.6590   40.2620 C.3    36  ALA36       0.0304
      6  N         57.5150   42.2350   37.7730 N.am   37  ILE37      -0.1980
      7  CA        56.8910   42.6530   36.5210 C.3    37  ILE37       0.1595
      8  C         57.9850   42.9470   35.4990 C.2    37  ILE37       0.2287
      9  O         58.8830   43.7400   35.7610 O.2    37  ILE37      -0.2864
     10  CB        56.0290   43.9290   36.7020 C.3    37  ILE37       0.0276
     11  CG1       54.9470   43.7200   37.7670 C.3    37  ILE37       0.0022
     12  CG2       55.3870   44.3390   35.3780 C.3    37  ILE37       0.0022
     13  CD1       53.9330   42.6600   37.4150 C.3    37  ILE37       0.0001
     14  N         39.7160   37.7460   45.7630 N.3    77  ARG77      -0.1245
     15  CA        40.4290   37.9860   47.0160 C.3    77  ARG77       0.1563
     16  C         39.4730   38.6590   47.9960 C.2    77  ARG77       0.2260
     17  O         38.5350   39.3450   47.5820 O.2    77  ARG77      -0.2867
     18  CB        41.6320   38.9150   46.7900 C.3    77  ARG77       0.0307
     19  CG        42.6560   38.4500   45.7440 C.3    77  ARG77       0.0489
     20  CD        43.6880   37.5060   46.3410 C.3    77  ARG77       0.2205
     21  NE        44.7200   37.1130   45.3780 N.pl3  77  ARG77      -0.0865
     22  CZ        44.6110   36.1240   44.4900 C.cat  77  ARG77       0.5346
     23  NH1       43.5000   35.3940   44.4000 N.pl3  77  ARG77       0.1354
     24  NH2       45.6280   35.8610   43.6740 N.pl3  77  ARG77       0.1354
     25  N         50.9470   39.7300   53.2070 N.3   102  TYR102     -0.1241
     26  CA        50.2130   40.3940   52.1320 C.3   102  TYR102      0.1605
     27  C         49.7130   41.7550   52.6170 C.2   102  TYR102      0.2264
     28  O         48.9930   41.8320   53.6070 O.2   102  TYR102     -0.2867
     29  CB        49.0340   39.5270   51.6820 C.3   102  TYR102      0.0534
     30  CG        48.4140   39.9400   50.3650 C.ar  102  TYR102     -0.0201
     31  CD1       47.4450   40.9380   50.3090 C.ar  102  TYR102     -0.0009
     32  CD2       48.7870   39.3180   49.1760 C.ar  102  TYR102     -0.0009
     33  CE1       46.8670   41.3120   49.1010 C.ar  102  TYR102      0.0417
     34  CE2       48.2140   39.6790   47.9660 C.ar  102  TYR102      0.0417
     35  CZ        47.2560   40.6780   47.9340 C.ar  102  TYR102      0.1957
     36  OH        46.6910   41.0380   46.7350 O.3   102  TYR102     -0.2866
     37  N         51.0890   47.1470   46.4160 N.3   119  PHE119     -0.1227
     38  CA        50.9160   45.7980   46.9410 C.3   119  PHE119      0.1736
     39  C         52.2680   45.2600   47.3800 C.2   119  PHE119      0.2595
     40  O         53.2740   45.5060   46.7200 O.2   119  PHE119     -0.2718
     41  CB        50.3340   44.8640   45.8760 C.3   119  PHE119      0.0547
     42  CG        48.9760   45.2730   45.3790 C.ar  119  PHE119     -0.0202
     43  CD1       47.8300   44.6540   45.8580 C.ar  119  PHE119     -0.0042
     44  CD2       48.8440   46.2730   44.4260 C.ar  119  PHE119     -0.0042
     45  CE1       46.5750   45.0270   45.3990 C.ar  119  PHE119     -0.0003
     46  CE2       47.5930   46.6510   43.9630 C.ar  119  PHE119     -0.0003
     47  CZ        46.4570   46.0260   44.4500 C.ar  119  PHE119     -0.0000
     48  N         52.2880   44.5250   48.4880 N.am  120  LYS120     -0.1966
     49  CA        53.5050   43.8690   48.9580 C.3   120  LYS120      0.1728
     50  C         53.1670   42.5150   49.5680 C.2   120  LYS120      0.2616
     51  O         52.2710   42.4160   50.4090 O.2   120  LYS120     -0.2715
     52  CB        54.2240   44.7460   49.9860 C.3   120  LYS120      0.0311
     53  CG        55.6310   44.2680   50.3360 C.3   120  LYS120      0.0038
     54  CD        56.3690   45.2590   51.2320 C.3   120  LYS120      0.0206
     55  CE        55.8620   45.2300   52.6690 C.3   120  LYS120      0.1093
     56  NZ        56.0660   43.9010   53.3120 N.3   120  LYS120     -0.1314
     57  N         53.8810   41.4750   49.1450 N.am  121  LYS121     -0.1977
     58  CA        53.6830   40.1380   49.7010 C.3   121  LYS121      0.1596
     59  C         54.9940   39.3740   49.8510 C.2   121  LYS121      0.2287
     60  O         55.9850   39.6810   49.1880 O.2   121  LYS121     -0.2864
     61  CB        52.7000   39.3380   48.8380 C.3   121  LYS121      0.0298
     62  CG        53.2170   38.9510   47.4640 C.3   121  LYS121      0.0038
     63  CD        52.1670   38.1660   46.6920 C.3   121  LYS121      0.0206
     64  CE        52.6920   37.7210   45.3400 C.3   121  LYS121      0.1093
     65  NZ        51.6120   37.1630   44.4820 N.3   121  LYS121     -0.1314
     66  N         57.8750   40.2830   47.2100 N.3   128  TYR128     -0.1227
     67  CA        57.4540   40.9580   45.9890 C.3   128  TYR128      0.1736
     68  C         56.6930   42.2270   46.3250 C.2   128  TYR128      0.2595
     69  O         55.9790   42.2800   47.3240 O.2   128  TYR128     -0.2718
     70  CB        56.5340   40.0570   45.1660 C.3   128  TYR128      0.0548
     71  CG        57.1470   38.7400   44.7700 C.ar  128  TYR128     -0.0200
     72  CD1       56.8460   37.5710   45.4690 C.ar  128  TYR128     -0.0009
     73  CD2       58.0250   38.6590   43.6950 C.ar  128  TYR128     -0.0009
     74  CE1       57.4050   36.3580   45.1020 C.ar  128  TYR128      0.0417
     75  CE2       58.5910   37.4550   43.3250 C.ar  128  TYR128      0.0417
     76  CZ        58.2770   36.3080   44.0300 C.ar  128  TYR128      0.1957
     77  OH        58.8350   35.1090   43.6580 O.3   128  TYR128     -0.2866
     78  N         56.8490   43.2450   45.4820 N.am  129  PHE129     -0.1962
     79  CA        55.9890   44.4170   45.5310 C.3   129  PHE129      0.1771
     80  C         55.5890   44.8300   44.1210 C.2   129  PHE129      0.2619
     81  O         56.2960   44.5460   43.1500 O.2   129  PHE129     -0.2715
     82  CB        56.6550   45.5750   46.2890 C.3   129  PHE129      0.0574
     83  CG        57.7420   46.2860   45.5200 C.ar  129  PHE129     -0.0200
     84  CD1       59.0140   45.7390   45.4180 C.ar  129  PHE129     -0.0042
     85  CD2       57.5030   47.5240   44.9310 C.ar  129  PHE129     -0.0042
     86  CE1       60.0210   46.3990   44.7250 C.ar  129  PHE129     -0.0003
     87  CE2       58.5070   48.1890   44.2350 C.ar  129  PHE129     -0.0003
     88  CZ        59.7670   47.6220   44.1330 C.ar  129  PHE129     -0.0000
     89  N         54.4330   45.4720   44.0140 N.am  130  LYS130     -0.1977
     90  CA        53.9990   46.0510   42.7560 C.3   130  LYS130      0.1596
     91  C         53.1420   47.2880   42.9850 C.2   130  LYS130      0.2287
     92  O         52.6210   47.5030   44.0810 O.2   130  LYS130     -0.2864
     93  CB        53.2540   45.0190   41.9040 C.3   130  LYS130      0.0298
     94  CG        51.9460   44.5060   42.4770 C.3   130  LYS130      0.0038
     95  CD        51.2460   43.6040   41.4720 C.3   130  LYS130      0.0206
     96  CE        49.8490   43.2110   41.9370 C.3   130  LYS130      0.1093
     97  NZ        49.2300   42.2030   41.0250 N.3   130  LYS130     -0.1314
@<TRIPOS>BOND
     1    12    10    1
     2     8     9    2
     3     8     7    1
     4     7    10    1
     5     7     6    1
     6    10    11    1
     7    13    11    1
     8     4     3    2
     9     6     3   am
    10     3     2    1
    11     2     1    1
    12     2     5    1
    13    97    96    1
    14    95    96    1
    15    95    94    1
    16    93    94    1
    17    93    90    1
    18    90    91    1
    19    90    89    1
    20    91    92    2
    21    81    80    2
    22    75    73   ar
    23    75    76   ar
    24    77    76    1
    25    24    22    1
    26    73    71   ar
    27    46    44   ar
    28    46    47   ar
    29    89    80   am
    30    76    74   ar
    31    80    79    1
    32    88    87   ar
    33    88    86   ar
    34    87    85   ar
    35    23    22    1
    36    44    42   ar
    37    47    45   ar
    38    65    64    1
    39    22    21    2
    40    86    84   ar
    41    71    70    1
    42    71    72   ar
    43    85    83   ar
    44    74    72   ar
    45    70    67    1
    46    64    63    1
    47    21    20    1
    48    42    43   ar
    49    42    41    1
    50    45    43   ar
    51    84    83   ar
    52    78    79    1
    53    78    68   am
    54    83    82    1
    55    79    82    1
    56    19    20    1
    57    19    18    1
    58    14    15    1
    59    41    38    1
    60    67    68    1
    61    67    66    1
    62    68    69    2
    63    37    38    1
    64    63    62    1
    65    40    39    2
    66    36    35    1
    67    18    15    1
    68    38    39    1
    69    15    16    1
    70    39    48   am
    71    62    61    1
    72    17    16    2
    73    35    34   ar
    74    35    33   ar
    75    34    32   ar
    76    48    49    1
    77    61    58    1
    78    49    50    1
    79    49    52    1
    80    33    31   ar
    81    57    50   am
    82    57    58    1
    83    32    30   ar
    84    60    59    2
    85    50    51    2
    86    58    59    1
    87    52    53    1
    88    31    30   ar
    89    53    54    1
    90    30    29    1
    91    54    55    1
    92    29    26    1
    93    26    27    1
    94    26    25    1
    95    27    28    2
    96    55    56    1
