@<TRIPOS>MOLECULE
tmp/3fw9A01.pdb
 204 196 0 0 0
SMALL
GASTEIGER

@<TRIPOS>ATOM
      1  N        -30.2360   -3.6480  -20.5940 N.3    81  TYR81      -0.1241
      2  CA       -31.2840   -4.6370  -20.3940 C.3    81  TYR81       0.1605
      3  C        -31.9720   -4.9950  -21.7090 C.2    81  TYR81       0.2264
      4  O        -32.5640   -6.0680  -21.8350 O.2    81  TYR81      -0.2867
      5  CB       -32.3240   -4.1240  -19.3970 C.3    81  TYR81       0.0534
      6  CG       -31.8360   -4.0220  -17.9660 C.ar   81  TYR81      -0.0201
      7  CD1      -30.7020   -4.7090  -17.5350 C.ar   81  TYR81      -0.0009
      8  CD2      -32.5380   -3.2730  -17.0380 C.ar   81  TYR81      -0.0009
      9  CE1      -30.2660   -4.6230  -16.2170 C.ar   81  TYR81       0.0417
     10  CE2      -32.1150   -3.1880  -15.7230 C.ar   81  TYR81       0.0417
     11  CZ       -30.9800   -3.8600  -15.3210 C.ar   81  TYR81       0.1957
     12  OH       -30.5670   -3.7770  -14.0110 O.3    81  TYR81      -0.2866
     13  N        -24.0700   -2.3130   -7.8180 N.3   140  TRP140     -0.1227
     14  CA       -23.7630   -3.5270   -7.0800 C.3   140  TRP140      0.1737
     15  C        -23.1110   -4.5840   -7.9890 C.2   140  TRP140      0.2595
     16  O        -22.2420   -5.3400   -7.5460 O.2   140  TRP140     -0.2718
     17  CB       -25.0850   -4.0050   -6.4590 C.3   140  TRP140      0.0564
     18  CG       -25.1170   -5.2880   -5.6950 C.ar  140  TRP140      0.0003
     19  CD1      -24.8790   -5.4620   -4.3590 C.ar  140  TRP140      0.0946
     20  CD2      -25.4940   -6.5710   -6.2060 C.ar  140  TRP140      0.0152
     21  NE1      -25.0560   -6.7840   -4.0180 N.ar  140  TRP140     -0.2442
     22  CE2      -25.4330   -7.4850   -5.1340 C.ar  140  TRP140      0.0810
     23  CE3      -25.8620   -7.0380   -7.4730 C.ar  140  TRP140      0.0012
     24  CZ2      -25.7240   -8.8430   -5.2900 C.ar  140  TRP140      0.0191
     25  CZ3      -26.1520   -8.3830   -7.6270 C.ar  140  TRP140      0.0001
     26  CH2      -26.0780   -9.2710   -6.5420 C.ar  140  TRP140      0.0015
     27  N        -23.5100   -4.6220   -9.2630 N.am  141  CYS141     -0.1970
     28  CA       -22.9740   -5.6130  -10.2060 C.3   141  CYS141      0.1712
     29  C        -21.5930   -5.2020  -10.7340 C.2   141  CYS141      0.2296
     30  O        -21.4590   -4.1640  -11.3720 O.2   141  CYS141     -0.2864
     31  CB       -23.9310   -5.7920  -11.3960 C.3   141  CYS141      0.0983
     32  SG       -25.6450   -6.3090  -11.0370 S.3   141  CYS141     -0.0798
     33  N        -27.0410    3.7110   -9.1680 N.3   155  PHE155     -0.1227
     34  CA       -27.4810    3.5660   -7.7810 C.3   155  PHE155      0.1736
     35  C        -26.8770    2.3190   -7.1530 C.2   155  PHE155      0.2596
     36  O        -26.7960    1.2680   -7.7850 O.2   155  PHE155     -0.2718
     37  CB       -29.0160    3.4750   -7.7290 C.3   155  PHE155      0.0547
     38  CG       -29.5760    3.3950   -6.3310 C.ar  155  PHE155     -0.0202
     39  CD1      -30.0160    4.5410   -5.6920 C.ar  155  PHE155     -0.0042
     40  CD2      -29.6630    2.1800   -5.6620 C.ar  155  PHE155     -0.0042
     41  CE1      -30.5410    4.4830   -4.4070 C.ar  155  PHE155     -0.0003
     42  CE2      -30.1850    2.1120   -4.3660 C.ar  155  PHE155     -0.0003
     43  CZ       -30.6200    3.2680   -3.7420 C.ar  155  PHE155     -0.0000
     44  N        -26.4550    2.4240   -5.9010 N.am  156  GLY156     -0.1942
     45  CA       -25.8820    1.2790   -5.2240 C.3   156  GLY156      0.2014
     46  C        -25.9750    1.3510   -3.7130 C.2   156  GLY156      0.2638
     47  O        -26.7070    2.1740   -3.1580 O.2   156  GLY156     -0.2714
     48  N        -25.2050    0.4940   -3.0530 N.am  157  MET157     -0.1976
     49  CA       -25.3260    0.2860   -1.6130 C.3   157  MET157      0.1605
     50  C        -24.8800    1.4730   -0.7670 C.2   157  MET157      0.2287
     51  O        -25.1500    1.5030    0.4330 O.2   157  MET157     -0.2864
     52  CB       -24.5510   -0.9600   -1.1890 C.3   157  MET157      0.0413
     53  CG       -25.1800   -2.2740   -1.6460 C.3   157  MET157      0.0598
     54  SD       -26.7580   -2.6700   -0.8500 S.3   157  MET157     -0.1393
     55  CE       -26.2730   -2.9520    0.8530 C.3   157  MET157      0.0692
     56  N        -30.8690   -3.7330    2.1940 N.3   255  SER255     -0.1202
     57  CA       -31.5600   -4.0860    0.9560 C.3   255  SER255      0.2020
     58  C        -31.9010   -5.5670    0.9270 C.2   255  SER255      0.2619
     59  O        -31.4060   -6.3370    1.7560 O.2   255  SER255     -0.2717
     60  CB       -30.6950   -3.7030   -0.2380 C.3   255  SER255      0.2103
     61  OG       -30.5340   -2.2920   -0.2670 O.3   255  SER255     -0.2182
     62  N        -32.7550   -5.9750   -0.0100 N.am  256  VAL256     -0.1965
     63  CA       -33.2240   -7.3600   -0.0450 C.3   256  VAL256      0.1727
     64  C        -33.2420   -7.9400   -1.4550 C.2   256  VAL256      0.2616
     65  O        -33.6380   -7.2710   -2.4140 O.2   256  VAL256     -0.2715
     66  CB       -34.6560   -7.4900    0.5230 C.3   256  VAL256      0.0290
     67  CG1      -35.0290   -8.9620    0.7460 C.3   256  VAL256      0.0023
     68  CG2      -34.7970   -6.7010    1.8150 C.3   256  VAL256      0.0023
     69  N        -32.8050   -9.1870   -1.5690 N.am  257  LEU257     -0.1977
     70  CA       -33.0850  -10.0070   -2.7440 C.3   257  LEU257      0.1596
     71  C        -34.0490  -11.0980   -2.3040 C.2   257  LEU257      0.2287
     72  O        -33.8420  -11.7260   -1.2680 O.2   257  LEU257     -0.2864
     73  CB       -31.8020  -10.6340   -3.2830 C.3   257  LEU257      0.0297
     74  CG       -30.8020   -9.6720   -3.9200 C.3   257  LEU257      0.0022
     75  CD1      -29.4640  -10.3630   -4.1400 C.3   257  LEU257      0.0001
     76  CD2      -31.3600   -9.1590   -5.2370 C.3   257  LEU257      0.0001
     77  N        -29.1960   -7.8240    2.7030 N.3   270  LEU270     -0.1245
     78  CA       -27.8980   -7.2290    2.4170 C.3   270  LEU270      0.1561
     79  C        -27.7370   -5.9690    3.2430 C.2   270  LEU270      0.2260
     80  O        -28.4330   -4.9750    3.0210 O.2   270  LEU270     -0.2867
     81  CB       -27.8020   -6.8730    0.9350 C.3   270  LEU270      0.0270
     82  CG       -28.0040   -8.0380   -0.0330 C.3   270  LEU270      0.0019
     83  CD1      -28.1840   -7.5280   -1.4600 C.3   270  LEU270      0.0001
     84  CD2      -26.8380   -8.9980    0.0520 C.3   270  LEU270      0.0001
     85  N        -20.8050  -13.2680  -14.1920 N.3   326  PHE326     -0.1227
     86  CA       -21.5450  -12.9550  -12.9770 C.3   326  PHE326      0.1736
     87  C        -22.8590  -13.7280  -12.9280 C.2   326  PHE326      0.2595
     88  O        -23.1950  -14.3360  -11.9130 O.2   326  PHE326     -0.2718
     89  CB       -21.7960  -11.4470  -12.8720 C.3   326  PHE326      0.0547
     90  CG       -22.3930  -11.0200  -11.5600 C.ar  326  PHE326     -0.0202
     91  CD1      -23.6920  -10.5410  -11.4980 C.ar  326  PHE326     -0.0042
     92  CD2      -21.6560  -11.1030  -10.3850 C.ar  326  PHE326     -0.0042
     93  CE1      -24.2490  -10.1450  -10.2940 C.ar  326  PHE326     -0.0003
     94  CE2      -22.2050  -10.7090   -9.1750 C.ar  326  PHE326     -0.0003
     95  CZ       -23.5030  -10.2310   -9.1280 C.ar  326  PHE326     -0.0000
     96  N        -23.5900  -13.7100  -14.0380 N.am  327  ASP327     -0.1974
     97  CA       -24.8590  -14.4260  -14.1540 C.3   327  ASP327      0.1709
     98  C        -25.1370  -14.6610  -15.6350 C.2   327  ASP327      0.2293
     99  O        -25.4790  -13.7300  -16.3610 O.2   327  ASP327     -0.2864
    100  CB       -25.9910  -13.6150  -13.5110 C.3   327  ASP327      0.1436
    101  CG       -27.2940  -14.3950  -13.4130 C.2   327  ASP327      0.3671
    102  OD1      -27.4410  -15.4030  -14.1310 O.co2 327  ASP327     -0.2456
    103  OD2      -28.1750  -13.9990  -12.6210 O.co2 327  ASP327     -0.2456
    104  N        -27.4710  -15.9550  -17.3960 N.3   329  ARG329     -0.1245
    105  CA       -28.8450  -16.2330  -17.8050 C.3   329  ARG329      0.1563
    106  C        -29.4540  -15.1170  -18.6460 C.2   329  ARG329      0.2260
    107  O        -29.2000  -13.9370  -18.4140 O.2   329  ARG329     -0.2867
    108  CB       -29.7190  -16.4760  -16.5700 C.3   329  ARG329      0.0307
    109  CG       -29.4150  -17.7840  -15.8560 C.3   329  ARG329      0.0489
    110  CD       -29.2880  -17.5720  -14.3620 C.3   329  ARG329      0.2205
    111  NE       -30.5730  -17.4140  -13.6970 N.pl3 329  ARG329     -0.0865
    112  CZ       -30.7560  -16.6870  -12.5990 C.cat 329  ARG329      0.5346
    113  NH1      -31.9550  -16.6030  -12.0510 N.pl3 329  ARG329      0.1354
    114  NH2      -29.7430  -16.0340  -12.0530 N.pl3 329  ARG329      0.1354
    115  N        -32.4780  -12.7540  -19.4080 N.3   331  PHE331     -0.1241
    116  CA       -33.4180  -12.1930  -18.4510 C.3   331  PHE331      0.1605
    117  C        -34.2330  -11.0410  -19.0100 C.2   331  PHE331      0.2264
    118  O        -33.8560  -10.4060  -19.9980 O.2   331  PHE331     -0.2867
    119  CB       -32.6910  -11.7390  -17.1770 C.3   331  PHE331      0.0534
    120  CG       -31.7740  -10.5650  -17.3850 C.ar  331  PHE331     -0.0203
    121  CD1      -32.2000   -9.2700  -17.1140 C.ar  331  PHE331     -0.0042
    122  CD2      -30.4790  -10.7560  -17.8480 C.ar  331  PHE331     -0.0042
    123  CE1      -31.3460   -8.1880  -17.3080 C.ar  331  PHE331     -0.0003
    124  CE2      -29.6230   -9.6870  -18.0430 C.ar  331  PHE331     -0.0003
    125  CZ       -30.0540   -8.3980  -17.7730 C.ar  331  PHE331     -0.0000
    126  N        -36.4400   -7.6850  -17.0880 N.3   333  THR333     -0.1218
    127  CA       -36.6520   -7.0600  -15.8020 C.3   333  THR333      0.1862
    128  C        -37.5090   -5.8160  -15.9630 C.2   333  THR333      0.2287
    129  O        -37.5440   -5.2080  -17.0340 O.2   333  THR333     -0.2866
    130  CB       -35.3020   -6.7270  -15.1270 C.3   333  THR333      0.1770
    131  OG1      -35.5320   -6.0070  -13.9140 O.3   333  THR333     -0.2211
    132  CG2      -34.4190   -5.8980  -16.0480 C.3   333  THR333      0.0375
    133  N        -37.2730  -13.3010   -9.3890 N.3   361  PHE361     -0.1241
    134  CA       -36.7950  -12.7620   -8.1240 C.3   361  PHE361      0.1605
    135  C        -37.0260  -11.2600   -8.0510 C.2   361  PHE361      0.2264
    136  O        -37.3320  -10.6170   -9.0610 O.2   361  PHE361     -0.2867
    137  CB       -35.3380  -13.1680   -7.8140 C.3   361  PHE361      0.0534
    138  CG       -34.2920  -12.5720   -8.7330 C.ar  361  PHE361     -0.0203
    139  CD1      -33.6350  -11.3950   -8.3930 C.ar  361  PHE361     -0.0042
    140  CD2      -33.9230  -13.2250   -9.9020 C.ar  361  PHE361     -0.0042
    141  CE1      -32.6520  -10.8580   -9.2260 C.ar  361  PHE361     -0.0003
    142  CE2      -32.9420  -12.6960  -10.7370 C.ar  361  PHE361     -0.0003
    143  CZ       -32.3070  -11.5140  -10.3960 C.ar  361  PHE361     -0.0000
    144  N        -35.5860   -7.4160   -6.2570 N.3   363  ALA363     -0.1231
    145  CA       -34.5450   -6.6870   -5.5500 C.3   363  ALA363      0.1694
    146  C        -35.1780   -5.4310   -4.9800 C.2   363  ALA363      0.2592
    147  O        -35.8270   -4.6760   -5.7050 O.2   363  ALA363     -0.2718
    148  CB       -33.3880   -6.3400   -6.4830 C.3   363  ALA363      0.0304
    149  N        -35.0140   -5.2250   -3.6770 N.am  364  LEU364     -0.1966
    150  CA       -35.6610   -4.1150   -2.9810 C.3   364  LEU364      0.1728
    151  C        -34.6470   -3.1570   -2.3610 C.2   364  LEU364      0.2616
    152  O        -33.7500   -3.5760   -1.6240 O.2   364  LEU364     -0.2715
    153  CB       -36.5790   -4.6530   -1.8770 C.3   364  LEU364      0.0311
    154  CG       -37.6410   -5.6730   -2.2980 C.3   364  LEU364      0.0022
    155  CD1      -38.3220   -6.2610   -1.0600 C.3   364  LEU364      0.0001
    156  CD2      -38.6540   -5.0440   -3.2280 C.3   364  LEU364      0.0001
    157  N        -34.8140   -1.8650   -2.6380 N.am  365  ASN365     -0.1972
    158  CA       -33.9340   -0.8270   -2.1020 C.3   365  ASN365      0.1688
    159  C        -34.7250    0.3380   -1.5700 C.2   365  ASN365      0.2292
    160  O        -35.7080    0.7610   -2.1780 O.2   365  ASN365     -0.2864
    161  CB       -33.0140   -0.2920   -3.2000 C.3   365  ASN365      0.1181
    162  CG       -31.7890   -1.1440   -3.3940 C.2   365  ASN365      0.2629
    163  OD1      -30.8640   -1.1150   -2.5800 O.2   365  ASN365     -0.2716
    164  ND2      -31.7630   -1.8960   -4.4810 N.am  365  ASN365     -0.0877
    165  N        -37.2430    1.6070   -4.3800 N.3   390  MET390     -0.1245
    166  CA       -37.0890    1.0880   -5.7320 C.3   390  MET390      0.1570
    167  C        -37.3010   -0.4230   -5.6680 C.2   390  MET390      0.2261
    168  O        -36.7050   -1.1100   -4.8340 O.2   390  MET390     -0.2867
    169  CB       -35.7070    1.4070   -6.2970 C.3   390  MET390      0.0387
    170  CG       -35.5270    0.9410   -7.7370 C.3   390  MET390      0.0595
    171  SD       -34.2130    1.8000   -8.6330 S.3   390  MET390     -0.1393
    172  CE       -32.7860    1.2380   -7.7160 C.3   390  MET390      0.0692
    173  N        -37.4090   -3.8850   -7.9940 N.3   392  GLU392     -0.1245
    174  CA       -37.0680   -4.5120   -9.2690 C.3   392  GLU392      0.1567
    175  C        -37.6420   -5.9260   -9.3330 C.2   392  GLU392      0.2260
    176  O        -37.5620   -6.6750   -8.3550 O.2   392  GLU392     -0.2867
    177  CB       -35.5450   -4.5430   -9.4570 C.3   392  GLU392      0.0388
    178  CG       -34.8740   -3.1720   -9.4050 C.3   392  GLU392      0.1160
    179  CD       -33.3590   -3.2680   -9.3810 C.2   392  GLU392      0.3649
    180  OE1      -32.7710   -3.6860  -10.4010 O.co2 392  GLU392     -0.2457
    181  OE2      -32.7550   -2.9180   -8.3440 O.co2 392  GLU392     -0.2457
    182  N        -37.4870   -9.4220  -11.6880 N.3   394  ILE394     -0.1245
    183  CA       -36.6230  -10.0400  -12.6850 C.3   394  ILE394      0.1561
    184  C        -37.0680  -11.4680  -12.9130 C.2   394  ILE394      0.2260
    185  O        -37.4200  -12.1720  -11.9690 O.2   394  ILE394     -0.2867
    186  CB       -35.1500  -10.0880  -12.2180 C.3   394  ILE394      0.0252
    187  CG1      -34.6320   -8.6990  -11.8350 C.3   394  ILE394      0.0019
    188  CG2      -34.2550  -10.6850  -13.3060 C.3   394  ILE394      0.0019
    189  CD1      -34.9180   -8.3000  -10.3960 C.3   394  ILE394      0.0001
    190  N        -35.3800  -14.8390  -15.0260 N.3   396  ALA396     -0.1245
    191  CA       -34.1360  -15.2270  -15.6840 C.3   396  ALA396      0.1562
    192  C        -34.1120  -16.7300  -15.9020 C.2   396  ALA396      0.2260
    193  O        -34.7020  -17.4880  -15.1280 O.2   396  ALA396     -0.2867
    194  CB       -32.9370  -14.7970  -14.8440 C.3   396  ALA396      0.0290
    195  N        -32.6340    1.3580  -16.1840 N.3   434  HIS434     -0.1241
    196  CA       -33.5080    0.1900  -16.2610 C.3   434  HIS434      0.1621
    197  C        -34.4220    0.3700  -17.4560 C.2   434  HIS434      0.2264
    198  O        -35.6380    0.1920  -17.3760 O.2   434  HIS434     -0.2867
    199  CB       -34.3150    0.0020  -14.9760 C.3   434  HIS434      0.0745
    200  CG       -33.4750   -0.2970  -13.7720 C.ar  434  HIS434      0.0817
    201  ND1      -32.1310   -0.5900  -13.8540 N.ar  434  HIS434     -0.2268
    202  CD2      -33.7960   -0.3720  -12.4590 C.ar  434  HIS434      0.1154
    203  CE1      -31.6560   -0.8160  -12.6420 C.ar  434  HIS434      0.1986
    204  NE2      -32.6470   -0.6930  -11.7780 N.ar  434  HIS434     -0.2212
@<TRIPOS>BOND
     1     4     3    2
     2     3     2    1
     3     1     2    1
     4     2     5    1
     5   118   117    2
     6   115   116    1
     7     5     6    1
     8   117   116    1
     9   106   107    2
    10   106   105    1
    11   116   119    1
    12   124   122   ar
    13   124   125   ar
    14     6     7   ar
    15     6     8   ar
    16   122   120   ar
    17   105   104    1
    18   105   108    1
    19   125   123   ar
    20     7     9   ar
    21   197   198    2
    22   197   196    1
    23   120   119    1
    24   120   121   ar
    25   123   121   ar
    26   126   127    1
    27     8    10   ar
    28   129   128    2
    29   108   109    1
    30    99    98    2
    31   196   195    1
    32   196   199    1
    33     9    11   ar
    34   132   130    1
    35   128   127    1
    36   192   191    1
    37   192   193    2
    38   109   110    1
    39   127   130    1
    40    10    11   ar
    41   191   190    1
    42   191   194    1
    43    98    97    1
    44    11    12    1
    45   130   131    1
    46   199   200    1
    47   110   111    1
    48    85    86    1
    49    97    96    1
    50    97   100    1
    51   102   101   ar
    52    96    87   am
    53   201   200   ar
    54   201   203   ar
    55   200   202   ar
    56   111   112    2
    57   100   101    1
    58   101   103   ar
    59   188   186    1
    60    86    87    1
    61    86    89    1
    62    87    88    2
    63   184   183    1
    64   184   185    2
    65    89    90    1
    66   183   186    1
    67   183   182    1
    68   203   204   ar
    69   112   114    1
    70   112   113    1
    71   202   204   ar
    72   186   187    1
    73   187   189    1
    74    90    91   ar
    75    90    92   ar
    76    91    93   ar
    77    31    32    1
    78    31    28    1
    79    30    29    2
    80   142   143   ar
    81   142   140   ar
    82    29    28    1
    83   180   179   ar
    84   143   141   ar
    85    92    94   ar
    86    93    95   ar
    87    28    27    1
    88   140   138   ar
    89   177   178    1
    90   177   174    1
    91   178   179    1
    92   133   134    1
    93   179   181   ar
    94   175   174    1
    95   175   176    2
    96   174   173    1
    97    27    15   am
    98   141   139   ar
    99    94    95   ar
   100    33    34    1
   101   136   135    2
   102   138   139   ar
   103   138   137    1
   104   171   170    1
   105   171   172    1
   106   134   135    1
   107   134   137    1
   108    15    16    2
   109    15    14    1
   110    13    14    1
   111    36    35    2
   112    34    37    1
   113    34    35    1
   114   170   169    1
   115    37    38    1
   116    25    23   ar
   117    25    26   ar
   118    23    20   ar
   119    35    44   am
   120    14    17    1
   121    26    24   ar
   122   148   145    1
   123    17    18    1
   124    38    39   ar
   125    38    40   ar
   126   169   166    1
   127   144   145    1
   128    20    18   ar
   129    20    22   ar
   130    44    45    1
   131   166   167    1
   132   166   165    1
   133   147   146    2
   134    18    19   ar
   135    39    41   ar
   136   167   168    2
   137    40    42   ar
   138   145   146    1
   139    24    22   ar
   140    76    74    1
   141    45    46    1
   142    22    21   ar
   143   146   149   am
   144   164   162   am
   145    41    43   ar
   146    42    43   ar
   147    19    21   ar
   148    75    74    1
   149    74    73    1
   150    46    47    2
   151    46    48   am
   152   149   150    1
   153   162   161    1
   154   162   163    2
   155    73    70    1
   156   156   154    1
   157   161   158    1
   158    48    49    1
   159   150   151    1
   160   150   153    1
   161    70    71    1
   162    70    69    1
   163   157   151   am
   164   157   158    1
   165    65    64    2
   166   151   152    2
   167    71    72    2
   168   154   153    1
   169   154   155    1
   170   160   159    2
   171   158   159    1
   172    53    52    1
   173    53    54    1
   174    49    52    1
   175    49    50    1
   176    69    64   am
   177    83    82    1
   178    64    63    1
   179    54    55    1
   180    50    51    2
   181    61    60    1
   182    60    57    1
   183    63    62    1
   184    63    66    1
   185    82    84    1
   186    82    81    1
   187    62    58   am
   188    66    67    1
   189    66    68    1
   190    58    57    1
   191    58    59    2
   192    81    78    1
   193    57    56    1
   194    78    77    1
   195    78    79    1
   196    80    79    2
