@<TRIPOS>MOLECULE
tmp/3fwlA00.pdb
 208 195 0 0 0
SMALL
GASTEIGER

@<TRIPOS>ATOM
      1  N         53.6250  128.1950   17.6720 N.3   161  GLU161     -0.1245
      2  CA        52.6010  129.0170   18.3090 C.3   161  GLU161      0.1567
      3  C         52.2260  128.4110   19.6600 C.2   161  GLU161      0.2260
      4  O         51.0580  128.1200   19.9270 O.2   161  GLU161     -0.2867
      5  CB        51.3680  129.1670   17.4140 C.3   161  GLU161      0.0388
      6  CG        50.9710  127.9030   16.6730 C.3   161  GLU161      0.1160
      7  CD        51.6680  127.7640   15.3340 C.2   161  GLU161      0.3649
      8  OE1       51.5530  128.6860   14.4970 O.co2 161  GLU161     -0.2457
      9  OE2       52.3240  126.7260   15.1140 O.co2 161  GLU161     -0.2457
     10  N         54.0110  141.7280   19.8320 N.3   174  TYR174     -0.1241
     11  CA        54.2000  142.3520   18.5260 C.3   174  TYR174      0.1605
     12  C         54.6420  143.8030   18.6370 C.2   174  TYR174      0.2264
     13  O         54.0050  144.6140   19.3090 O.2   174  TYR174     -0.2867
     14  CB        52.9400  142.2420   17.6650 C.3   174  TYR174      0.0534
     15  CG        53.0830  141.2650   16.5200 C.ar  174  TYR174     -0.0201
     16  CD1       54.0650  141.4430   15.5530 C.ar  174  TYR174     -0.0009
     17  CD2       52.2350  140.1710   16.3970 C.ar  174  TYR174     -0.0009
     18  CE1       54.2040  140.5570   14.4990 C.ar  174  TYR174      0.0417
     19  CE2       52.3650  139.2780   15.3440 C.ar  174  TYR174      0.0417
     20  CZ        53.3510  139.4770   14.3990 C.ar  174  TYR174      0.1957
     21  OH        53.4880  138.5960   13.3500 O.3   174  TYR174     -0.2866
     22  N         49.6040  134.5540   16.5830 N.3   177  LEU177     -0.1245
     23  CA        48.8630  134.2410   17.7990 C.3   177  LEU177      0.1561
     24  C         48.8830  132.7490   18.1080 C.2   177  LEU177      0.2260
     25  O         49.5100  131.9650   17.3950 O.2   177  LEU177     -0.2867
     26  CB        47.4200  134.7390   17.6910 C.3   177  LEU177      0.0270
     27  CG        47.1180  136.0930   18.3380 C.3   177  LEU177      0.0019
     28  CD1       46.8330  135.9220   19.8250 C.3   177  LEU177      0.0001
     29  CD2       48.2550  137.0870   18.1060 C.3   177  LEU177      0.0001
     30  N         44.4350  129.2150   16.5500 N.3   180  GLN180     -0.1245
     31  CA        43.6570  130.0740   15.6780 C.3   180  GLN180      0.1566
     32  C         42.6080  129.2410   14.9560 C.2   180  GLN180      0.2260
     33  O         42.0850  129.6450   13.9210 O.2   180  GLN180     -0.2867
     34  CB        44.5720  130.7720   14.6690 C.3   180  GLN180      0.0367
     35  CG        45.4120  129.8300   13.8050 C.3   180  GLN180      0.0905
     36  CD        46.7100  129.3900   14.4680 C.2   180  GLN180      0.2608
     37  OE1       47.7930  129.8290   14.0850 O.2   180  GLN180     -0.2717
     38  NE2       46.6060  128.5170   15.4610 N.am  180  GLN180     -0.0878
     39  N         39.6250  130.9120   13.8180 N.3   183  LYS183     -0.1231
     40  CA        39.7570  131.6830   12.5840 C.3   183  LYS183      0.1693
     41  C         39.0800  131.0420   11.3670 C.2   183  LYS183      0.2592
     42  O         38.0340  131.5110   10.9230 O.2   183  LYS183     -0.2718
     43  CB        41.2370  131.9580   12.3040 C.3   183  LYS183      0.0285
     44  CG        41.5320  132.6780   11.0040 C.3   183  LYS183      0.0035
     45  CD        43.0310  132.8730   10.8480 C.3   183  LYS183      0.0206
     46  CE        43.3980  133.2490    9.4310 C.3   183  LYS183      0.1093
     47  NZ        44.8700  133.2240    9.2470 N.3   183  LYS183     -0.1314
     48  N         39.6720  129.9750   10.8330 N.am  184  ASN184     -0.1974
     49  CA        39.1500  129.3390    9.6180 C.3   184  ASN184      0.1688
     50  C         38.1180  128.2380    9.8650 C.2   184  ASN184      0.2292
     51  O         38.0980  127.2220    9.1650 O.2   184  ASN184     -0.2864
     52  CB        40.2910  128.8070    8.7380 C.3   184  ASN184      0.1181
     53  CG        41.3080  127.9950    9.5210 C.2   184  ASN184      0.2629
     54  OD1       41.2700  127.9510   10.7500 O.2   184  ASN184     -0.2716
     55  ND2       42.2330  127.3550    8.8080 N.am  184  ASN184     -0.0877
     56  N         38.1080  139.7450    5.1680 N.3   190  GLU190     -0.1231
     57  CA        39.5140  139.4110    5.3610 C.3   190  GLU190      0.1699
     58  C         40.0840  140.0180    6.6440 C.2   190  GLU190      0.2592
     59  O         39.6090  139.7290    7.7410 O.2   190  GLU190     -0.2718
     60  CB        40.3380  139.8290    4.1380 C.3   190  GLU190      0.0402
     61  CG        41.5690  138.9640    3.8870 C.3   190  GLU190      0.1161
     62  CD        42.1170  139.1130    2.4760 C.2   190  GLU190      0.3649
     63  OE1       41.7970  140.1230    1.8140 O.co2 190  GLU190     -0.2457
     64  OE2       42.8660  138.2180    2.0300 O.co2 190  GLU190     -0.2457
     65  N         41.0970  140.8630    6.4940 N.am  191  ARG191     -0.1966
     66  CA        41.8310  141.4070    7.6330 C.3   191  ARG191      0.1729
     67  C         40.9590  142.0350    8.7230 C.2   191  ARG191      0.2616
     68  O         39.7570  142.2390    8.5510 O.2   191  ARG191     -0.2715
     69  CB        42.9150  142.3950    7.1750 C.3   191  ARG191      0.0348
     70  CG        42.5170  143.3130    6.0250 C.3   191  ARG191      0.0492
     71  CD        42.3780  142.5370    4.7200 C.3   191  ARG191      0.2205
     72  NE        42.4310  143.3930    3.5390 N.pl3 191  ARG191     -0.0865
     73  CZ        43.3580  143.2980    2.5910 C.cat 191  ARG191      0.5346
     74  NH1       44.3090  142.3770    2.6790 N.pl3 191  ARG191      0.1354
     75  NH2       43.3300  144.1180    1.5490 N.pl3 191  ARG191      0.1354
     76  N         41.6040  142.3340    9.8460 N.am  192  SER192     -0.1950
     77  CA        40.9630  142.8640   11.0440 C.3   192  SER192      0.1924
     78  C         40.2640  144.2000   10.7410 C.2   192  SER192      0.2314
     79  O         40.2260  144.6220    9.5840 O.2   192  SER192     -0.2863
     80  CB        42.0330  143.0190   12.1300 C.3   192  SER192      0.2116
     81  OG        41.6150  142.4350   13.3520 O.3   192  SER192     -0.2180
     82  N         37.8660  140.9860   12.4720 N.3   195  ARG195     -0.1231
     83  CA        38.3600  139.6240   12.6490 C.3   195  ARG195      0.1694
     84  C         38.9740  139.3990   14.0250 C.2   195  ARG195      0.2591
     85  O         38.3130  138.8900   14.9270 O.2   195  ARG195     -0.2718
     86  CB        39.3930  139.2830   11.5700 C.3   195  ARG195      0.0321
     87  CG        40.0080  137.8950   11.7060 C.3   195  ARG195      0.0489
     88  CD        39.2150  136.8520   10.9340 C.3   195  ARG195      0.2205
     89  NE        39.6110  136.7360    9.5280 N.pl3 195  ARG195     -0.0865
     90  CZ        40.8630  136.7760    9.0770 C.cat 195  ARG195      0.5346
     91  NH1       41.8800  136.9190    9.9170 N.pl3 195  ARG195      0.1354
     92  NH2       41.1020  136.6590    7.7760 N.pl3 195  ARG195      0.1354
     93  N         40.2410  139.7820   14.1740 N.am  196  LYS196     -0.1980
     94  CA        41.0070  139.4630   15.3770 C.3   196  LYS196      0.1596
     95  C         40.1660  139.6240   16.6340 C.2   196  LYS196      0.2287
     96  O         40.1550  138.7480   17.5000 O.2   196  LYS196     -0.2864
     97  CB        42.2700  140.3220   15.4760 C.3   196  LYS196      0.0298
     98  CG        43.3400  139.7400   16.3940 C.3   196  LYS196      0.0038
     99  CD        44.1530  140.8360   17.0740 C.3   196  LYS196      0.0206
    100  CE        43.2830  141.6650   18.0200 C.3   196  LYS196      0.1093
    101  NZ        44.0570  142.6380   18.8500 N.3   196  LYS196     -0.1314
    102  N         37.8000  136.9410   16.7650 N.3   199  GLU199     -0.1245
    103  CA        38.6000  135.7260   16.8630 C.3   199  GLU199      0.1567
    104  C         38.9840  135.3880   18.3020 C.2   199  GLU199      0.2260
    105  O         38.7280  134.2820   18.7780 O.2   199  GLU199     -0.2867
    106  CB        39.8600  135.8690   16.0080 C.3   199  GLU199      0.0388
    107  CG        41.0340  135.0250   16.4670 C.3   199  GLU199      0.1160
    108  CD        42.3450  135.4870   15.8600 C.2   199  GLU199      0.3649
    109  OE1       43.3890  135.3800   16.5370 O.co2 199  GLU199     -0.2457
    110  OE2       42.3270  135.9700   14.7080 O.co2 199  GLU199     -0.2457
    111  N         42.1530  121.2690   15.4870 N.3   217  TYR217     -0.1241
    112  CA        43.1840  122.0270   14.7850 C.3   217  TYR217      0.1605
    113  C         43.9320  121.1890   13.7410 C.2   217  TYR217      0.2264
    114  O         43.9580  121.5310   12.5560 O.2   217  TYR217     -0.2867
    115  CB        44.1670  122.6180   15.7950 C.3   217  TYR217      0.0534
    116  CG        45.2650  123.4570   15.1880 C.ar  217  TYR217     -0.0201
    117  CD1       45.2210  124.8440   15.2510 C.ar  217  TYR217     -0.0009
    118  CD2       46.3530  122.8630   14.5620 C.ar  217  TYR217     -0.0009
    119  CE1       46.2300  125.6180   14.7010 C.ar  217  TYR217      0.0417
    120  CE2       47.3640  123.6280   14.0070 C.ar  217  TYR217      0.0417
    121  CZ        47.2990  125.0040   14.0790 C.ar  217  TYR217      0.1957
    122  OH        48.3070  125.7640   13.5270 O.3   217  TYR217     -0.2866
    123  N         43.8560  122.7060    9.3670 N.3   220  VAL220     -0.1231
    124  CA        44.8650  123.5030    8.6650 C.3   220  VAL220      0.1692
    125  C         44.9820  123.1590    7.1830 C.2   220  VAL220      0.2592
    126  O         44.8130  122.0070    6.7810 O.2   220  VAL220     -0.2718
    127  CB        46.2550  123.4030    9.3270 C.3   220  VAL220      0.0266
    128  CG1       46.2030  123.9370   10.7530 C.3   220  VAL220      0.0020
    129  CG2       46.7640  121.9670    9.2920 C.3   220  VAL220      0.0020
    130  N         45.2830  124.1760    6.3810 N.am  221  TYR221     -0.1976
    131  CA        45.3170  124.0530    4.9270 C.3   221  TYR221      0.1639
    132  C         46.7140  123.7130    4.4130 C.2   221  TYR221      0.2290
    133  O         47.6980  124.3400    4.8080 O.2   221  TYR221     -0.2864
    134  CB        44.8080  125.3530    4.2970 C.3   221  TYR221      0.0560
    135  CG        45.1390  125.5430    2.8340 C.ar  221  TYR221     -0.0198
    136  CD1       44.2330  125.1900    1.8400 C.ar  221  TYR221     -0.0009
    137  CD2       46.3500  126.1010    2.4480 C.ar  221  TYR221     -0.0009
    138  CE1       44.5330  125.3760    0.5050 C.ar  221  TYR221      0.0417
    139  CE2       46.6570  126.2900    1.1180 C.ar  221  TYR221      0.0417
    140  CZ        45.7490  125.9280    0.1510 C.ar  221  TYR221      0.1957
    141  OH        46.0740  126.1260   -1.1690 O.3   221  TYR221     -0.2866
    142  N         46.3850  122.1310   -2.8250 N.3   224  GLN224     -0.1245
    143  CA        45.2280  121.7910   -3.6510 C.3   224  GLN224      0.1566
    144  C         45.4460  120.5500   -4.4960 C.2   224  GLN224      0.2260
    145  O         46.5710  120.0890   -4.6840 O.2   224  GLN224     -0.2867
    146  CB        44.8510  122.9390   -4.5840 C.3   224  GLN224      0.0367
    147  CG        43.8550  123.9010   -4.0030 C.3   224  GLN224      0.0905
    148  CD        44.5260  124.9850   -3.2030 C.2   224  GLN224      0.2608
    149  OE1       45.6790  125.3350   -3.4590 O.2   224  GLN224     -0.2717
    150  NE2       43.8090  125.5340   -2.2330 N.am  224  GLN224     -0.0878
    151  N         43.2800  120.3230   -7.6260 N.3   226  GLY226     -0.1225
    152  CA        42.2230  120.7150   -8.5380 C.3   226  GLY226      0.1811
    153  C         41.3770  121.8260   -7.9470 C.2   226  GLY226      0.2280
    154  O         41.8890  122.8980   -7.6240 O.2   226  GLY226     -0.2866
    155  N         40.1280  121.3860   -1.8160 N.3   229  GLU229     -0.1245
    156  CA        41.1160  121.8070   -0.8370 C.3   229  GLU229      0.1567
    157  C         41.7510  120.5860   -0.1910 C.2   229  GLU229      0.2260
    158  O         41.1760  119.4960   -0.1990 O.2   229  GLU229     -0.2867
    159  CB        40.4680  122.6750    0.2410 C.3   229  GLU229      0.0388
    160  CG        39.9330  124.0040   -0.2560 C.3   229  GLU229      0.1160
    161  CD        41.0090  124.8550   -0.8920 C.2   229  GLU229      0.3649
    162  OE1       41.3330  125.9220   -0.3290 O.co2 229  GLU229     -0.2457
    163  OE2       41.5340  124.4500   -1.9510 O.co2 229  GLU229     -0.2457
    164  N         43.0690  119.5350    3.4990 N.3   231  ARG231     -0.1245
    165  CA        43.0110  120.0150    4.8760 C.3   231  ARG231      0.1563
    166  C         43.3020  118.9360    5.9180 C.2   231  ARG231      0.2260
    167  O         42.9980  117.7540    5.7230 O.2   231  ARG231     -0.2867
    168  CB        41.6560  120.6680    5.1540 C.3   231  ARG231      0.0307
    169  CG        41.5990  122.1600    4.8740 C.3   231  ARG231      0.0489
    170  CD        40.1730  122.5860    4.5470 C.3   231  ARG231      0.2205
    171  NE        39.6790  123.7290    5.3220 N.pl3 231  ARG231     -0.0865
    172  CZ        40.4110  124.7510    5.7630 C.cat 231  ARG231      0.5346
    173  NH1       41.7100  124.8240    5.5080 N.pl3 231  ARG231      0.1354
    174  NH2       39.8280  125.7200    6.4580 N.pl3 231  ARG231      0.1354
    175  N         51.9500  125.6150    7.1860 N.3   259  VAL259     -0.1231
    176  CA        50.7130  126.1280    7.7540 C.3   259  VAL259      0.1692
    177  C         50.5480  127.6310    7.5290 C.2   259  VAL259      0.2592
    178  O         49.4320  128.1510    7.5600 O.2   259  VAL259     -0.2718
    179  CB        50.6470  125.8470    9.2580 C.3   259  VAL259      0.0266
    180  CG1       51.4790  126.8750   10.0170 C.3   259  VAL259      0.0020
    181  CG2       49.2030  125.8590    9.7310 C.3   259  VAL259      0.0020
    182  N         51.6580  128.3250    7.3000 N.am  260  LYS260     -0.1966
    183  CA        51.6250  129.7730    7.1250 C.3   260  LYS260      0.1728
    184  C         51.1040  130.1950    5.7500 C.2   260  LYS260      0.2616
    185  O         50.6760  131.3350    5.5660 O.2   260  LYS260     -0.2715
    186  CB        53.0070  130.3750    7.3850 C.3   260  LYS260      0.0311
    187  CG        53.0180  131.8970    7.4260 C.3   260  LYS260      0.0038
    188  CD        53.4550  132.4970    6.0990 C.3   260  LYS260      0.0206
    189  CE        54.9230  132.8850    6.1350 C.3   260  LYS260      0.1093
    190  NZ        55.7490  131.8700    6.8470 N.3   260  LYS260     -0.1314
    191  N         51.1370  129.2730    4.7910 N.am  261  GLY261     -0.1955
    192  CA        50.6610  129.5500    3.4450 C.3   261  GLY261      0.1869
    193  C         51.0110  128.4440    2.4650 C.2   261  GLY261      0.2309
    194  O         51.9380  128.5740    1.6660 O.2   261  GLY261     -0.2863
    195  N         49.9640  127.4220   -0.2520 N.3   263  SER263     -0.1202
    196  CA        49.9590  127.6890   -1.6910 C.3   263  SER263      0.2020
    197  C         51.2930  128.2570   -2.1690 C.2   263  SER263      0.2618
    198  O         51.7880  127.8760   -3.2320 O.2   263  SER263     -0.2717
    199  CB        48.7980  128.6030   -2.0990 C.3   263  SER263      0.2103
    200  OG        47.7130  127.8520   -2.6230 O.3   263  SER263     -0.2182
    201  N         51.8800  129.1620   -1.3900 N.am  264  ILE264     -0.1979
    202  CA        53.2000  129.6830   -1.7330 C.3   264  ILE264      0.1595
    203  C         54.2840  128.7410   -1.2250 C.2   264  ILE264      0.2287
    204  O         55.4720  128.9700   -1.4410 O.2   264  ILE264     -0.2864
    205  CB        53.4530  131.1210   -1.2010 C.3   264  ILE264      0.0276
    206  CG1       53.9180  131.1000    0.2580 C.3   264  ILE264      0.0022
    207  CG2       52.2220  132.0030   -1.3980 C.3   264  ILE264      0.0022
    208  CD1       52.8130  131.2720    1.2630 C.3   264  ILE264      0.0001
@<TRIPOS>BOND
     1   152   153    1
     2   152   151    1
     3   153   154    2
     4   145   144    2
     5   146   147    1
     6   146   143    1
     7   144   143    1
     8   147   148    1
     9   143   142    1
    10   149   148    2
    11   198   197    2
    12   148   150   am
    13   200   199    1
    14   197   196    1
    15   197   201   am
    16   199   196    1
    17   163   161   ar
    18   155   156    1
    19   202   201    1
    20   202   203    1
    21   202   205    1
    22   196   195    1
    23   204   203    2
    24   207   205    1
    25   205   206    1
    26   141   140    1
    27   161   162   ar
    28   161   160    1
    29   156   157    1
    30   156   159    1
    31   160   159    1
    32   158   157    2
    33   140   138   ar
    34   140   139   ar
    35   206   208    1
    36   138   136   ar
    37   139   137   ar
    38    75    73    1
    39   194   193    2
    40    63    62   ar
    41   136   135   ar
    42    64    62   ar
    43   137   135   ar
    44   193   192    1
    45    62    61    1
    46    73    74    1
    47    73    72    2
    48   135   134    1
    49   192   191    1
    50   164   165    1
    51    72    71    1
    52    61    60    1
    53    60    57    1
    54   134   131    1
    55   132   133    2
    56   132   131    1
    57   170   169    1
    58   170   171    1
    59    71    70    1
    60   191   184   am
    61   169   168    1
    62   165   168    1
    63   165   166    1
    64   131   130    1
    65    56    57    1
    66   171   172    2
    67    57    58    1
    68   173   172    1
    69   185   184    2
    70   167   166    2
    71   184   183    1
    72   172   174    1
    73    70    69    1
    74   188   189    1
    75   188   187    1
    76   189   190    1
    77   130   125   am
    78    65    58   am
    79    65    66    1
    80    58    59    2
    81   126   125    2
    82   183   182    1
    83   183   186    1
    84    69    66    1
    85   125   124    1
    86   175   176    1
    87   182   177   am
    88   186   187    1
    89   177   178    2
    90   177   176    1
    91    66    67    1
    92   176   179    1
    93    92    90    1
    94    68    67    2
    95   124   127    1
    96   124   123    1
    97    67    76   am
    98    52    53    1
    99    52    49    1
   100    55    53   am
   101    90    89    2
   102    90    91    1
   103    51    50    2
   104    47    46    1
   105   179   181    1
   106   179   180    1
   107   129   127    1
   108   127   128    1
   109    46    45    1
   110    53    54    2
   111    89    88    1
   112    79    78    2
   113    49    50    1
   114    49    48    1
   115    76    77    1
   116    78    77    1
   117    48    41   am
   118    45    44    1
   119    42    41    2
   120    88    87    1
   121    44    43    1
   122    77    80    1
   123    41    40    1
   124    86    87    1
   125    86    83    1
   126    80    81    1
   127    43    40    1
   128    82    83    1
   129   114   113    2
   130    40    39    1
   131    83    84    1
   132    21    20    1
   133   122   121    1
   134   113   112    1
   135    35    36    1
   136    35    34    1
   137    33    32    2
   138   120   121   ar
   139   120   118   ar
   140    84    93   am
   141    84    85    2
   142   121   119   ar
   143    37    36    2
   144    93    94    1
   145    20    18   ar
   146    20    19   ar
   147    36    38   am
   148     8     7   ar
   149    18    16   ar
   150   118   116   ar
   151    34    31    1
   152   119   117   ar
   153   110   108   ar
   154   112   111    1
   155   112   115    1
   156    32    31    1
   157     9     7   ar
   158   116   117   ar
   159   116   115    1
   160     7     6    1
   161    19    17   ar
   162    94    97    1
   163    94    95    1
   164    97    98    1
   165    16    15   ar
   166    31    30    1
   167   108   107    1
   168   108   109   ar
   169   106   107    1
   170   106   103    1
   171    98    99    1
   172    17    15   ar
   173    15    14    1
   174    22    23    1
   175    95    96    2
   176     6     5    1
   177   102   103    1
   178   103   104    1
   179    99   100    1
   180    25    24    2
   181     5     2    1
   182    14    11    1
   183     1     2    1
   184    26    23    1
   185    26    27    1
   186    23    24    1
   187   100   101    1
   188    29    27    1
   189   104   105    2
   190     2     3    1
   191    27    28    1
   192    11    12    1
   193    11    10    1
   194    12    13    2
   195     3     4    2
