@<TRIPOS>MOLECULE
tmp/3fwnB01.pdb
 141 132 0 0 0
SMALL
GASTEIGER

@<TRIPOS>ATOM
      1  N        -10.4970   30.0680   42.5770 N.3    13  MET13      -0.1245
      2  CA        -9.8920   31.0160   43.4890 C.3    13  MET13       0.1570
      3  C        -10.8730   32.1040   43.9230 C.2    13  MET13       0.2261
      4  O        -10.9100   32.4900   45.0860 O.2    13  MET13      -0.2867
      5  CB        -8.6580   31.6860   42.8640 C.3    13  MET13       0.0387
      6  CG        -7.5390   30.7190   42.5220 C.3    13  MET13       0.0595
      7  SD        -6.8040   30.0360   44.0380 S.3    13  MET13      -0.1393
      8  CE        -5.6950   31.3370   44.5890 C.3    13  MET13       0.0692
      9  N         -3.8000   36.3190   38.2750 N.3   101  ASN101     -0.1240
     10  CA        -2.3770   36.1970   37.9030 C.3   101  ASN101      0.1653
     11  C         -2.1320   36.9900   36.6070 C.2   101  ASN101      0.2266
     12  O         -1.8520   36.4480   35.5470 O.2   101  ASN101     -0.2867
     13  CB        -2.0100   34.7340   37.6380 C.3   101  ASN101      0.1155
     14  CG        -1.8160   33.9560   38.9150 C.2   101  ASN101      0.2627
     15  OD1       -1.6320   34.5350   40.0060 O.2   101  ASN101     -0.2716
     16  ND2       -1.8540   32.6250   38.7970 N.am  101  ASN101     -0.0877
     17  N         -2.2430   36.6960   44.6790 N.3   126  VAL126     -0.1231
     18  CA        -2.9330   35.9540   45.7770 C.3   126  VAL126      0.1692
     19  C         -2.4210   34.5040   45.5520 C.2   126  VAL126      0.2593
     20  O         -2.5300   33.9300   44.4500 O.2   126  VAL126     -0.2718
     21  CB        -4.4870   35.9840   45.5920 C.3   126  VAL126      0.0266
     22  CG1       -5.1990   35.1820   46.7240 C.3   126  VAL126      0.0020
     23  CG2       -4.9950   37.4360   45.6550 C.3   126  VAL126      0.0020
     24  N         -1.8660   33.9290   46.6170 N.am  127  SER127     -0.1938
     25  CA        -1.3350   32.5630   46.4580 C.3   127  SER127      0.2055
     26  C         -1.7950   31.6370   47.6050 C.2   127  SER127      0.2644
     27  O         -1.7770   32.0130   48.7580 O.2   127  SER127     -0.2714
     28  CB         0.1930   32.6170   46.4810 C.3   127  SER127      0.2130
     29  OG         0.6690   31.2990   46.2860 O.3   127  SER127     -0.2179
     30  N         -2.1300   30.4080   47.2130 N.am  128  GLY128     -0.1939
     31  CA        -2.5490   29.4240   48.1990 C.3   128  GLY128      0.2014
     32  C         -3.4310   28.3290   47.6470 C.2   128  GLY128      0.2639
     33  O         -3.8500   27.4870   48.4350 O.2   128  GLY128     -0.2714
     34  N         -3.7320   28.3160   46.3510 N.am  129  GLY129     -0.1954
     35  CA        -4.6030   27.2450   45.8510 C.3   129  GLY129      0.1869
     36  C         -6.0270   27.4010   46.4160 C.2   129  GLY129      0.2309
     37  O         -6.3920   28.4180   47.0100 O.2   129  GLY129     -0.2863
     38  N          4.1670   37.8600   42.3540 N.3   182  LYS182     -0.1245
     39  CA         3.3560   36.6510   42.2310 C.3   182  LYS182      0.1561
     40  C          3.8640   35.8030   41.0770 C.2   182  LYS182      0.2260
     41  O          3.8470   34.5670   41.2030 O.2   182  LYS182     -0.2867
     42  CB         1.8900   37.0520   41.9610 C.3   182  LYS182      0.0271
     43  CG         0.9600   35.7520   41.7230 C.3   182  LYS182      0.0035
     44  CD         0.9240   34.9180   43.0320 C.3   182  LYS182      0.0206
     45  CE         0.5650   33.4110   42.7970 C.3   182  LYS182      0.1093
     46  NZ        -0.8290   33.2310   42.3200 N.3   182  LYS182     -0.1314
     47  N          6.8020   33.9910   42.3550 N.3   185  HIS185     -0.1226
     48  CA         6.3750   32.8960   43.2580 C.3   185  HIS185      0.1752
     49  C          6.0090   31.6910   42.3990 C.2   185  HIS185      0.2596
     50  O          6.3900   30.5270   42.7320 O.2   185  HIS185     -0.2718
     51  CB         5.1010   33.3030   44.0630 C.3   185  HIS185      0.0759
     52  CG         4.3840   32.1210   44.6620 C.ar  185  HIS185      0.0818
     53  ND1        4.5900   31.6630   45.9560 N.ar  185  HIS185     -0.2268
     54  CD2        3.5580   31.2330   44.0730 C.ar  185  HIS185      0.1154
     55  CE1        3.9270   30.5100   46.1140 C.ar  185  HIS185      0.1986
     56  NE2        3.2980   30.2300   44.9940 N.ar  185  HIS185     -0.2212
     57  N          5.2130   31.9010   41.3310 N.am  186  ASN186     -0.1974
     58  CA         4.7870   30.7810   40.4850 C.3   186  ASN186      0.1688
     59  C          5.9640   30.1710   39.7430 C.2   186  ASN186      0.2292
     60  O          6.0330   28.9790   39.6010 O.2   186  ASN186     -0.2864
     61  CB         3.6490   31.1710   39.5340 C.3   186  ASN186      0.1181
     62  CG         2.3050   31.1410   40.2300 C.2   186  ASN186      0.2629
     63  OD1        2.2160   31.0650   41.4690 O.2   186  ASN186     -0.2716
     64  ND2        1.2280   31.1550   39.4400 N.am  186  ASN186     -0.0877
     65  N          7.5170   28.0350   42.2400 N.3   189  GLU189     -0.1231
     66  CA         6.6520   26.8440   42.4200 C.3   189  GLU189      0.1699
     67  C          6.8620   25.8300   41.2920 C.2   189  GLU189      0.2592
     68  O          6.9740   24.6010   41.6000 O.2   189  GLU189     -0.2718
     69  CB         5.1910   27.3250   42.4640 C.3   189  GLU189      0.0402
     70  CG         4.1210   26.2690   42.3810 C.3   189  GLU189      0.1161
     71  CD         2.8040   26.9650   42.0990 C.2   189  GLU189      0.3649
     72  OE1        2.3390   27.7070   42.9490 O.co2 189  GLU189     -0.2457
     73  OE2        2.2950   26.7820   41.0050 O.co2 189  GLU189     -0.2457
     74  N          6.9910   26.2640   40.0180 N.am  190  TYR190     -0.1976
     75  CA         7.2430   25.3230   38.9310 C.3   190  TYR190      0.1639
     76  C          8.5640   24.6200   39.2000 C.2   190  TYR190      0.2290
     77  O          8.6620   23.4210   38.9670 O.2   190  TYR190     -0.2864
     78  CB         7.3770   26.0420   37.5690 C.3   190  TYR190      0.0560
     79  CG         6.1130   26.3750   36.8460 C.ar  190  TYR190     -0.0198
     80  CD1        4.9750   26.8470   37.5460 C.ar  190  TYR190     -0.0009
     81  CD2        6.0910   26.3440   35.4390 C.ar  190  TYR190     -0.0009
     82  CE1        3.8460   27.3040   36.8230 C.ar  190  TYR190      0.0417
     83  CE2        4.9580   26.7990   34.7440 C.ar  190  TYR190      0.0417
     84  CZ         3.8810   27.2750   35.4360 C.ar  190  TYR190      0.1957
     85  OH         2.8470   27.8010   34.6690 O.3   190  TYR190     -0.2866
     86  N          8.2300   21.9080   41.9190 N.3   193  MET193     -0.1245
     87  CA         7.5210   20.7470   41.4310 C.3   193  MET193      0.1570
     88  C          8.3800   19.9380   40.5300 C.2   193  MET193      0.2261
     89  O          8.3910   18.6900   40.6070 O.2   193  MET193     -0.2867
     90  CB         6.2170   21.1920   40.7360 C.3   193  MET193      0.0387
     91  CG         5.2530   21.7500   41.7940 C.3   193  MET193      0.0595
     92  SD         3.9360   22.8450   41.0150 S.3   193  MET193     -0.1393
     93  CE         2.8670   21.5910   40.3860 C.3   193  MET193      0.0692
     94  N          0.1970   20.8090   32.2420 N.3   257  ALA257     -0.1231
     95  CA        -0.3170   22.0230   31.6490 C.3   257  ALA257      0.1694
     96  C          0.3280   23.2190   32.3380 C.2   257  ALA257      0.2592
     97  O          1.0240   23.0960   33.3460 O.2   257  ALA257     -0.2718
     98  CB        -1.8260   22.0930   31.8420 C.3   257  ALA257      0.0304
     99  N          0.1360   24.3940   31.7650 N.am  258  ASN258     -0.1960
    100  CA         0.6730   25.6080   32.3810 C.3   258  ASN258      0.1819
    101  C         -0.2420   26.7760   31.9790 C.2   258  ASN258      0.2621
    102  O         -0.7880   26.7810   30.8450 O.2   258  ASN258     -0.2715
    103  CB         2.1350   25.8800   31.9540 C.3   258  ASN258      0.1195
    104  CG         2.2370   26.4190   30.5510 C.2   258  ASN258      0.2630
    105  OD1        2.2880   25.6690   29.5390 O.2   258  ASN258     -0.2716
    106  ND2        2.2170   27.7270   30.4620 N.am  258  ASN258     -0.0877
    107  N         -0.4120   27.7390   32.8860 N.am  259  LYS259     -0.1977
    108  CA        -1.3040   28.8760   32.5500 C.3   259  LYS259      0.1596
    109  C         -0.5730   30.2100   32.3370 C.2   259  LYS259      0.2287
    110  O         -1.1930   31.2620   32.4630 O.2   259  LYS259     -0.2864
    111  CB        -2.4170   29.0200   33.6140 C.3   259  LYS259      0.0298
    112  CG        -3.3080   27.7970   33.5300 C.3   259  LYS259      0.0038
    113  CD        -4.4270   27.7760   34.5580 C.3   259  LYS259      0.0206
    114  CE        -5.3570   26.6150   34.2190 C.3   259  LYS259      0.1093
    115  NZ        -6.0230   26.8280   32.8970 N.3   259  LYS259     -0.1314
    116  N          2.3030   31.8240   33.9600 N.3   261  THR261     -0.1218
    117  CA         3.1940   32.5610   34.8550 C.3   261  THR261      0.1862
    118  C          4.6280   32.0540   34.8430 C.2   261  THR261      0.2287
    119  O          5.5460   32.8350   34.9260 O.2   261  THR261     -0.2866
    120  CB         2.6390   32.6090   36.2680 C.3   261  THR261      0.1770
    121  OG1        2.3400   31.2670   36.6790 O.3   261  THR261     -0.2211
    122  CG2        1.3330   33.4490   36.3040 C.3   261  THR261      0.0375
    123  N          7.7450   20.9730   31.4360 N.3   286  ARG286     -0.1245
    124  CA         6.3020   20.9020   31.1940 C.3   286  ARG286      0.1563
    125  C          6.0300   20.8610   29.6900 C.2   286  ARG286      0.2260
    126  O          5.2260   20.0800   29.2030 O.2   286  ARG286     -0.2867
    127  CB         5.5680   22.1170   31.7700 C.3   286  ARG286      0.0307
    128  CG         5.5620   22.0570   33.2920 C.3   286  ARG286      0.0489
    129  CD         4.5000   22.9490   33.9030 C.3   286  ARG286      0.2205
    130  NE         4.5610   22.9280   35.3730 N.pl3 286  ARG286     -0.0865
    131  CZ         3.6420   23.4990   36.1600 C.cat 286  ARG286      0.5346
    132  NH1        2.5640   24.0860   35.6300 N.pl3 286  ARG286      0.1354
    133  NH2        3.8560   23.5160   37.4800 N.pl3 286  ARG286      0.1354
    134  N          1.6710   28.5180   47.9360 N.3   364  ILE364     -0.1245
    135  CA         1.9980   27.1440   47.5920 C.3   364  ILE364      0.1561
    136  C          3.4230   26.7520   47.9650 C.2   364  ILE364      0.2260
    137  O          3.6600   25.5810   48.3090 O.2   364  ILE364     -0.2867
    138  CB         1.7700   26.8800   46.0630 C.3   364  ILE364      0.0252
    139  CG1        0.3010   27.2060   45.6930 C.3   364  ILE364      0.0019
    140  CG2        2.1360   25.4060   45.6870 C.3   364  ILE364      0.0019
    141  CD1       -0.7440   26.3550   46.3720 C.3   364  ILE364      0.0001
@<TRIPOS>BOND
     1   126   125    2
     2   105   104    2
     3   125   124    1
     4   106   104   am
     5   104   103    1
     6   102   101    2
     7   124   123    1
     8   124   127    1
     9    95    98    1
    10    95    94    1
    11    95    96    1
    12    99    96   am
    13    99   100    1
    14   127   128    1
    15   103   100    1
    16   101   100    1
    17   101   107   am
    18   109   110    2
    19   109   108    1
    20    96    97    2
    21   108   107    1
    22   108   111    1
    23   115   114    1
    24   128   129    1
    25   112   111    1
    26   112   113    1
    27   129   130    1
    28   116   117    1
    29   114   113    1
    30    85    84    1
    31    83    84   ar
    32    83    81   ar
    33   118   117    1
    34   118   119    2
    35   117   120    1
    36   130   131    2
    37    84    82   ar
    38    81    79   ar
    39    12    11    2
    40   132   131    1
    41   131   133    1
    42   120   122    1
    43   120   121    1
    44    11    10    1
    45    82    80   ar
    46    79    80   ar
    47    79    78    1
    48    78    75    1
    49    13    10    1
    50    13    14    1
    51    10     9    1
    52    16    14   am
    53    14    15    2
    54    75    76    1
    55    75    74    1
    56    77    76    2
    57    64    62   am
    58    61    62    1
    59    61    58    1
    60    60    59    2
    61    59    58    1
    62    74    67   am
    63    62    63    2
    64    93    92    1
    65    58    57    1
    66    88    89    2
    67    88    87    1
    68    90    87    1
    69    90    91    1
    70    73    71   ar
    71    92    91    1
    72    40    41    2
    73    40    39    1
    74    67    68    2
    75    67    66    1
    76    57    49   am
    77    87    86    1
    78    43    42    1
    79    43    44    1
    80    42    39    1
    81    71    70    1
    82    71    72   ar
    83    39    38    1
    84    65    66    1
    85    46    45    1
    86    47    48    1
    87    70    69    1
    88    49    50    2
    89    49    48    1
    90    66    69    1
    91     6     5    1
    92     6     7    1
    93     1     2    1
    94    45    44    1
    95     5     2    1
    96    48    51    1
    97     2     3    1
    98     3     4    2
    99     7     8    1
   100    51    52    1
   101    54    52   ar
   102    54    56   ar
   103    20    19    2
   104    52    53   ar
   105    17    18    1
   106    56    55   ar
   107    19    18    1
   108    19    24   am
   109    21    23    1
   110    21    18    1
   111    21    22    1
   112   140   138    1
   113   139   138    1
   114   139   141    1
   115    35    34    1
   116    35    36    1
   117    53    55   ar
   118   138   135    1
   119    29    28    1
   120    34    32   am
   121    36    37    2
   122    25    28    1
   123    25    24    1
   124    25    26    1
   125    30    26   am
   126    30    31    1
   127   135   134    1
   128   135   136    1
   129    26    27    2
   130    32    31    1
   131    32    33    2
   132   136   137    2
