@<TRIPOS>MOLECULE
tmp/3fwnB00.pdb
 128 122 0 0 0
SMALL
GASTEIGER

@<TRIPOS>ATOM
      1  N        -15.7660   39.5980   41.7390 N.3     8  VAL8       -0.1231
      2  CA       -16.1050   39.2380   40.3640 C.3     8  VAL8        0.1692
      3  C        -15.2140   38.0690   39.9770 C.2     8  VAL8        0.2593
      4  O        -13.9770   38.1760   40.0340 O.2     8  VAL8       -0.2718
      5  CB       -15.8090   40.3530   39.3850 C.3     8  VAL8        0.0266
      6  CG1      -16.0860   39.8840   37.9520 C.3     8  VAL8        0.0020
      7  CG2      -16.6620   41.6000   39.7030 C.3     8  VAL8        0.0020
      8  N        -15.8580   36.9630   39.5850 N.am    9  GLY9       -0.1942
      9  CA       -15.1130   35.7790   39.1440 C.3     9  GLY9        0.2014
     10  C        -15.3160   34.6780   40.1370 C.2     9  GLY9        0.2639
     11  O        -14.7100   34.6700   41.2280 O.2     9  GLY9       -0.2714
     12  N        -16.1710   33.7140   39.7450 N.am   10  MET10      -0.1963
     13  CA       -16.5420   32.6220   40.6040 C.3    10  MET10       0.1736
     14  C        -15.9550   31.2600   40.2930 C.2    10  MET10       0.2616
     15  O        -16.5020   30.2250   40.6540 O.2    10  MET10      -0.2715
     16  CB       -18.0860   32.5850   40.6660 C.3    10  MET10       0.0427
     17  CG       -18.6790   33.7940   41.4790 C.3    10  MET10       0.0599
     18  SD       -18.2380   33.8020   43.2230 S.3    10  MET10      -0.1393
     19  CE       -17.1500   35.3300   43.3680 C.3    10  MET10       0.0692
     20  N        -14.8100   31.2830   39.6080 N.am   11  ALA11      -0.1963
     21  CA       -14.0650   30.0440   39.4050 C.3    11  ALA11       0.1728
     22  C        -13.3960   29.6830   40.7670 C.2    11  ALA11       0.2616
     23  O        -13.6520   30.3010   41.8270 O.2    11  ALA11      -0.2715
     24  CB       -13.0320   30.2510   38.2990 C.3    11  ALA11       0.0334
     25  N        -12.5350   28.6740   40.7900 N.am   12  VAL12      -0.1977
     26  CA       -11.9780   28.2290   42.0580 C.3    12  VAL12       0.1596
     27  C        -11.4280   29.2520   43.0400 C.2    12  VAL12       0.2287
     28  O        -11.8200   29.2870   44.2210 O.2    12  VAL12      -0.2864
     29  CB       -10.8710   27.0880   41.8180 C.3    12  VAL12       0.0276
     30  CG1      -10.2110   26.6570   43.1820 C.3    12  VAL12       0.0022
     31  CG2      -11.5460   25.9120   41.1790 C.3    12  VAL12       0.0022
     32  N        -20.4800   38.1460   41.5320 N.3    31  PHE31      -0.1227
     33  CA       -20.9180   38.1780   40.1350 C.3    31  PHE31       0.1736
     34  C        -19.9930   37.3430   39.3030 C.2    31  PHE31       0.2595
     35  O        -18.7860   37.2840   39.5880 O.2    31  PHE31      -0.2718
     36  CB       -20.8570   39.6150   39.5700 C.3    31  PHE31       0.0547
     37  CG       -21.2560   39.7170   38.0920 C.ar   31  PHE31      -0.0202
     38  CD1      -22.6080   39.7840   37.7120 C.ar   31  PHE31      -0.0042
     39  CD2      -20.2690   39.6610   37.0850 C.ar   31  PHE31      -0.0042
     40  CE1      -22.9610   39.7590   36.3420 C.ar   31  PHE31      -0.0003
     41  CE2      -20.6280   39.6470   35.7390 C.ar   31  PHE31      -0.0003
     42  CZ       -21.9650   39.6870   35.3700 C.ar   31  PHE31      -0.0000
     43  N        -20.5430   36.6680   38.2730 N.am   32  ASN32      -0.1960
     44  CA       -19.6860   35.8960   37.3580 C.3    32  ASN32       0.1819
     45  C        -20.3400   36.0540   35.9760 C.2    32  ASN32       0.2621
     46  O        -21.5790   36.0280   35.8670 O.2    32  ASN32      -0.2715
     47  CB       -19.6500   34.4290   37.7190 C.3    32  ASN32       0.1195
     48  CG       -18.5740   33.6940   36.9700 C.2    32  ASN32       0.2630
     49  OD1      -17.3920   33.9830   37.1640 O.2    32  ASN32      -0.2716
     50  ND2      -18.9650   32.7380   36.0930 N.am   32  ASN32      -0.0877
     51  N        -19.5400   36.2100   34.9210 N.am   33  ARG33      -0.1963
     52  CA       -20.1230   36.3440   33.5920 C.3    33  ARG33       0.1729
     53  C        -21.0130   35.1270   33.2370 C.2    33  ARG33       0.2616
     54  O        -22.0750   35.3410   32.6890 O.2    33  ARG33      -0.2715
     55  CB       -18.9920   36.4970   32.5820 C.3    33  ARG33       0.0348
     56  CG       -19.4900   36.5950   31.1480 C.3    33  ARG33       0.0492
     57  CD       -18.3190   36.4720   30.1990 C.3    33  ARG33       0.2205
     58  NE       -17.5970   35.2170   30.4130 N.pl3  33  ARG33      -0.0865
     59  CZ       -16.6070   34.8330   29.6180 C.cat  33  ARG33       0.5346
     60  NH1      -16.2730   35.6140   28.5840 N.pl3  33  ARG33       0.1354
     61  NH2      -15.9150   33.7330   29.8880 N.pl3  33  ARG33       0.1354
     62  N        -20.5620   33.9130   33.5310 N.am   34  SER34      -0.1950
     63  CA       -21.3780   32.6840   33.3250 C.3    34  SER34       0.1924
     64  C        -22.2070   32.6570   34.5900 C.2    34  SER34       0.2314
     65  O        -21.7430   32.2330   35.6540 O.2    34  SER34      -0.2863
     66  CB       -20.5130   31.4650   33.2020 C.3    34  SER34       0.2116
     67  OG       -19.9110   31.5950   31.9350 O.3    34  SER34      -0.2180
     68  N        -22.6610   29.8520   37.1770 N.3    37  LYS37      -0.1245
     69  CA       -21.6590   29.5250   38.2110 C.3    37  LYS37       0.1561
     70  C        -21.9950   30.2920   39.5390 C.2    37  LYS37       0.2260
     71  O        -21.7200   29.7990   40.6160 O.2    37  LYS37      -0.2867
     72  CB       -20.2510   29.9590   37.7840 C.3    37  LYS37       0.0271
     73  CG       -19.7100   29.1090   36.6350 C.3    37  LYS37       0.0035
     74  CD       -18.2010   28.9210   36.7920 C.3    37  LYS37       0.0206
     75  CE       -17.6350   28.1310   35.5580 C.3    37  LYS37       0.1093
     76  NZ       -16.6880   28.9580   34.7890 N.3    37  LYS37      -0.1314
     77  N        -11.1840   38.3980   40.2880 N.3    72  MET72      -0.1230
     78  CA       -10.4430   37.1360   40.2060 C.3    72  MET72       0.1702
     79  C        -10.8190   36.4910   38.8930 C.2    72  MET72       0.2592
     80  O        -11.5040   35.4990   38.8390 O.2    72  MET72      -0.2718
     81  CB       -10.8400   36.2390   41.3830 C.3    72  MET72       0.0401
     82  CG       -10.4600   36.8600   42.7100 C.3    72  MET72       0.0596
     83  SD        -8.6550   37.0180   42.9800 S.3    72  MET72      -0.1393
     84  CE        -8.2780   35.2010   43.3050 C.3    72  MET72       0.0692
     85  N        -10.4190   37.1440   37.8130 N.am   73  VAL73      -0.1966
     86  CA       -10.7830   36.7320   36.4530 C.3    73  VAL73       0.1727
     87  C         -9.5610   36.2520   35.6630 C.2    73  VAL73       0.2616
     88  O         -8.4250   36.6390   35.9360 O.2    73  VAL73      -0.2715
     89  CB       -11.4570   37.9750   35.7900 C.3    73  VAL73       0.0290
     90  CG1      -11.7570   37.7630   34.3240 C.3    73  VAL73       0.0023
     91  CG2      -12.8030   38.2580   36.5930 C.3    73  VAL73       0.0023
     92  N         -9.8310   35.4720   34.6270 N.am   74  LYS74      -0.1977
     93  CA        -8.7650   34.9560   33.7280 C.3    74  LYS74       0.1596
     94  C         -7.8580   36.0990   33.2350 C.2    74  LYS74       0.2287
     95  O         -8.3270   37.2000   32.8270 O.2    74  LYS74      -0.2864
     96  CB        -9.4450   34.3060   32.5420 C.3    74  LYS74       0.0298
     97  CG        -8.4650   33.5590   31.6220 C.3    74  LYS74       0.0038
     98  CD        -9.2000   32.8950   30.4490 C.3    74  LYS74       0.0206
     99  CE        -8.1510   32.2570   29.5260 C.3    74  LYS74       0.1093
    100  NZ        -8.7280   31.8010   28.2200 N.3    74  LYS74      -0.1314
    101  N         -7.3460   39.1710   28.2050 N.3    77  ALA77      -0.1231
    102  CA        -8.6000   39.7440   27.6800 C.3    77  ALA77       0.1694
    103  C         -9.7470   39.8000   28.6730 C.2    77  ALA77       0.2592
    104  O        -10.4260   40.8540   28.7790 O.2    77  ALA77      -0.2718
    105  CB        -9.0650   38.9680   26.4560 C.3    77  ALA77       0.0304
    106  N         -9.9370   38.6760   29.3600 N.am   78  GLY78      -0.1957
    107  CA       -11.0120   38.5200   30.3280 C.3    78  GLY78       0.1869
    108  C        -10.9750   39.5880   31.4190 C.2    78  GLY78       0.2309
    109  O        -11.9840   40.2290   31.7500 O.2    78  GLY78      -0.2863
    110  N        -11.8260   42.9530   30.0280 N.3    81  ALA81      -0.1231
    111  CA       -13.2650   43.0820   29.7530 C.3    81  ALA81       0.1694
    112  C        -14.0510   43.3320   31.0180 C.2    81  ALA81       0.2591
    113  O        -14.9740   44.1440   31.0370 O.2    81  ALA81      -0.2718
    114  CB       -13.7700   41.8580   29.1360 C.3    81  ALA81       0.0304
    115  N        -13.6880   42.6230   32.0750 N.am   82  ALA82      -0.1980
    116  CA       -14.4310   42.7800   33.3530 C.3    82  ALA82       0.1597
    117  C        -14.2450   44.1810   33.8600 C.2    82  ALA82       0.2287
    118  O        -15.1840   44.8720   34.3130 O.2    82  ALA82      -0.2864
    119  CB       -13.9320   41.7550   34.4040 C.3    82  ALA82       0.0319
    120  N         -0.4120   27.7390   32.8860 N.3   259  LYS259     -0.1245
    121  CA        -1.3040   28.8760   32.5500 C.3   259  LYS259      0.1561
    122  C         -0.5730   30.2100   32.3370 C.2   259  LYS259      0.2260
    123  O         -1.1930   31.2620   32.4630 O.2   259  LYS259     -0.2867
    124  CB        -2.4170   29.0200   33.6140 C.3   259  LYS259      0.0271
    125  CG        -3.3080   27.7970   33.5300 C.3   259  LYS259      0.0035
    126  CD        -4.4270   27.7760   34.5580 C.3   259  LYS259      0.0206
    127  CE        -5.3570   26.6150   34.2190 C.3   259  LYS259      0.1093
    128  NZ        -6.0230   26.8280   32.8970 N.3   259  LYS259     -0.1314
@<TRIPOS>BOND
     1   105   102    1
     2   102   101    1
     3   102   103    1
     4   100    99    1
     5    60    59    1
     6   103   104    2
     7   103   106   am
     8   114   111    1
     9   106   107    1
    10    99    98    1
    11    59    61    1
    12    59    58    2
    13   111   110    1
    14   111   112    1
    15    57    58    1
    16    57    56    1
    17   107   108    1
    18    98    97    1
    19   112   113    2
    20   112   115   am
    21    56    55    1
    22   108   109    2
    23    97    96    1
    24    67    66    1
    25   115   116    1
    26   122   123    2
    27   122   121    1
    28    96    93    1
    29   121   120    1
    30   121   124    1
    31    55    52    1
    32    54    53    2
    33    95    94    2
    34   128   127    1
    35    66    63    1
    36    94    93    1
    37    53    62   am
    38    53    52    1
    39    63    62    1
    40    63    64    1
    41   116   117    1
    42   116   119    1
    43   125   124    1
    44   125   126    1
    45    52    51    1
    46    93    92    1
    47   117   118    2
    48   127   126    1
    49    90    89    1
    50    64    65    2
    51    92    87   am
    52    76    75    1
    53    51    45   am
    54    42    41   ar
    55    42    40   ar
    56    75    74    1
    57    87    88    2
    58    87    86    1
    59    41    39   ar
    60    89    86    1
    61    89    91    1
    62    46    45    2
    63    45    44    1
    64    50    48   am
    65    40    38   ar
    66    86    85    1
    67    73    74    1
    68    73    72    1
    69    48    49    2
    70    48    47    1
    71    39    37   ar
    72    68    69    1
    73    44    47    1
    74    44    43    1
    75    38    37   ar
    76    72    69    1
    77    85    79   am
    78     6     5    1
    79    37    36    1
    80    69    70    1
    81    43    34   am
    82    24    21    1
    83    80    79    2
    84    79    78    1
    85     9     8    1
    86     9    10    1
    87    34    35    2
    88    34    33    1
    89     5     7    1
    90     5     2    1
    91    21    20    1
    92    21    22    1
    93    70    71    2
    94    36    33    1
    95     8     3   am
    96    20    14   am
    97    12    10   am
    98    12    13    1
    99     3     4    2
   100     3     2    1
   101    33    32    1
   102    10    11    2
   103    78    77    1
   104    78    81    1
   105    14    13    1
   106    14    15    2
   107     2     1    1
   108    13    16    1
   109    16    17    1
   110    22    25   am
   111    22    23    2
   112    25    26    1
   113    31    29    1
   114    81    82    1
   115    17    18    1
   116    29    26    1
   117    29    30    1
   118    26    27    1
   119    82    83    1
   120    83    84    1
   121    27    28    2
   122    18    19    1
