@<TRIPOS>MOLECULE
tmp/3fwrB00.pdb
 138 132 0 0 0
SMALL
GASTEIGER

@<TRIPOS>ATOM
      1  N          7.6140   47.6080   31.9340 N.3    46  GLY46      -0.1210
      2  CA         7.1160   47.8800   33.2770 C.3    46  GLY46       0.1956
      3  C          7.9690   48.9020   34.0010 C.2    46  GLY46       0.2612
      4  O          7.6520   49.2860   35.1370 O.2    46  GLY46      -0.2717
      5  N          9.0560   49.3290   33.3540 N.am   47  THR47      -0.1952
      6  CA         9.9650   50.3030   33.9420 C.3    47  THR47       0.1897
      7  C         10.5840   51.2190   32.9060 C.2    47  THR47       0.2313
      8  O         11.3020   50.7870   32.0040 O.2    47  THR47      -0.2863
      9  CB        11.1340   49.6490   34.6970 C.3    47  THR47       0.1794
     10  OG1       10.6260   48.7840   35.7090 O.3    47  THR47      -0.2208
     11  CG2       11.9750   50.7310   35.3790 C.3    47  THR47       0.0378
     12  N         13.7660   56.3840   38.0780 N.3    60  VAL60      -0.1245
     13  CA        12.9500   55.3270   37.4890 C.3    60  VAL60       0.1561
     14  C         11.4590   55.5220   37.6990 C.2    60  VAL60       0.2260
     15  O         11.0410   56.2870   38.5400 O.2    60  VAL60      -0.2867
     16  CB        13.3240   53.9040   37.9840 C.3    60  VAL60       0.0252
     17  CG1       14.5430   53.4630   37.3050 C.3    60  VAL60       0.0019
     18  CG2       13.5620   53.8830   39.4730 C.3    60  VAL60       0.0019
     19  N          7.9600   52.8980   37.6990 N.3    62  SER62      -0.1202
     20  CA         7.2920   51.6180   37.5410 C.3    62  SER62       0.2020
     21  C          5.8160   51.8130   37.1730 C.2    62  SER62       0.2619
     22  O          5.2560   52.9190   37.2750 O.2    62  SER62      -0.2717
     23  CB         7.4290   50.7850   38.8220 C.3    62  SER62       0.2103
     24  OG         6.4970   51.1930   39.8330 O.3    62  SER62      -0.2182
     25  N          5.1810   50.7200   36.7780 N.am   63  ARG63      -0.1965
     26  CA         3.7640   50.7180   36.4790 C.3    63  ARG63       0.1729
     27  C          2.9240   51.2460   37.6490 C.2    63  ARG63       0.2616
     28  O          1.9770   52.0170   37.4380 O.2    63  ARG63      -0.2715
     29  CB         3.3130   49.3030   36.0590 C.3    63  ARG63       0.0348
     30  CG         3.4460   49.0100   34.5470 C.3    63  ARG63       0.0492
     31  CD         3.2600   47.5240   34.2450 C.3    63  ARG63       0.2205
     32  NE         3.9450   46.7000   35.2480 N.pl3  63  ARG63      -0.0865
     33  CZ         4.3880   45.4560   35.0600 C.cat  63  ARG63       0.5346
     34  NH1        4.2610   44.8350   33.9000 N.pl3  63  ARG63       0.1354
     35  NH2        4.9760   44.8260   36.0560 N.pl3  63  ARG63       0.1354
     36  N          3.2660   50.8380   38.8670 N.am   64  LYS64      -0.1963
     37  CA         2.5560   51.2910   40.0570 C.3    64  LYS64       0.1728
     38  C          2.8370   52.7470   40.4060 C.2    64  LYS64       0.2616
     39  O          1.9540   53.4280   40.9270 O.2    64  LYS64      -0.2715
     40  CB         2.8370   50.3850   41.2550 C.3    64  LYS64       0.0311
     41  CG         2.0550   49.0730   41.2280 C.3    64  LYS64       0.0038
     42  CD         1.6890   48.5420   42.6200 C.3    64  LYS64       0.0206
     43  CE         2.6050   47.4250   43.1010 C.3    64  LYS64       0.1093
     44  NZ         2.1290   46.9700   44.4190 N.3    64  LYS64      -0.1314
     45  N          4.0440   53.2330   40.0950 N.am   65  ASP65      -0.1971
     46  CA         4.3860   54.6590   40.2650 C.3    65  ASP65       0.1709
     47  C          3.3940   55.4750   39.4830 C.2    65  ASP65       0.2293
     48  O          2.8810   56.4850   39.9790 O.2    65  ASP65      -0.2864
     49  CB         5.8000   55.0280   39.7740 C.3    65  ASP65       0.1436
     50  CG         6.9470   54.4360   40.6440 C.2    65  ASP65       0.3671
     51  OD1        6.7570   54.1820   41.8680 O.co2  65  ASP65      -0.2456
     52  OD2        8.0630   54.2420   40.0890 O.co2  65  ASP65      -0.2456
     53  N         -0.3770   54.8420   40.9370 N.3    68  ARG68      -0.1245
     54  CA        -0.5030   55.7500   42.0990 C.3    68  ARG68       0.1563
     55  C         -0.7470   57.1760   41.6790 C.2    68  ARG68       0.2260
     56  O         -1.6020   57.8480   42.2390 O.2    68  ARG68      -0.2867
     57  CB         0.7650   55.7530   42.9480 C.3    68  ARG68       0.0307
     58  CG         0.6570   56.5890   44.2540 C.3    68  ARG68       0.0489
     59  CD         2.0260   56.8100   44.9650 C.3    68  ARG68       0.2205
     60  NE         2.8610   55.6080   45.0010 N.pl3  68  ARG68      -0.0865
     61  CZ         2.7520   54.6540   45.9140 C.cat  68  ARG68       0.5346
     62  NH1        1.8450   54.7400   46.8730 N.pl3  68  ARG68       0.1354
     63  NH2        3.5520   53.6040   45.8590 N.pl3  68  ARG68       0.1354
     64  N         11.1390   58.0360   41.3860 N.3    86  THR86      -0.1218
     65  CA        12.1170   57.5460   42.3110 C.3    86  THR86       0.1862
     66  C         13.4390   58.1140   41.7880 C.2    86  THR86       0.2287
     67  O         13.8670   57.8040   40.6680 O.2    86  THR86      -0.2866
     68  CB        12.0800   56.0200   42.3260 C.3    86  THR86       0.1770
     69  OG1       10.8340   55.6040   42.9100 O.3    86  THR86      -0.2211
     70  CG2       13.2450   55.4430   43.1390 C.3    86  THR86       0.0375
     71  N         19.1000   57.1180   45.0660 N.3    90  ASN90      -0.1225
     72  CA        18.4840   55.8960   45.5690 C.3    90  ASN90       0.1785
     73  C         17.8290   55.0330   44.4870 C.2    90  ASN90       0.2597
     74  O         16.7150   54.5390   44.6360 O.2    90  ASN90      -0.2718
     75  CB        17.6110   56.2020   46.7970 C.3    90  ASN90       0.1169
     76  CG        18.4250   56.8150   47.9100 C.2    90  ASN90       0.2627
     77  OD1       18.3210   58.0150   48.1840 O.2    90  ASN90      -0.2716
     78  ND2       19.2970   56.0160   48.5190 N.am   90  ASN90      -0.0877
     79  N         18.5730   54.8780   43.3990 N.am   91  ILE91      -0.1966
     80  CA        18.2820   53.9330   42.3000 C.3    91  ILE91       0.1727
     81  C         19.3910   52.8730   42.2890 C.2    91  ILE91       0.2616
     82  O         20.6040   53.1960   42.4270 O.2    91  ILE91      -0.2715
     83  CB        18.2400   54.6500   40.9380 C.3    91  ILE91       0.0290
     84  CG1       17.1280   55.6910   40.9300 C.3    91  ILE91       0.0022
     85  CG2       17.9630   53.6880   39.7860 C.3    91  ILE91       0.0023
     86  CD1       17.3570   56.7500   39.8960 C.3    91  ILE91       0.0001
     87  N         19.0080   51.6040   42.1730 N.am   92  THR92      -0.1951
     88  CA        20.0540   50.5760   42.0490 C.3    92  THR92       0.1897
     89  C         20.3030   50.1890   40.5750 C.2    92  THR92       0.2313
     90  O         19.3770   49.8840   39.8240 O.2    92  THR92      -0.2863
     91  CB        19.9950   49.4360   43.1250 C.3    92  THR92       0.1794
     92  OG1       20.1500   48.1550   42.5100 O.3    92  THR92      -0.2208
     93  CG2       18.7350   49.4810   43.9270 C.3    92  THR92       0.0378
     94  N         13.1080   44.2560   46.1120 N.3   111  GLN111     -0.1231
     95  CA        11.6870   44.0850   45.6800 C.3   111  GLN111      0.1698
     96  C         11.3500   45.0240   44.5290 C.2   111  GLN111      0.2592
     97  O         10.3690   45.7870   44.5770 O.2   111  GLN111     -0.2718
     98  CB        10.6940   44.1500   46.8650 C.3   111  GLN111      0.0381
     99  CG        10.9690   43.0680   47.9580 C.3   111  GLN111      0.0905
    100  CD        10.3090   43.3080   49.3450 C.2   111  GLN111      0.2608
    101  OE1        9.4970   44.2090   49.5410 O.2   111  GLN111     -0.2717
    102  NE2       10.6580   42.4590   50.2990 N.am  111  GLN111     -0.0878
    103  N         12.1940   44.9510   43.4950 N.am  112  ILE112     -0.1966
    104  CA        12.0160   45.6920   42.2490 C.3   112  ILE112      0.1727
    105  C         12.0390   44.7290   41.0540 C.2   112  ILE112      0.2616
    106  O         12.5100   43.5820   41.1710 O.2   112  ILE112     -0.2715
    107  CB        13.0970   46.7840   42.0950 C.3   112  ILE112      0.0290
    108  CG1       14.4860   46.1810   42.2060 C.3   112  ILE112      0.0022
    109  CG2       12.9620   47.8510   43.1830 C.3   112  ILE112      0.0023
    110  CD1       15.4990   47.1840   42.5850 C.3   112  ILE112      0.0001
    111  N         11.5270   45.1810   39.9110 N.am  113  ASP113     -0.1957
    112  CA        11.4680   44.3240   38.7320 C.3   113  ASP113      0.1840
    113  C         12.6450   44.5440   37.7650 C.2   113  ASP113      0.2622
    114  O         13.0920   43.6050   37.1020 O.2   113  ASP113     -0.2715
    115  CB        10.1340   44.5010   37.9980 C.3   113  ASP113      0.1450
    116  CG         8.9810   43.7430   38.6520 C.2   113  ASP113      0.3671
    117  OD1        9.1520   43.1230   39.7320 O.co2 113  ASP113     -0.2456
    118  OD2        7.8840   43.7830   38.0650 O.co2 113  ASP113     -0.2456
    119  N         13.1920   45.7550   37.6940 N.am  114  ALA114     -0.1963
    120  CA        14.2210   46.0040   36.6860 C.3   114  ALA114      0.1728
    121  C         15.4150   46.8000   37.2070 C.2   114  ALA114      0.2616
    122  O         15.2550   47.6170   38.0700 O.2   114  ALA114     -0.2715
    123  CB        13.5880   46.7260   35.4810 C.3   114  ALA114      0.0334
    124  N         16.6100   46.5670   36.6910 N.am  115  LEU115     -0.1964
    125  CA        17.7420   47.4350   37.0380 C.3   115  LEU115      0.1713
    126  C         18.1830   47.9970   35.7160 C.2   115  LEU115      0.2458
    127  O         18.2270   47.2540   34.7400 O.2   115  LEU115     -0.2730
    128  CB        18.9250   46.7060   37.7070 C.3   115  LEU115      0.0310
    129  CG        18.7770   45.9330   39.0260 C.3   115  LEU115      0.0022
    130  CD1       20.1080   45.3280   39.4800 C.3   115  LEU115      0.0001
    131  CD2       18.2050   46.8040   40.1510 C.3   115  LEU115      0.0001
    132  N         18.4750   49.3080   35.6780 N.am  116  PRO116     -0.2727
    133  CA        19.0730   49.8660   34.4700 C.3   116  PRO116      0.1402
    134  C         20.4920   49.3730   34.4010 C.2   116  PRO116      0.2269
    135  O         21.1220   49.2430   35.4390 O.2   116  PRO116     -0.2865
    136  CB        19.0760   51.3830   34.7180 C.3   116  PRO116      0.0296
    137  CG        18.7570   51.5870   36.2010 C.3   116  PRO116      0.0237
    138  CD        18.5770   50.2170   36.8360 C.3   116  PRO116      0.0939
@<TRIPOS>BOND
     1     1     2    1
     2     8     7    2
     3     7     6    1
     4     2     3    1
     5     5     6    1
     6     5     3   am
     7    34    33    1
     8     6     9    1
     9     3     4    2
    10    31    30    1
    11    31    32    1
    12   134   133    1
    13   134   135    2
    14   133   136    1
    15   133   132    1
    16    30    29    1
    17     9    11    1
    18     9    10    1
    19   136   137    1
    20   127   126    2
    21    33    32    2
    22    33    35    1
    23   123   120    1
    24   132   126   am
    25   132   138    1
    26   126   125    1
    27    29    26    1
    28   137   138    1
    29    26    25    1
    30    26    27    1
    31   120   121    1
    32   120   119    1
    33   124   125    1
    34   124   121   am
    35    25    21   am
    36   125   128    1
    37   114   113    2
    38    21    22    2
    39    21    20    1
    40   121   122    2
    41    17    16    1
    42    28    27    2
    43    13    14    1
    44    13    16    1
    45    13    12    1
    46    20    19    1
    47    20    23    1
    48    27    36   am
    49   119   113   am
    50    14    15    2
    51   128   129    1
    52   113   112    1
    53    16    18    1
    54   115   116    1
    55   115   112    1
    56   118   116   ar
    57   116   117   ar
    58   112   111    1
    59    23    24    1
    60    36    37    1
    61   129   130    1
    62   129   131    1
    63    47    48    2
    64    47    46    1
    65    49    46    1
    66    49    50    1
    67    85    83    1
    68    90    89    2
    69    86    84    1
    70   111   105   am
    71    37    38    1
    72    37    40    1
    73    52    50   ar
    74    45    46    1
    75    45    38   am
    76    38    39    2
    77    89    88    1
    78    50    51   ar
    79    67    66    2
    80    84    83    1
    81    53    54    1
    82    83    80    1
    83   105   106    2
    84   105   104    1
    85    41    40    1
    86    41    42    1
    87    64    65    1
    88    55    54    1
    89    55    56    2
    90    66    65    1
    91    88    87    1
    92    88    91    1
    93   107   108    1
    94   107   104    1
    95   107   109    1
    96    54    57    1
    97    87    81   am
    98   108   110    1
    99   104   103    1
   100    81    80    1
   101    81    82    2
   102    80    79    1
   103    65    68    1
   104    68    69    1
   105    68    70    1
   106    92    91    1
   107    42    43    1
   108    57    58    1
   109    43    44    1
   110    91    93    1
   111    79    73   am
   112   103    96   am
   113    58    59    1
   114    73    74    2
   115    73    72    1
   116    96    97    2
   117    96    95    1
   118    59    60    1
   119    60    61    2
   120    71    72    1
   121    72    75    1
   122    95    94    1
   123    95    98    1
   124    63    61    1
   125    61    62    1
   126    75    76    1
   127    98    99    1
   128    76    77    2
   129    76    78   am
   130    99   100    1
   131   100   101    2
   132   100   102   am
