@<TRIPOS>MOLECULE
tmp/3fwsB00.pdb
 132 126 0 0 0
SMALL
GASTEIGER

@<TRIPOS>ATOM
      1  N          8.9220   49.5120   33.5840 N.3    47  THR47      -0.1218
      2  CA         9.7610   50.4940   34.2770 C.3    47  THR47       0.1862
      3  C         10.2850   51.3880   33.1900 C.2    47  THR47       0.2287
      4  O         10.7510   50.8830   32.1890 O.2    47  THR47      -0.2866
      5  CB        10.9580   49.8590   35.0350 C.3    47  THR47       0.1770
      6  OG1       10.4950   48.9220   36.0250 O.3    47  THR47      -0.2211
      7  CG2       11.6680   50.8980   35.8180 C.3    47  THR47       0.0375
      8  N         13.6780   56.8940   38.0100 N.3    60  VAL60      -0.1245
      9  CA        12.9230   55.7960   37.4220 C.3    60  VAL60       0.1561
     10  C         11.4500   55.9560   37.7170 C.2    60  VAL60       0.2260
     11  O         11.0800   56.5700   38.7120 O.2    60  VAL60      -0.2867
     12  CB        13.3920   54.3830   37.9580 C.3    60  VAL60       0.0252
     13  CG1       14.8300   54.2050   37.6600 C.3    60  VAL60       0.0019
     14  CG2       13.2390   54.2970   39.4640 C.3    60  VAL60       0.0019
     15  N          7.8490   53.4150   37.7890 N.3    62  SER62      -0.1202
     16  CA         7.3100   52.0900   37.6730 C.3    62  SER62       0.2020
     17  C          5.8020   52.2130   37.3360 C.2    62  SER62       0.2619
     18  O          5.1950   53.3710   37.3220 O.2    62  SER62      -0.2717
     19  CB         7.4960   51.3670   38.9840 C.3    62  SER62       0.2103
     20  OG         6.5790   51.9110   39.8990 O.3    62  SER62      -0.2182
     21  N          5.1900   51.0750   37.0710 N.am   63  ARG63      -0.1965
     22  CA         3.7420   51.1010   36.7650 C.3    63  ARG63       0.1729
     23  C          2.9690   51.6500   37.9170 C.2    63  ARG63       0.2616
     24  O          2.0260   52.4350   37.7260 O.2    63  ARG63      -0.2715
     25  CB         3.1720   49.7240   36.3850 C.3    63  ARG63       0.0348
     26  CG         3.5250   49.3610   34.8990 C.3    63  ARG63       0.0492
     27  CD         3.3830   47.8580   34.6820 C.3    63  ARG63       0.2205
     28  NE         4.4470   47.1060   35.3480 N.pl3  63  ARG63      -0.0865
     29  CZ         4.6130   45.7900   35.2110 C.cat  63  ARG63       0.5346
     30  NH1        5.6010   45.1620   35.8100 N.pl3  63  ARG63       0.1354
     31  NH2        3.7640   45.1000   34.5070 N.pl3  63  ARG63       0.1354
     32  N          3.3230   51.2170   39.1340 N.am   64  LYS64      -0.1963
     33  CA         2.6220   51.7800   40.2750 C.3    64  LYS64       0.1728
     34  C          2.8820   53.2380   40.5730 C.2    64  LYS64       0.2616
     35  O          1.9580   53.9300   40.9380 O.2    64  LYS64      -0.2715
     36  CB         2.7400   50.9050   41.4900 C.3    64  LYS64       0.0311
     37  CG         1.6670   49.8890   41.3640 C.3    64  LYS64       0.0038
     38  CD         2.0480   48.6300   41.8870 C.3    64  LYS64       0.0206
     39  CE         1.5940   48.4450   43.3420 C.3    64  LYS64       0.1093
     40  NZ         2.7060   47.6190   43.8670 N.3    64  LYS64      -0.1314
     41  N          4.0870   53.7430   40.3230 N.am   65  ASP65      -0.1971
     42  CA         4.3400   55.2090   40.4390 C.3    65  ASP65       0.1709
     43  C          3.3460   55.9920   39.5750 C.2    65  ASP65       0.2293
     44  O          2.7650   56.9860   40.0210 O.2    65  ASP65      -0.2864
     45  CB         5.7330   55.6090   39.9560 C.3    65  ASP65       0.1436
     46  CG         6.8680   55.0100   40.7830 C.2    65  ASP65       0.3671
     47  OD1        6.7430   54.8860   42.0250 O.co2  65  ASP65      -0.2456
     48  OD2        7.9800   54.7900   40.2150 O.co2  65  ASP65      -0.2456
     49  N         11.1720   58.3960   41.2170 N.3    86  THR86      -0.1218
     50  CA        12.1830   58.0650   42.2070 C.3    86  THR86       0.1862
     51  C         13.4880   58.6310   41.6770 C.2    86  THR86       0.2287
     52  O         13.8490   58.4060   40.5250 O.2    86  THR86      -0.2866
     53  CB        12.3410   56.5360   42.2280 C.3    86  THR86       0.1770
     54  OG1       11.0630   55.9930   42.5260 O.3    86  THR86      -0.2211
     55  CG2       13.3190   56.1070   43.2440 C.3    86  THR86       0.0375
     56  N         19.2820   57.6250   44.8580 N.3    90  ASN90      -0.1225
     57  CA        18.6930   56.3490   45.2940 C.3    90  ASN90       0.1785
     58  C         18.1040   55.4370   44.2000 C.2    90  ASN90       0.2597
     59  O         17.0090   54.9140   44.3290 O.2    90  ASN90      -0.2718
     60  CB        17.7010   56.5810   46.4390 C.3    90  ASN90       0.1169
     61  CG        18.3910   57.0690   47.6900 C.2    90  ASN90       0.2627
     62  OD1       18.1800   58.1910   48.1470 O.2    90  ASN90      -0.2716
     63  ND2       19.2940   56.2530   48.2030 N.am   90  ASN90      -0.0877
     64  N         18.8480   55.2300   43.1300 N.am   91  ILE91      -0.1966
     65  CA        18.4670   54.2370   42.1070 C.3    91  ILE91       0.1727
     66  C         19.4690   53.0970   42.2280 C.2    91  ILE91       0.2616
     67  O         20.6810   53.3320   42.3830 O.2    91  ILE91      -0.2715
     68  CB        18.5700   54.8340   40.7050 C.3    91  ILE91       0.0290
     69  CG1       17.9230   56.2450   40.6220 C.3    91  ILE91       0.0022
     70  CG2       17.9910   53.9280   39.7070 C.3    91  ILE91       0.0023
     71  CD1       16.4760   56.2460   40.5130 C.3    91  ILE91       0.0001
     72  N         18.9870   51.8620   42.2120 N.am   92  THR92      -0.1951
     73  CA        19.8800   50.7360   42.0830 C.3    92  THR92       0.1897
     74  C         20.1310   50.5070   40.5880 C.2    92  THR92       0.2313
     75  O         19.2410   50.3720   39.7860 O.2    92  THR92      -0.2863
     76  CB        19.3110   49.5010   42.8270 C.3    92  THR92       0.1794
     77  OG1       19.0800   49.9170   44.1820 O.3    92  THR92      -0.2208
     78  CG2       20.3100   48.3270   42.7870 C.3    92  THR92       0.0378
     79  N         13.1890   44.5130   46.3510 N.3   111  GLN111     -0.1231
     80  CA        11.7770   44.3770   45.9110 C.3   111  GLN111      0.1698
     81  C         11.4360   45.3250   44.7560 C.2   111  GLN111      0.2592
     82  O         10.4610   46.1070   44.7880 O.2   111  GLN111     -0.2718
     83  CB        10.8500   44.5860   47.1120 C.3   111  GLN111      0.0381
     84  CG        11.1710   43.6210   48.2590 C.3   111  GLN111      0.0905
     85  CD        10.2650   43.8300   49.4880 C.2   111  GLN111      0.2608
     86  OE1        9.4400   44.7180   49.5230 O.2   111  GLN111     -0.2717
     87  NE2       10.4590   43.0420   50.4860 N.am  111  GLN111     -0.0878
     88  N         12.2350   45.2520   43.6990 N.am  112  ILE112     -0.1966
     89  CA        11.9560   46.0490   42.5180 C.3   112  ILE112      0.1727
     90  C         12.0350   45.1100   41.3210 C.2   112  ILE112      0.2616
     91  O         12.5990   44.0080   41.4060 O.2   112  ILE112     -0.2715
     92  CB        12.9730   47.1780   42.3940 C.3   112  ILE112      0.0290
     93  CG1       14.4120   46.5860   42.4330 C.3   112  ILE112      0.0022
     94  CG2       12.7730   48.2360   43.5430 C.3   112  ILE112      0.0023
     95  CD1       15.4480   47.5650   42.6240 C.3   112  ILE112      0.0001
     96  N         11.4570   45.5120   40.2130 N.am  113  ASP113     -0.1957
     97  CA        11.4530   44.6190   39.0540 C.3   113  ASP113      0.1840
     98  C         12.5860   44.7920   38.0670 C.2   113  ASP113      0.2622
     99  O         12.9030   43.8610   37.3680 O.2   113  ASP113     -0.2715
    100  CB        10.1170   44.6630   38.3160 C.3   113  ASP113      0.1450
    101  CG         8.9400   44.2970   39.2420 C.2   113  ASP113      0.3671
    102  OD1        9.1370   43.5440   40.2420 O.co2 113  ASP113     -0.2456
    103  OD2        7.8380   44.8030   38.9900 O.co2 113  ASP113     -0.2456
    104  N         13.1940   45.9710   38.0040 N.am  114  ALA114     -0.1963
    105  CA        14.1820   46.2260   36.9680 C.3   114  ALA114      0.1728
    106  C         15.3420   47.1190   37.4070 C.2   114  ALA114      0.2616
    107  O         15.2010   48.0130   38.2410 O.2   114  ALA114     -0.2715
    108  CB        13.4620   46.8730   35.7570 C.3   114  ALA114      0.0334
    109  N         16.4920   46.9250   36.8120 N.am  115  LEU115     -0.1964
    110  CA        17.5610   47.8770   37.0580 C.3   115  LEU115      0.1713
    111  C         17.9210   48.3990   35.7180 C.2   115  LEU115      0.2458
    112  O         17.9380   47.6620   34.7540 O.2   115  LEU115     -0.2730
    113  CB        18.8260   47.2230   37.6840 C.3   115  LEU115      0.0310
    114  CG        18.6690   46.3740   38.9750 C.3   115  LEU115      0.0022
    115  CD1       20.0770   46.0350   39.5650 C.3   115  LEU115      0.0001
    116  CD2       17.8820   47.1690   39.9540 C.3   115  LEU115      0.0001
    117  N         18.3410   49.6680   35.6680 N.am  116  PRO116     -0.2727
    118  CA        19.0090   50.1210   34.4390 C.3   116  PRO116      0.1402
    119  C         20.4800   49.6170   34.3680 C.2   116  PRO116      0.2269
    120  O         21.1810   49.5220   35.4040 O.2   116  PRO116     -0.2865
    121  CB        18.9670   51.6830   34.5560 C.3   116  PRO116      0.0296
    122  CG        18.9470   51.8780   36.1470 C.3   116  PRO116      0.0237
    123  CD        18.1660   50.7110   36.6950 C.3   116  PRO116      0.0939
    124  N         13.1210   41.0570   35.9740 N.3   133  LYS133     -0.1245
    125  CA        12.7350   39.6730   36.2890 C.3   133  LYS133      0.1561
    126  C         12.3110   38.8740   35.0640 C.2   133  LYS133      0.2260
    127  O         12.2980   37.6380   35.0960 O.2   133  LYS133     -0.2867
    128  CB        11.5970   39.6610   37.2870 C.3   133  LYS133      0.0271
    129  CG        12.0670   40.0460   38.6950 C.3   133  LYS133      0.0035
    130  CD        10.8540   40.5350   39.4850 C.3   133  LYS133      0.0206
    131  CE        11.2840   40.8710   40.9080 C.3   133  LYS133      0.1093
    132  NZ        10.1340   41.5270   41.6080 N.3   133  LYS133     -0.1314
@<TRIPOS>BOND
     1     4     3    2
     2     3     2    1
     3     1     2    1
     4     2     5    1
     5   119   118    1
     6   119   120    2
     7   118   121    1
     8   118   117    1
     9    31    29    1
    10   121   122    1
    11    27    26    1
    12    27    28    1
    13   112   111    2
    14    26    25    1
    15     5     7    1
    16     5     6    1
    17   126   127    2
    18   126   125    1
    19    29    28    2
    20    29    30    1
    21   117   111   am
    22   117   123    1
    23   111   110    1
    24   108   105    1
    25   124   125    1
    26   122   123    1
    27   125   128    1
    28    25    22    1
    29    22    21    1
    30    22    23    1
    31   109   110    1
    32   109   106   am
    33   105   106    1
    34   105   104    1
    35   110   113    1
    36    21    17   am
    37   128   129    1
    38    18    17    2
    39    17    16    1
    40    99    98    2
    41   106   107    2
    42     9    10    1
    43     9    12    1
    44     9     8    1
    45    13    12    1
    46    16    15    1
    47    16    19    1
    48   113   114    1
    49    10    11    2
    50    24    23    2
    51    23    32   am
    52    12    14    1
    53   104    98   am
    54    98    97    1
    55   100    97    1
    56   100   101    1
    57   129   130    1
    58   114   115    1
    59   114   116    1
    60    19    20    1
    61   103   101   ar
    62    97    96    1
    63    32    33    1
    64   101   102   ar
    65   130   131    1
    66    43    44    2
    67    43    42    1
    68    70    68    1
    69    75    74    2
    70    45    42    1
    71    45    46    1
    72    96    90   am
    73    48    46   ar
    74    33    34    1
    75    33    36    1
    76    41    42    1
    77    41    34   am
    78    71    69    1
    79    52    51    2
    80    34    35    2
    81    74    73    1
    82    69    68    1
    83    68    65    1
    84    46    47   ar
    85   131   132    1
    86    49    50    1
    87    90    91    2
    88    90    89    1
    89    37    36    1
    90    37    38    1
    91    51    50    1
    92    38    39    1
    93    73    72    1
    94    73    76    1
    95    65    66    1
    96    65    64    1
    97    50    53    1
    98    72    66   am
    99    53    54    1
   100    53    55    1
   101    66    67    2
   102    92    93    1
   103    92    89    1
   104    92    94    1
   105    93    95    1
   106    89    88    1
   107    78    76    1
   108    76    77    1
   109    64    58   am
   110    39    40    1
   111    88    81   am
   112    58    59    2
   113    58    57    1
   114    81    82    2
   115    81    80    1
   116    56    57    1
   117    57    60    1
   118    80    79    1
   119    80    83    1
   120    60    61    1
   121    83    84    1
   122    61    62    2
   123    61    63   am
   124    84    85    1
   125    85    86    2
   126    85    87   am
