@<TRIPOS>MOLECULE
tmp/3fwvB00.pdb
 174 163 0 0 0
SMALL
GASTEIGER

@<TRIPOS>ATOM
      1  N        -22.0460   22.4460  -25.1120 N.3     8  LYS8       -0.1245
      2  CA       -20.8630   23.3150  -25.2120 C.3     8  LYS8        0.1561
      3  C        -21.2500   24.6870  -25.7330 C.2     8  LYS8        0.2260
      4  O        -20.7940   25.7240  -25.2450 O.2     8  LYS8       -0.2867
      5  CB       -19.8000   22.7110  -26.1360 C.3     8  LYS8        0.0271
      6  CG       -18.4510   23.4330  -26.0850 C.3     8  LYS8        0.0035
      7  CD       -17.5760   23.1140  -27.2870 C.3     8  LYS8        0.0206
      8  CE       -18.0650   23.8400  -28.5340 C.3     8  LYS8        0.1093
      9  NZ       -17.2110   23.5580  -29.7020 N.3     8  LYS8       -0.1314
     10  N        -20.7600   28.2130  -24.2190 N.3    12  ASN12      -0.1240
     11  CA       -20.0680   29.2880  -24.9490 C.3    12  ASN12       0.1653
     12  C        -20.8680   30.5820  -25.0110 C.2    12  ASN12       0.2266
     13  O        -20.3240   31.6670  -24.8220 O.2    12  ASN12      -0.2867
     14  CB       -19.6980   28.8600  -26.3720 C.3    12  ASN12       0.1155
     15  CG       -18.5590   27.8620  -26.4030 C.2    12  ASN12       0.2627
     16  OD1      -17.9340   27.5670  -25.3790 O.2    12  ASN12      -0.2716
     17  ND2      -18.2680   27.3460  -27.5910 N.am   12  ASN12      -0.0877
     18  N        -21.0560   32.1570  -21.3880 N.3    15  TYR15      -0.1227
     19  CA       -19.7660   32.8130  -21.1820 C.3    15  TYR15       0.1736
     20  C        -19.7450   34.1880  -21.8550 C.2    15  TYR15       0.2595
     21  O        -19.3420   35.1900  -21.2470 O.2    15  TYR15      -0.2718
     22  CB       -18.6260   31.9260  -21.7230 C.3    15  TYR15       0.0548
     23  CG       -17.2990   32.6140  -21.9460 C.ar   15  TYR15      -0.0200
     24  CD1      -16.4510   32.8720  -20.8810 C.ar   15  TYR15      -0.0009
     25  CD2      -16.8800   32.9780  -23.2270 C.ar   15  TYR15      -0.0009
     26  CE1      -15.2340   33.4920  -21.0670 C.ar   15  TYR15       0.0417
     27  CE2      -15.6600   33.5970  -23.4240 C.ar   15  TYR15       0.0417
     28  CZ       -14.8380   33.8500  -22.3360 C.ar   15  TYR15       0.1957
     29  OH       -13.6180   34.4620  -22.4950 O.3    15  TYR15      -0.2866
     30  N        -20.2000   34.2320  -23.1040 N.am   16  LYS16      -0.1980
     31  CA       -20.1070   35.4610  -23.8880 C.3    16  LYS16       0.1596
     32  C        -20.9810   36.5280  -23.2670 C.2    16  LYS16       0.2287
     33  O        -20.6670   37.7100  -23.3460 O.2    16  LYS16      -0.2864
     34  CB       -20.4790   35.2510  -25.3600 C.3    16  LYS16       0.0298
     35  CG       -19.4710   34.4170  -26.1600 C.3    16  LYS16       0.0038
     36  CD       -19.8410   34.4500  -27.6490 C.3    16  LYS16       0.0206
     37  CE       -19.3130   33.2450  -28.4200 C.3    16  LYS16       0.1093
     38  NZ       -19.8160   33.2240  -29.8380 N.3    16  LYS16      -0.1314
     39  N        -21.4070   36.7980  -20.2180 N.3    18  LYS18      -0.1245
     40  CA       -20.8460   36.8990  -18.8650 C.3    18  LYS18       0.1561
     41  C        -21.7940   36.2940  -17.8410 C.2    18  LYS18       0.2260
     42  O        -21.9940   36.8020  -16.7460 O.2    18  LYS18      -0.2867
     43  CB       -20.4680   38.3470  -18.5330 C.3    18  LYS18       0.0271
     44  CG       -19.1110   38.7260  -19.1270 C.3    18  LYS18       0.0035
     45  CD       -18.9300   40.2120  -19.3100 C.3    18  LYS18       0.0206
     46  CE       -17.5650   40.5250  -19.9570 C.3    18  LYS18       0.1093
     47  NZ       -16.4160   39.8650  -19.2300 N.3    18  LYS18      -0.1314
     48  N        -21.5540   33.4370  -16.0880 N.3    20  PHE20      -0.1241
     49  CA       -20.3620   32.6090  -15.8640 C.3    20  PHE20       0.1605
     50  C        -20.6490   31.2760  -15.1680 C.2    20  PHE20       0.2264
     51  O        -20.0990   30.2420  -15.5410 O.2    20  PHE20      -0.2867
     52  CB       -19.2850   33.3840  -15.0850 C.3    20  PHE20       0.0534
     53  CG       -18.5980   34.4540  -15.8990 C.ar   20  PHE20      -0.0203
     54  CD1      -18.3290   35.7020  -15.3540 C.ar   20  PHE20      -0.0042
     55  CD2      -18.2370   34.2100  -17.2140 C.ar   20  PHE20      -0.0042
     56  CE1      -17.6960   36.6840  -16.1120 C.ar   20  PHE20      -0.0003
     57  CE2      -17.6170   35.1820  -17.9720 C.ar   20  PHE20      -0.0003
     58  CZ       -17.3460   36.4180  -17.4260 C.ar   20  PHE20      -0.0000
     59  N        -20.7110   23.4100  -19.2850 N.3    27  TYR27      -0.1241
     60  CA       -19.4010   22.8420  -19.6560 C.3    27  TYR27       0.1605
     61  C        -19.1950   21.5050  -18.9470 C.2    27  TYR27       0.2264
     62  O        -18.7300   20.5360  -19.5420 O.2    27  TYR27      -0.2867
     63  CB       -18.2430   23.7820  -19.3280 C.3    27  TYR27       0.0534
     64  CG       -18.1080   24.9400  -20.2820 C.ar   27  TYR27      -0.0201
     65  CD1      -17.6840   26.1820  -19.8290 C.ar   27  TYR27      -0.0009
     66  CD2      -18.3990   24.7950  -21.6410 C.ar   27  TYR27      -0.0009
     67  CE1      -17.5580   27.2540  -20.6880 C.ar   27  TYR27       0.0417
     68  CE2      -18.2630   25.8680  -22.5220 C.ar   27  TYR27       0.0417
     69  CZ       -17.8370   27.1020  -22.0310 C.ar   27  TYR27       0.1957
     70  OH       -17.6900   28.2000  -22.8580 O.3    27  TYR27      -0.2866
     71  N        -11.3970   20.2980  -24.3030 N.3    39  THR39      -0.1218
     72  CA       -11.9550   21.6000  -24.7220 C.3    39  THR39       0.1862
     73  C        -12.7910   22.2820  -23.6370 C.2    39  THR39       0.2287
     74  O        -12.6950   23.4900  -23.4090 O.2    39  THR39      -0.2866
     75  CB       -12.8610   21.4400  -25.9640 C.3    39  THR39       0.1770
     76  OG1      -12.0680   21.0390  -27.0910 O.3    39  THR39      -0.2211
     77  CG2      -13.6080   22.7450  -26.2670 C.3    39  THR39       0.0375
     78  N        -10.6660   23.7630  -20.8930 N.3    42  VAL42      -0.1231
     79  CA        -9.9900   24.9700  -21.3980 C.3    42  VAL42       0.1692
     80  C        -10.9570   26.1550  -21.4380 C.2    42  VAL42       0.2592
     81  O        -10.6120   27.2610  -21.0100 O.2    42  VAL42      -0.2718
     82  CB        -9.2870   24.7600  -22.7340 C.3    42  VAL42       0.0266
     83  CG1       -8.9650   26.0950  -23.3870 C.3    42  VAL42       0.0020
     84  CG2       -8.0210   24.0100  -22.4730 C.3    42  VAL42       0.0020
     85  N        -12.1830   25.9060  -21.8850 N.am   43  ASN43      -0.1974
     86  CA       -13.2280   26.9430  -21.8660 C.3    43  ASN43       0.1688
     87  C        -13.6070   27.3990  -20.4490 C.2    43  ASN43       0.2292
     88  O        -13.8720   28.5730  -20.2190 O.2    43  ASN43      -0.2864
     89  CB       -14.4750   26.4970  -22.6160 C.3    43  ASN43       0.1181
     90  CG       -14.2420   26.3560  -24.1040 C.2    43  ASN43       0.2629
     91  OD1      -13.1280   26.5620  -24.6010 O.2    43  ASN43      -0.2716
     92  ND2      -15.2920   25.9930  -24.8290 N.am   43  ASN43      -0.0877
     93  N        -11.2920   29.8020  -19.3760 N.3    46  ALA46      -0.1245
     94  CA       -11.5700   31.1560  -19.9200 C.3    46  ALA46       0.1562
     95  C        -12.5390   31.8970  -19.0060 C.2    46  ALA46       0.2260
     96  O        -12.4170   33.0960  -18.7790 O.2    46  ALA46      -0.2867
     97  CB       -12.1010   31.1040  -21.3450 C.3    46  ALA46       0.0290
     98  N        -10.5360   33.0670  -16.0820 N.3    49  PHE49      -0.1227
     99  CA        -9.7420   34.1860  -16.5910 C.3    49  PHE49       0.1736
    100  C        -10.5940   35.4600  -16.5910 C.2    49  PHE49       0.2595
    101  O        -10.1960   36.4870  -16.0480 O.2    49  PHE49      -0.2718
    102  CB        -9.2330   33.9070  -18.0080 C.3    49  PHE49       0.0547
    103  CG        -8.3870   35.0160  -18.5940 C.ar   49  PHE49      -0.0202
    104  CD1       -7.0420   34.8120  -18.8610 C.ar   49  PHE49      -0.0042
    105  CD2       -8.9400   36.2530  -18.9040 C.ar   49  PHE49      -0.0042
    106  CE1       -6.2660   35.8220  -19.4210 C.ar   49  PHE49      -0.0003
    107  CE2       -8.1620   37.2660  -19.4560 C.ar   49  PHE49      -0.0003
    108  CZ        -6.8300   37.0480  -19.7150 C.ar   49  PHE49      -0.0000
    109  N        -11.7690   35.3810  -17.2060 N.am   50  GLU50      -0.1979
    110  CA       -12.6230   36.5560  -17.3250 C.3    50  GLU50       0.1602
    111  C        -13.0940   37.0090  -15.9450 C.2    50  GLU50       0.2287
    112  O        -13.2480   38.1980  -15.7180 O.2    50  GLU50      -0.2864
    113  CB       -13.8050   36.3260  -18.2680 C.3    50  GLU50       0.0415
    114  CG       -13.3940   36.2880  -19.7460 C.3    50  GLU50       0.1163
    115  CD       -12.6040   37.5220  -20.1880 C.2    50  GLU50       0.3649
    116  OE1      -12.9080   38.6410  -19.7220 O.co2  50  GLU50      -0.2457
    117  OE2      -11.6830   37.3750  -21.0160 O.co2  50  GLU50      -0.2457
    118  N         -5.3660   21.6420  -28.9120 N.3    77  MET77      -0.1245
    119  CA        -6.0420   21.9930  -27.6510 C.3    77  MET77       0.1570
    120  C         -5.0580   22.0140  -26.4800 C.2    77  MET77       0.2261
    121  O         -5.2000   22.8200  -25.5540 O.2    77  MET77      -0.2867
    122  CB        -7.2430   21.0850  -27.3680 C.3    77  MET77       0.0387
    123  CG        -8.5480   21.6700  -27.9180 C.3    77  MET77       0.0595
    124  SD        -8.9420   23.1780  -26.9880 S.3    77  MET77      -0.1393
    125  CE        -8.3770   22.5700  -25.4230 C.3    77  MET77       0.0692
    126  N         -3.5320   25.2870  -26.9920 N.3    80  TYR80      -0.1241
    127  CA        -4.4190   26.3640  -26.5310 C.3    80  TYR80       0.1605
    128  C         -4.3740   26.4920  -25.0130 C.2    80  TYR80       0.2264
    129  O         -4.3660   27.6080  -24.4660 O.2    80  TYR80      -0.2867
    130  CB        -5.8630   26.1740  -27.0060 C.3    80  TYR80       0.0534
    131  CG        -6.0350   26.4530  -28.4740 C.ar   80  TYR80      -0.0201
    132  CD1       -5.2000   27.3480  -29.1240 C.ar   80  TYR80      -0.0009
    133  CD2       -7.0390   25.8420  -29.2100 C.ar   80  TYR80      -0.0009
    134  CE1       -5.3440   27.6170  -30.4740 C.ar   80  TYR80       0.0417
    135  CE2       -7.1970   26.1150  -30.5660 C.ar   80  TYR80       0.0417
    136  CZ        -6.3370   26.9980  -31.1870 C.ar   80  TYR80       0.1957
    137  OH        -6.4750   27.2840  -32.5230 O.3    80  TYR80      -0.2866
    138  N         -3.4930   29.8010  -23.0910 N.3    84  ARG84      -0.1245
    139  CA        -4.3860   30.4150  -22.1070 C.3    84  ARG84       0.1563
    140  C         -3.5530   30.7890  -20.8830 C.2    84  ARG84       0.2260
    141  O         -3.6790   31.8860  -20.3510 O.2    84  ARG84      -0.2867
    142  CB        -5.5740   29.4970  -21.7400 C.3    84  ARG84       0.0307
    143  CG        -6.3920   29.9520  -20.5130 C.3    84  ARG84       0.0489
    144  CD        -7.7510   30.5630  -20.8240 C.3    84  ARG84       0.2205
    145  NE        -7.8730   31.0730  -22.1900 N.pl3  84  ARG84      -0.0865
    146  CZ        -8.6240   30.4920  -23.1190 C.cat  84  ARG84       0.5346
    147  NH1       -9.3060   29.4040  -22.8090 N.pl3  84  ARG84       0.1354
    148  NH2       -8.7010   30.9970  -24.3450 N.pl3  84  ARG84       0.1354
    149  N         -1.5960   33.8400  -21.5800 N.3    87  ASN87      -0.1240
    150  CA        -2.4870   34.9980  -21.5430 C.3    87  ASN87       0.1653
    151  C         -2.7940   35.4350  -20.1270 C.2    87  ASN87       0.2266
    152  O         -2.9870   36.6280  -19.8670 O.2    87  ASN87      -0.2867
    153  CB        -3.7940   34.7420  -22.3050 C.3    87  ASN87       0.1155
    154  CG        -3.5750   34.6810  -23.8110 C.2    87  ASN87       0.2627
    155  OD1       -2.5250   35.0940  -24.3000 O.2    87  ASN87      -0.2716
    156  ND2       -4.5490   34.1550  -24.5460 N.am   87  ASN87      -0.0877
    157  N         -1.9110   32.8730  -34.3970 N.3   113  LYS113     -0.1245
    158  CA        -2.4570   33.7830  -33.3860 C.3   113  LYS113      0.1561
    159  C         -1.4920   33.8620  -32.2210 C.2   113  LYS113      0.2260
    160  O         -1.1380   34.9340  -31.7510 O.2   113  LYS113     -0.2867
    161  CB        -3.8570   33.3590  -32.9090 C.3   113  LYS113      0.0271
    162  CG        -4.9430   33.6570  -33.9380 C.3   113  LYS113      0.0035
    163  CD        -6.3320   33.1340  -33.5440 C.3   113  LYS113      0.0206
    164  CE        -7.2530   33.0760  -34.7660 C.3   113  LYS113      0.1093
    165  NZ        -8.7150   33.2360  -34.4360 N.3   113  LYS113     -0.1314
    166  N          0.7810   36.9260  -30.6080 N.3   117  LYS117     -0.1245
    167  CA         0.6550   37.3260  -29.2110 C.3   117  LYS117      0.1561
    168  C          2.0330   37.3120  -28.5610 C.2   117  LYS117      0.2260
    169  O          2.3900   38.2020  -27.7850 O.2   117  LYS117     -0.2867
    170  CB        -0.2820   36.3770  -28.4610 C.3   117  LYS117      0.0271
    171  CG        -0.5240   36.7610  -27.0150 C.3   117  LYS117      0.0035
    172  CD        -1.2830   38.0610  -26.9140 C.3   117  LYS117      0.0206
    173  CE        -1.5140   38.4100  -25.4570 C.3   117  LYS117      0.1093
    174  NZ        -2.9490   38.7130  -25.1740 N.3   117  LYS117     -0.1314
@<TRIPOS>BOND
     1   164   165    1
     2   164   163    1
     3   157   158    1
     4   162   163    1
     5   162   161    1
     6   158   161    1
     7   158   159    1
     8   137   136    1
     9   159   160    2
    10   136   135   ar
    11   136   134   ar
    12   166   167    1
    13   135   133   ar
    14   134   132   ar
    15    38    37    1
    16     9     8    1
    17   167   168    1
    18   167   170    1
    19   133   131   ar
    20   132   131   ar
    21   118   119    1
    22   168   169    2
    23     8     7    1
    24   131   130    1
    25   170   171    1
    26    37    36    1
    27   123   122    1
    28   123   124    1
    29   119   122    1
    30   119   120    1
    31    36    35    1
    32    17    15   am
    33     7     6    1
    34    76    75    1
    35   171   172    1
    36   130   127    1
    37   126   127    1
    38   124   125    1
    39   172   173    1
    40   127   128    1
    41   120   121    2
    42    15    14    1
    43    15    16    2
    44    14    11    1
    45    77    75    1
    46    35    34    1
    47     5     6    1
    48     5     2    1
    49    75    72    1
    50     3     4    2
    51     3     2    1
    52   173   174    1
    53    34    31    1
    54     2     1    1
    55   128   129    2
    56    12    11    1
    57    12    13    2
    58    11    10    1
    59    92    90   am
    60    72    71    1
    61    72    73    1
    62    91    90    2
    63   156   154   am
    64   148   146    1
    65   155   154    2
    66    90    89    1
    67    31    32    1
    68    31    30    1
    69   154   153    1
    70    73    74    2
    71    27    25   ar
    72    27    28   ar
    73    83    82    1
    74    33    32    2
    75    25    23   ar
    76   146   147    1
    77   146   145    2
    78    30    20   am
    79   138   139    1
    80    70    69    1
    81    82    84    1
    82    82    79    1
    83    89    86    1
    84    68    69   ar
    85    68    66   ar
    86    29    28    1
    87    28    26   ar
    88   153   150    1
    89   145   144    1
    90   139   142    1
    91   139   140    1
    92    69    67   ar
    93    23    22    1
    94    23    24   ar
    95    85    86    1
    96    85    80   am
    97    86    87    1
    98    20    21    2
    99    20    19    1
   100   142   143    1
   101    22    19    1
   102    66    64   ar
   103   149   150    1
   104   150   151    1
   105    80    79    1
   106    80    81    2
   107    79    78    1
   108    18    19    1
   109    97    94    1
   110    26    24   ar
   111   117   115   ar
   112   140   141    2
   113   144   143    1
   114    67    65   ar
   115    87    88    2
   116    64    65   ar
   117    64    63    1
   118    39    40    1
   119   115   114    1
   120   115   116   ar
   121   151   152    2
   122    46    45    1
   123    46    47    1
   124    94    93    1
   125    94    95    1
   126   114   113    1
   127   108   107   ar
   128   108   106   ar
   129    60    63    1
   130    60    59    1
   131    60    61    1
   132    62    61    2
   133   107   105   ar
   134   106   104   ar
   135    45    44    1
   136    44    43    1
   137    95    96    2
   138   105   103   ar
   139    40    43    1
   140    40    41    1
   141   104   103   ar
   142   103   102    1
   143   113   110    1
   144   102    99    1
   145    57    58   ar
   146    57    55   ar
   147    41    42    2
   148    58    56   ar
   149   110   109    1
   150   110   111    1
   151    55    53   ar
   152   109   100   am
   153   100    99    1
   154   100   101    2
   155    99    98    1
   156    56    54   ar
   157    48    49    1
   158   111   112    2
   159    53    54   ar
   160    53    52    1
   161    49    50    1
   162    49    52    1
   163    51    50    2
