@<TRIPOS>MOLECULE
tmp/3fwyB00.pdb
 147 140 0 0 0
SMALL
GASTEIGER

@<TRIPOS>ATOM
      1  N          4.2270   55.7940   79.9880 N.3    11  GLY11      -0.1210
      2  CA         3.1850   56.7970   80.1250 C.3    11  GLY11       0.1956
      3  C          1.9890   56.2240   80.8570 C.2    11  GLY11       0.2612
      4  O          1.6160   55.0640   80.6420 O.2    11  GLY11      -0.2717
      5  N          1.4020   57.0300   81.7360 N.am   12  GLY12      -0.1942
      6  CA         0.1470   56.6750   82.4100 C.3    12  GLY12       0.2014
      7  C          0.1950   55.6160   83.4980 C.2    12  GLY12       0.2639
      8  O         -0.8560   55.1460   83.9430 O.2    12  GLY12      -0.2714
      9  N          1.3860   55.2520   83.9560 N.am   13  ILE13      -0.1963
     10  CA         1.5630   54.1400   84.9020 C.3    13  ILE13       0.1727
     11  C          1.4900   54.6180   86.3660 C.2    13  ILE13       0.2617
     12  O          1.3230   53.8090   87.2830 O.2    13  ILE13      -0.2715
     13  CB         2.9180   53.4060   84.6350 C.3    13  ILE13       0.0290
     14  CG1        2.9710   52.0190   85.2920 C.3    13  ILE13       0.0022
     15  CG2        4.0880   54.2440   85.1310 C.3    13  ILE13       0.0023
     16  CD1        1.8390   51.0710   84.9000 C.3    13  ILE13       0.0001
     17  N          1.6150   55.9260   86.5870 N.am   14  GLY14      -0.1940
     18  CA         1.5700   56.4760   87.9400 C.3    14  GLY14       0.2014
     19  C          2.7820   57.2660   88.3880 C.2    14  GLY14       0.2639
     20  O          2.9940   57.4310   89.5870 O.2    14  GLY14      -0.2714
     21  N          3.5670   57.7930   87.4460 N.am   15  LYS15      -0.1963
     22  CA         4.7630   58.5560   87.8050 C.3    15  LYS15       0.1728
     23  C          4.4360   59.8250   88.6000 C.2    15  LYS15       0.2617
     24  O          5.0520   60.1050   89.6340 O.2    15  LYS15      -0.2715
     25  CB         5.5570   58.9280   86.5540 C.3    15  LYS15       0.0311
     26  CG         6.1210   57.7430   85.7980 C.3    15  LYS15       0.0038
     27  CD         6.9670   58.1620   84.6040 C.3    15  LYS15       0.0206
     28  CE         6.2020   58.9540   83.5530 C.3    15  LYS15       0.1093
     29  NZ         5.0070   58.2710   82.9900 N.3    15  LYS15      -0.1314
     30  N          3.4720   60.5960   88.1170 N.am   16  SER16      -0.1936
     31  CA         3.1260   61.8550   88.7750 C.3    16  SER16       0.2055
     32  C          2.3870   61.6160   90.0880 C.2    16  SER16       0.2643
     33  O          2.5520   62.3700   91.0400 O.2    16  SER16      -0.2714
     34  CB         2.3370   62.7370   87.8160 C.3    16  SER16       0.2130
     35  OG         3.1230   62.9960   86.6660 O.3    16  SER16      -0.2179
     36  N          1.6170   60.5360   90.1470 N.am   17  THR17      -0.1950
     37  CA         0.9850   60.1120   91.3920 C.3    17  THR17       0.1897
     38  C          2.0290   59.7670   92.4400 C.2    17  THR17       0.2313
     39  O          1.9630   60.2520   93.5680 O.2    17  THR17      -0.2863
     40  CB         0.0680   58.9040   91.1580 C.3    17  THR17       0.1794
     41  OG1       -0.9590   59.2680   90.2330 O.3    17  THR17      -0.2208
     42  CG2       -0.5750   58.4420   92.4770 C.3    17  THR17       0.0378
     43  N          7.8100   66.2160   81.4260 N.3    39  ASP39      -0.1239
     44  CA         6.8560   65.3980   80.6840 C.3    39  ASP39       0.1674
     45  C          5.9980   66.3090   79.8020 C.2    39  ASP39       0.2266
     46  O          5.4910   67.3170   80.2900 O.2    39  ASP39      -0.2867
     47  CB         5.9840   64.6460   81.6960 C.3    39  ASP39       0.1410
     48  CG         5.2080   63.4880   81.0850 C.2    39  ASP39       0.3668
     49  OD1        4.6140   63.6490   80.0010 O.co2  39  ASP39      -0.2456
     50  OD2        5.1600   62.4080   81.7230 O.co2  39  ASP39      -0.2456
     51  N          3.0580   65.8300   78.8780 N.3    41  LYS41      -0.1245
     52  CA         1.7820   65.9060   79.5890 C.3    41  LYS41       0.1561
     53  C          2.0860   66.5900   80.9120 C.2    41  LYS41       0.2260
     54  O          2.5700   65.9580   81.8510 O.2    41  LYS41      -0.2867
     55  CB         1.1660   64.5250   79.7920 C.3    41  LYS41       0.0271
     56  CG        -0.2530   64.5820   80.3310 C.3    41  LYS41       0.0035
     57  CD        -0.8270   63.1920   80.5210 C.3    41  LYS41       0.0206
     58  CE        -0.1560   62.4710   81.6670 C.3    41  LYS41       0.1093
     59  NZ        -0.6460   61.0650   81.8500 N.3    41  LYS41      -0.1314
     60  N          1.1590   67.8740   83.7880 N.3    43  ASP43      -0.1239
     61  CA         0.4230   67.9050   85.0580 C.3    43  ASP43       0.1674
     62  C          1.1650   67.2140   86.2160 C.2    43  ASP43       0.2266
     63  O          0.5390   66.8190   87.2010 O.2    43  ASP43      -0.2867
     64  CB        -0.9830   67.3240   84.8880 C.3    43  ASP43       0.1410
     65  CG        -0.9870   65.8240   84.6460 C.2    43  ASP43       0.3668
     66  OD1        0.0930   65.2460   84.3940 O.co2  43  ASP43      -0.2456
     67  OD2       -2.0840   65.2190   84.6960 O.co2  43  ASP43      -0.2456
     68  N          2.7310   49.8770   91.2210 N.3   182  ASN182     -0.1225
     69  CA         1.6390   50.8230   91.4000 C.3   182  ASN182      0.1785
     70  C          0.3560   50.4090   90.6960 C.2   182  ASN182      0.2597
     71  O          0.3760   49.9330   89.5600 O.2   182  ASN182     -0.2718
     72  CB         2.0520   52.2180   90.9270 C.3   182  ASN182      0.1169
     73  CG         0.9630   53.2470   91.1390 C.2   182  ASN182      0.2627
     74  OD1        0.5750   53.5130   92.2700 O.2   182  ASN182     -0.2716
     75  ND2        0.4600   53.8280   90.0560 N.am  182  ASN182     -0.0877
     76  N         -0.7560   50.5840   91.4040 N.am  183  ARG183     -0.1979
     77  CA        -2.0930   50.3820   90.8620 C.3   183  ARG183      0.1597
     78  C         -2.3280   48.9240   90.5070 C.2   183  ARG183      0.2287
     79  O         -2.8560   48.6030   89.4460 O.2   183  ARG183     -0.2864
     80  CB        -2.3190   51.2910   89.6600 C.3   183  ARG183      0.0334
     81  CG        -3.7600   51.6010   89.3740 C.3   183  ARG183      0.0492
     82  CD        -3.8710   52.5730   88.2330 C.3   183  ARG183      0.2205
     83  NE        -3.2060   52.0490   87.0420 N.pl3 183  ARG183     -0.0865
     84  CZ        -2.6010   52.7800   86.1050 C.cat 183  ARG183      0.5346
     85  NH1       -2.0360   52.1690   85.0710 N.pl3 183  ARG183      0.1354
     86  NH2       -2.5490   54.1080   86.1850 N.pl3 183  ARG183      0.1354
     87  N          1.8870   50.1260   95.9450 N.3   205  MET205     -0.1231
     88  CA         0.7050   50.9450   96.1320 C.3   205  MET205      0.1687
     89  C         -0.4590   50.2940   95.3940 C.2   205  MET205      0.2434
     90  O         -0.4320   50.2000   94.1700 O.2   205  MET205     -0.2733
     91  CB         0.9570   52.3450   95.5730 C.3   205  MET205      0.0400
     92  CG        -0.1050   53.3620   95.9310 C.3   205  MET205      0.0596
     93  SD        -0.1180   53.7350   97.6920 S.3   205  MET205     -0.1393
     94  CE        -1.5300   54.8260   97.7590 C.3   205  MET205      0.0692
     95  N         -1.4850   49.8280   96.1310 N.am  206  PRO206     -0.2718
     96  CA        -2.6180   49.2510   95.4160 C.3   206  PRO206      0.1535
     97  C         -3.3780   50.2680   94.5750 C.2   206  PRO206      0.2599
     98  O         -3.1130   51.4630   94.6580 O.2   206  PRO206     -0.2715
     99  CB        -3.5280   48.7310   96.5400 C.3   206  PRO206      0.0310
    100  CG        -2.6930   48.7190   97.7680 C.3   206  PRO206      0.0237
    101  CD        -1.6810   49.7860   97.5930 C.3   206  PRO206      0.0939
    102  N         -4.3170   49.7810   93.7750 N.am  207  ASP207     -0.1958
    103  CA        -5.2440   50.6400   93.0410 C.3   207  ASP207      0.1840
    104  C         -6.3090   51.1880   94.0000 C.2   207  ASP207      0.2621
    105  O         -7.2190   50.4640   94.4170 O.2   207  ASP207     -0.2715
    106  CB        -5.8820   49.8460   91.8970 C.3   207  ASP207      0.1450
    107  CG        -6.8100   50.6830   91.0240 C.2   207  ASP207      0.3671
    108  OD1       -7.0790   50.2460   89.8850 O.co2 207  ASP207     -0.2456
    109  OD2       -7.2950   51.7370   91.4680 O.co2 207  ASP207     -0.2456
    110  N         -6.1890   52.4680   94.3410 N.am  208  LEU208     -0.1977
    111  CA        -7.0690   53.0880   95.3300 C.3   208  LEU208      0.1596
    112  C         -7.9870   54.1480   94.7230 C.2   208  LEU208      0.2287
    113  O         -7.5340   55.0540   94.0200 O.2   208  LEU208     -0.2864
    114  CB        -6.2360   53.6970   96.4560 C.3   208  LEU208      0.0297
    115  CG        -5.3640   52.7150   97.2430 C.3   208  LEU208      0.0022
    116  CD1       -4.6750   53.4350   98.3920 C.3   208  LEU208      0.0001
    117  CD2       -6.1740   51.5440   97.7600 C.3   208  LEU208      0.0001
    118  N         -7.0290   57.7590   95.3600 N.3   211  ILE211     -0.1231
    119  CA        -5.9340   58.3090   94.5530 C.3   211  ILE211      0.1692
    120  C         -6.4720   58.8920   93.2500 C.2   211  ILE211      0.2591
    121  O         -6.1250   60.0130   92.8650 O.2   211  ILE211     -0.2718
    122  CB        -4.8550   57.2510   94.2390 C.3   211  ILE211      0.0266
    123  CG1       -4.1560   56.8200   95.5290 C.3   211  ILE211      0.0019
    124  CG2       -3.8150   57.8000   93.2370 C.3   211  ILE211      0.0020
    125  CD1       -2.9890   55.8880   95.3020 C.3   211  ILE211      0.0001
    126  N         -7.3250   58.1270   92.5790 N.am  212  ARG212     -0.1980
    127  CA        -7.9330   58.5630   91.3290 C.3   212  ARG212      0.1597
    128  C         -8.7610   59.8190   91.5640 C.2   212  ARG212      0.2287
    129  O         -8.6960   60.7760   90.7860 O.2   212  ARG212     -0.2864
    130  CB        -8.7910   57.4430   90.7420 C.3   212  ARG212      0.0334
    131  CG        -9.2900   57.7180   89.3350 C.3   212  ARG212      0.0492
    132  CD        -9.7090   56.4440   88.6120 C.3   212  ARG212      0.2205
    133  NE       -10.3740   55.4960   89.5050 N.pl3 212  ARG212     -0.0865
    134  CZ        -9.8530   54.3520   89.9540 C.cat 212  ARG212      0.5346
    135  NH1       -8.6330   53.9570   89.6000 N.pl3 212  ARG212      0.1354
    136  NH2      -10.5730   53.5900   90.7690 N.pl3 212  ARG212      0.1354
    137  N         -6.7220   63.2030   92.0820 N.3   215  ARG215     -0.1245
    138  CA        -6.2930   63.8840   90.8650 C.3   215  ARG215      0.1563
    139  C         -7.4100   64.7830   90.3460 C.2   215  ARG215      0.2260
    140  O         -7.1720   65.9230   89.9570 O.2   215  ARG215     -0.2867
    141  CB        -5.8530   62.8770   89.8000 C.3   215  ARG215      0.0307
    142  CG        -5.4670   63.4770   88.4400 C.3   215  ARG215      0.0489
    143  CD        -4.4830   64.6330   88.5720 C.3   215  ARG215      0.2205
    144  NE        -4.1570   65.2470   87.2860 N.pl3 215  ARG215     -0.0865
    145  CZ        -4.9590   66.0590   86.6010 C.cat 215  ARG215      0.5346
    146  NH1       -4.5440   66.5610   85.4470 N.pl3 215  ARG215      0.1354
    147  NH2       -6.1840   66.3550   87.0430 N.pl3 215  ARG215      0.1354
@<TRIPOS>BOND
     1    51    52    1
     2    52    55    1
     3    52    53    1
     4    55    56    1
     5    45    46    2
     6    45    44    1
     7     1     2    1
     8    49    48   ar
     9     2     3    1
    10    56    57    1
    11    57    58    1
    12     4     3    2
    13    44    43    1
    14    44    47    1
    15     3     5   am
    16    53    54    2
    17    48    47    1
    18    48    50   ar
    19    58    59    1
    20     5     6    1
    21     6     7    1
    22    29    28    1
    23     7     8    2
    24     7     9   am
    25    28    27    1
    26    60    61    1
    27     9    10    1
    28    66    65   ar
    29    27    26    1
    30    13    10    1
    31    13    15    1
    32    13    14    1
    33    65    67   ar
    34    65    64    1
    35    64    61    1
    36    16    14    1
    37    10    11    1
    38    61    62    1
    39    85    84    1
    40   146   145    1
    41    26    25    1
    42    84    86    1
    43    84    83    2
    44    62    63    2
    45    11    17   am
    46    11    12    2
    47    25    22    1
    48    17    18    1
    49   145   147    1
    50   145   144    2
    51    35    34    1
    52    83    82    1
    53   144   143    1
    54    21    22    1
    55    21    19   am
    56    22    23    1
    57    34    31    1
    58    18    19    1
    59    30    23   am
    60    30    31    1
    61    82    81    1
    62    19    20    2
    63   142   143    1
    64   142   141    1
    65    23    24    2
    66   132   131    1
    67   132   133    1
    68    31    32    1
    69   131   130    1
    70    81    80    1
    71    79    78    2
    72   133   134    2
    73    71    70    2
    74   135   134    1
    75    80    77    1
    76   141   138    1
    77   108   107   ar
    78   134   136    1
    79   140   139    2
    80    75    73   am
    81    32    36   am
    82    32    33    2
    83    36    37    1
    84    41    40    1
    85   139   138    1
    86    78    77    1
    87    70    69    1
    88    70    76   am
    89   130   127    1
    90   129   128    2
    91    77    76    1
    92   138   137    1
    93    72    73    1
    94    72    69    1
    95   107   109   ar
    96   107   106    1
    97    73    74    2
    98    40    37    1
    99    40    42    1
   100    68    69    1
   101   127   128    1
   102   127   126    1
   103    37    38    1
   104   106   103    1
   105    38    39    2
   106   126   120   am
   107   121   120    2
   108   103   102    1
   109   103   104    1
   110   124   122    1
   111   120   119    1
   112   102    97   am
   113   104   110   am
   114   104   105    2
   115   113   112    2
   116    90    89    2
   117   122   119    1
   118   122   123    1
   119   110   111    1
   120   119   118    1
   121    97    98    2
   122    97    96    1
   123   112   111    1
   124   125   123    1
   125   111   114    1
   126    89    95   am
   127    89    88    1
   128    96    95    1
   129    96    99    1
   130    91    92    1
   131    91    88    1
   132    92    93    1
   133    87    88    1
   134    95   101    1
   135   114   115    1
   136    99   100    1
   137   115   117    1
   138   115   116    1
   139   101   100    1
   140    93    94    1
