@<TRIPOS>MOLECULE
tmp/3fwzA00.pdb
 145 137 0 0 0
SMALL
GASTEIGER

@<TRIPOS>ATOM
      1  N         25.9350   23.6410   46.5090 N.3    13  VAL13      -0.1231
      2  CA        24.6200   23.2500   47.0290 C.3    13  VAL13       0.1692
      3  C         24.4620   23.8130   48.4410 C.2    13  VAL13       0.2592
      4  O         25.1980   23.4240   49.3600 O.2    13  VAL13      -0.2718
      5  CB        24.4540   21.7130   47.0670 C.3    13  VAL13       0.0266
      6  CG1       23.1010   21.3470   47.6580 C.3    13  VAL13       0.0020
      7  CG2       24.5930   21.1250   45.6560 C.3    13  VAL13       0.0020
      8  N         23.4920   24.7120   48.6150 N.am   14  GLY14      -0.1957
      9  CA        23.2520   25.3540   49.9020 C.3    14  GLY14       0.1869
     10  C         23.8800   26.7440   50.0100 C.2    14  GLY14       0.2309
     11  O         25.0140   26.9760   49.6030 O.2    14  GLY14      -0.2863
     12  N         23.3930   28.6890   53.1170 N.3    16  GLY16      -0.1210
     13  CA        23.0850   29.0030   54.5150 C.3    16  GLY16       0.1956
     14  C         24.3510   29.5060   55.1740 C.2    16  GLY16       0.2612
     15  O         25.1490   30.2040   54.5370 O.2    16  GLY16      -0.2717
     16  N         24.5580   29.1120   56.4260 N.am   17  ARG17      -0.1965
     17  CA        25.7500   29.5290   57.1930 C.3    17  ARG17       0.1729
     18  C         27.0400   29.1960   56.4620 C.2    17  ARG17       0.2616
     19  O         27.9860   30.0270   56.4140 O.2    17  ARG17      -0.2715
     20  CB        25.7720   28.8270   58.5430 C.3    17  ARG17       0.0348
     21  CG        24.6920   29.3420   59.4970 C.3    17  ARG17       0.0492
     22  CD        24.5450   28.3600   60.6260 C.3    17  ARG17       0.2205
     23  NE        24.0000   27.0480   60.1600 N.pl3  17  ARG17      -0.0865
     24  CZ        23.8910   25.9720   60.9340 C.cat  17  ARG17       0.5346
     25  NH1       24.3330   25.9940   62.2000 N.pl3  17  ARG17       0.1354
     26  NH2       23.3850   24.8370   60.4220 N.pl3  17  ARG17       0.1354
     27  N         27.1020   27.9620   55.9560 N.am   18  VAL18      -0.1963
     28  CA        28.3430   27.4830   55.3130 C.3    18  VAL18       0.1727
     29  C         28.4280   27.9930   53.8790 C.2    18  VAL18       0.2616
     30  O         29.4240   28.6080   53.4860 O.2    18  VAL18      -0.2715
     31  CB        28.4190   25.9430   55.3100 C.3    18  VAL18       0.0290
     32  CG1       29.7320   25.4740   54.6340 C.3    18  VAL18       0.0023
     33  CG2       28.2980   25.3830   56.7540 C.3    18  VAL18       0.0023
     34  N         27.3720   27.7420   53.0980 N.am   19  GLY19      -0.1955
     35  CA        27.3960   28.0660   51.6590 C.3    19  GLY19       0.1869
     36  C         27.5480   29.5610   51.3760 C.2    19  GLY19       0.2309
     37  O         28.2180   29.9550   50.4030 O.2    19  GLY19      -0.2863
     38  N         22.7270   25.9310   43.9570 N.3    36  ILE36      -0.1231
     39  CA        21.4490   25.2470   44.0530 C.3    36  ILE36       0.1692
     40  C         20.9360   25.4340   45.4810 C.2    36  ILE36       0.2592
     41  O         21.6650   25.1720   46.4400 O.2    36  ILE36      -0.2718
     42  CB        21.5810   23.7360   43.7360 C.3    36  ILE36       0.0266
     43  CG1       21.8850   23.5410   42.2570 C.3    36  ILE36       0.0019
     44  CG2       20.2870   22.9790   44.0460 C.3    36  ILE36       0.0020
     45  CD1       22.3700   22.1140   41.9240 C.3    36  ILE36       0.0001
     46  N         19.6860   25.8980   45.6040 N.am   37  GLU37      -0.1966
     47  CA        19.0250   26.0270   46.9110 C.3    37  GLU37       0.1733
     48  C         17.5790   25.5660   46.8630 C.2    37  GLU37       0.2617
     49  O         16.8760   25.8400   45.8940 O.2    37  GLU37      -0.2715
     50  CB        19.0570   27.4820   47.4070 C.3    37  GLU37       0.0429
     51  CG        20.0570   27.7240   48.5180 C.3    37  GLU37       0.1163
     52  CD        19.6010   27.1640   49.8560 C.2    37  GLU37       0.3649
     53  OE1       20.3940   27.2330   50.8120 O.co2  37  GLU37      -0.2457
     54  OE2       18.4450   26.6870   49.9920 O.co2  37  GLU37      -0.2457
     55  N         17.1160   24.9110   47.9190 N.am   38  THR38      -0.1937
     56  CA        15.6640   24.6200   48.0430 C.3    38  THR38       0.2028
     57  C         14.8710   25.8560   48.4590 C.2    38  THR38       0.2642
     58  O         13.6420   25.9150   48.2750 O.2    38  THR38      -0.2714
     59  CB        15.3810   23.5230   49.0740 C.3    38  THR38       0.1808
     60  OG1       16.1180   23.8040   50.2660 O.3    38  THR38      -0.2208
     61  CG2       15.7730   22.1350   48.5440 C.3    38  THR38       0.0379
     62  N         15.5660   26.8440   49.0240 N.am   39  SER39      -0.1949
     63  CA        14.8880   28.0180   49.5590 C.3    39  SER39       0.1924
     64  C         14.6170   29.0340   48.4600 C.2    39  SER39       0.2314
     65  O         15.5460   29.5660   47.8440 O.2    39  SER39      -0.2863
     66  CB        15.7170   28.6520   50.6940 C.3    39  SER39       0.2116
     67  OG        15.2670   29.9760   50.9440 O.3    39  SER39      -0.2180
     68  N         16.2450   32.4230   49.3460 N.3    42  ARG42      -0.1245
     69  CA        17.6680   32.4850   49.0490 C.3    42  ARG42       0.1563
     70  C         17.9460   32.5850   47.5490 C.2    42  ARG42       0.2260
     71  O         18.7980   33.3690   47.1410 O.2    42  ARG42      -0.2867
     72  CB        18.4050   31.3120   49.6670 C.3    42  ARG42       0.0307
     73  CG        18.7110   31.5880   51.1330 C.3    42  ARG42       0.0489
     74  CD        19.2280   30.3710   51.8640 C.3    42  ARG42       0.2205
     75  NE        19.0770   30.4710   53.3280 N.pl3  42  ARG42      -0.0865
     76  CZ        19.0850   31.6060   54.0370 C.cat  42  ARG42       0.5346
     77  NH1       19.2280   32.7950   53.4610 N.pl3  42  ARG42       0.1354
     78  NH2       18.9350   31.5510   55.3410 N.pl3  42  ARG42       0.1354
     79  N         15.5910   24.3060   43.7920 N.3    56  GLY56      -0.1210
     80  CA        15.2340   22.8910   43.8170 C.3    56  GLY56       0.1956
     81  C         16.1830   22.0940   44.6940 C.2    56  GLY56       0.2612
     82  O         17.1090   22.6260   45.2920 O.2    56  GLY56      -0.2717
     83  N         15.9260   20.7960   44.7540 N.am   57  ASN57      -0.1960
     84  CA        16.6870   19.9100   45.6270 C.3    57  ASN57       0.1819
     85  C         17.7880   19.2790   44.7880 C.2    57  ASN57       0.2621
     86  O         17.5240   18.7470   43.7090 O.2    57  ASN57      -0.2715
     87  CB        15.7340   18.8540   46.1760 C.3    57  ASN57       0.1195
     88  CG        16.3270   18.0350   47.2990 C.2    57  ASN57       0.2630
     89  OD1       17.3830   17.4290   47.1560 O.2    57  ASN57      -0.2716
     90  ND2       15.6320   18.0040   48.4320 N.am   57  ASN57      -0.0877
     91  N         19.0240   19.3660   45.2730 N.am   58  ALA58      -0.1977
     92  CA        20.1760   18.8040   44.5460 C.3    58  ALA58       0.1597
     93  C         20.1180   17.2860   44.3740 C.2    58  ALA58       0.2287
     94  O         20.8850   16.7350   43.5890 O.2    58  ALA58      -0.2864
     95  CB        21.4960   19.1910   45.2440 C.3    58  ALA58       0.0319
     96  N         27.1280   21.7580   50.9130 N.3    77  THR77      -0.1203
     97  CA        27.1940   22.4060   52.2160 C.3    77  THR77       0.1994
     98  C         25.9600   22.1280   53.0800 C.2    77  THR77       0.2618
     99  O         25.7170   22.8200   54.0700 O.2    77  THR77      -0.2717
    100  CB        27.4300   23.9400   52.1000 C.3    77  THR77       0.1784
    101  OG1       26.2210   24.6020   51.6600 O.3    77  THR77      -0.2211
    102  CG2       28.5860   24.2310   51.1500 C.3    77  THR77       0.0376
    103  N         25.1790   21.1320   52.6910 N.am   78  ILE78      -0.1966
    104  CA        23.9890   20.7240   53.4430 C.3    78  ILE78       0.1712
    105  C         24.3890   19.9570   54.7250 C.2    78  ILE78       0.2458
    106  O         25.4700   19.3300   54.7690 O.2    78  ILE78      -0.2730
    107  CB        23.0130   19.9250   52.5560 C.3    78  ILE78       0.0289
    108  CG1       23.5960   18.5180   52.2560 C.3    78  ILE78       0.0022
    109  CG2       22.7150   20.7770   51.2910 C.3    78  ILE78       0.0023
    110  CD1       22.6960   17.5600   51.3880 C.3    78  ILE78       0.0001
    111  N         23.5640   20.0420   55.7840 N.am   79  PRO79      -0.2727
    112  CA        24.1100   19.5330   57.0600 C.3    79  PRO79       0.1402
    113  C         24.0290   18.0300   57.2280 C.2    79  PRO79       0.2269
    114  O         24.7900   17.4680   58.0180 O.2    79  PRO79      -0.2865
    115  CB        23.2520   20.2230   58.1410 C.3    79  PRO79       0.0296
    116  CG        22.0100   20.6670   57.4400 C.3    79  PRO79       0.0237
    117  CD        22.3920   20.9110   55.9800 C.3    79  PRO79       0.0939
    118  N         22.2230   12.4100   53.5000 N.3    83  GLU83      -0.1245
    119  CA        21.6410   13.0620   52.3200 C.3    83  GLU83       0.1567
    120  C         22.7410   13.4800   51.3420 C.2    83  GLU83       0.2260
    121  O         22.6320   13.2730   50.1100 O.2    83  GLU83      -0.2867
    122  CB        20.8190   14.2800   52.7500 C.3    83  GLU83       0.0388
    123  CG        20.0630   14.9230   51.5750 C.3    83  GLU83       0.1160
    124  CD        19.2720   16.1640   51.9760 C.2    83  GLU83       0.3649
    125  OE1       19.3330   16.5650   53.1700 O.co2  83  GLU83      -0.2457
    126  OE2       18.6080   16.7350   51.0730 O.co2  83  GLU83      -0.2457
    127  N         23.7800   12.2730   47.1470 N.3    87  ILE87      -0.1245
    128  CA        24.0160   13.2160   46.0550 C.3    87  ILE87       0.1561
    129  C         25.4010   12.9430   45.4690 C.2    87  ILE87       0.2260
    130  O         25.5810   12.8860   44.2390 O.2    87  ILE87      -0.2867
    131  CB        23.8670   14.6650   46.5350 C.3    87  ILE87       0.0252
    132  CG1       22.3960   14.9490   46.8670 C.3    87  ILE87       0.0019
    133  CG2       24.3550   15.6500   45.4730 C.3    87  ILE87       0.0019
    134  CD1       22.1730   16.1590   47.7860 C.3    87  ILE87       0.0001
    135  N         30.2310   18.5010   53.3890 N.3   103  ARG103     -0.1245
    136  CA        30.1700   18.7470   54.8230 C.3   103  ARG103      0.1563
    137  C         29.6400   17.5170   55.5940 C.2   103  ARG103      0.2260
    138  O         28.7930   16.7650   55.0990 O.2   103  ARG103     -0.2867
    139  CB        29.2400   19.9380   55.0440 C.3   103  ARG103      0.0307
    140  CG        28.7490   20.1740   56.4810 C.3   103  ARG103      0.0489
    141  CD        27.7500   21.3670   56.4350 C.3   103  ARG103      0.2205
    142  NE        27.2030   21.6850   57.7760 N.pl3 103  ARG103     -0.0865
    143  CZ        26.1800   22.5090   57.9640 C.cat 103  ARG103      0.5346
    144  NH1       25.5840   23.0630   56.9150 N.pl3 103  ARG103      0.1354
    145  NH2       25.7310   22.7660   59.2020 N.pl3 103  ARG103      0.1354
@<TRIPOS>BOND
     1    45    43    1
     2    43    42    1
     3    94    93    2
     4    86    85    2
     5    42    44    1
     6    42    39    1
     7    79    80    1
     8    80    81    1
     9    38    39    1
    10    39    40    1
    11   130   129    2
    12    93    92    1
    13    92    95    1
    14    92    91    1
    15    81    83   am
    16    81    82    2
    17    83    84    1
    18    85    91   am
    19    85    84    1
    20   129   128    1
    21   133   131    1
    22    40    46   am
    23    40    41    2
    24    46    47    1
    25    84    87    1
    26     7     5    1
    27    49    48    2
    28   128   131    1
    29   128   127    1
    30    87    88    1
    31     1     2    1
    32   131   132    1
    33    48    47    1
    34    48    55   am
    35   132   134    1
    36    47    50    1
    37     2     5    1
    38     2     3    1
    39     5     6    1
    40    71    70    2
    41    89    88    2
    42    88    90   am
    43    50    51    1
    44    70    69    1
    45    65    64    2
    46    55    56    1
    47    56    57    1
    48    56    59    1
    49    58    57    2
    50     3     8   am
    51     3     4    2
    52    57    62   am
    53    64    63    1
    54    51    52    1
    55    61    59    1
    56     8     9    1
    57    62    63    1
    58    69    68    1
    59    69    72    1
    60    59    60    1
    61    63    66    1
    62    11    10    2
    63    72    73    1
    64    52    54   ar
    65    52    53   ar
    66     9    10    1
    67   121   120    2
    68    37    36    2
    69    66    67    1
    70    96    97    1
    71   126   124   ar
    72    73    74    1
    73   102   100    1
    74   109   107    1
    75   120   119    1
    76    36    35    1
    77   110   108    1
    78   123   124    1
    79   123   122    1
    80    35    34    1
    81   101   100    1
    82    74    75    1
    83   124   125   ar
    84   100    97    1
    85    97    98    1
    86   108   107    1
    87   119   122    1
    88   119   118    1
    89   107   104    1
    90   103    98   am
    91   103   104    1
    92    98    99    2
    93    34    29   am
    94    12    13    1
    95    75    76    2
    96   135   136    1
    97   104   105    1
    98    77    76    1
    99    30    29    2
   100    29    28    1
   101    76    78    1
   102    13    14    1
   103    15    14    2
   104    32    31    1
   105   105   106    2
   106   105   111   am
   107   136   139    1
   108   136   137    1
   109   139   140    1
   110   138   137    2
   111    14    16   am
   112    31    28    1
   113    31    33    1
   114    28    27    1
   115   111   117    1
   116   111   112    1
   117    27    18   am
   118   117   116    1
   119    19    18    2
   120    16    17    1
   121   141   140    1
   122   141   142    1
   123    18    17    1
   124   144   143    1
   125   112   113    1
   126   112   115    1
   127    17    20    1
   128   113   114    2
   129   116   115    1
   130   142   143    2
   131   143   145    1
   132    20    21    1
   133    21    22    1
   134    23    22    1
   135    23    24    2
   136    26    24    1
   137    24    25    1
