@<TRIPOS>MOLECULE
tmp/3fx4A01.pdb
 217 220 0 0 0
SMALL
GASTEIGER

@<TRIPOS>ATOM
      1  N          6.7170  -25.5490  -11.5410 N.3    22  TRP22      -0.1227
      2  CA         6.4050  -26.6920  -10.6630 C.3    22  TRP22       0.1737
      3  C          6.6370  -28.0070  -11.4030 C.2    22  TRP22       0.2595
      4  O          6.0690  -28.2400  -12.4810 O.2    22  TRP22      -0.2718
      5  CB         4.9770  -26.6090  -10.1180 C.3    22  TRP22       0.0564
      6  CG         4.5960  -27.7210   -9.1560 C.ar   22  TRP22       0.0003
      7  CD1        5.3810  -28.2740   -8.1810 C.ar   22  TRP22       0.0946
      8  CD2        3.3280  -28.3870   -9.0750 C.ar   22  TRP22       0.0152
      9  NE1        4.6840  -29.2550   -7.5120 N.ar   22  TRP22      -0.2442
     10  CE2        3.4240  -29.3470   -8.0410 C.ar   22  TRP22       0.0810
     11  CE3        2.1240  -28.2770   -9.7860 C.ar   22  TRP22       0.0012
     12  CZ2        2.3580  -30.1870   -7.6940 C.ar   22  TRP22       0.0191
     13  CZ3        1.0610  -29.1090   -9.4420 C.ar   22  TRP22       0.0001
     14  CH2        1.1820  -30.0520   -8.3990 C.ar   22  TRP22       0.0015
     15  N          7.5190  -28.8330  -10.8300 N.am   23  LYS23      -0.1979
     16  CA         7.8670  -30.1560  -11.3760 C.3    23  LYS23       0.1599
     17  C          8.8740  -30.0760  -12.5280 C.2    23  LYS23       0.2287
     18  O          9.2560  -31.0980  -13.1010 O.2    23  LYS23      -0.2864
     19  CB         6.6220  -30.9640  -11.7860 C.3    23  LYS23       0.0344
     20  CG         5.6790  -31.3280  -10.6530 C.3    23  LYS23       0.0297
     21  CD         4.4240  -31.9470  -11.2080 C.2    23  LYS23      -0.0067
     22  CE         3.5380  -32.7740  -10.4880 C.2    23  LYS23       0.1012
     23  NZ         2.3760  -33.5060  -11.1890 N.pl3  23  LYS23      -0.1270
     24  N          9.2290  -23.8690   -2.6310 N.3    49  ILE49      -0.1231
     25  CA         8.7700  -25.2310   -2.3510 C.3    49  ILE49       0.1692
     26  C          8.9600  -26.1500   -3.5560 C.2    49  ILE49       0.2592
     27  O          9.0000  -27.3770   -3.3970 O.2    49  ILE49      -0.2718
     28  CB         7.3000  -25.2510   -1.8080 C.3    49  ILE49       0.0266
     29  CG1        6.9390  -26.6050   -1.1680 C.3    49  ILE49       0.0019
     30  CG2        6.2810  -24.8620   -2.8980 C.3    49  ILE49       0.0020
     31  CD1        7.8550  -27.0330    0.0050 C.3    49  ILE49       0.0001
     32  N          9.1320  -25.5650   -4.7480 N.am   50  TYR50      -0.1976
     33  CA         9.3000  -26.3690   -5.9710 C.3    50  TYR50       0.1639
     34  C         10.6730  -27.0190   -6.0790 C.2    50  TYR50       0.2290
     35  O         10.8760  -27.8770   -6.9400 O.2    50  TYR50      -0.2864
     36  CB         9.0250  -25.5570   -7.2520 C.3    50  TYR50       0.0560
     37  CG         7.6630  -24.9180   -7.3340 C.ar   50  TYR50      -0.0198
     38  CD1        6.6210  -25.3310   -6.5060 C.ar   50  TYR50      -0.0009
     39  CD2        7.4120  -23.9070   -8.2720 C.ar   50  TYR50      -0.0009
     40  CE1        5.3680  -24.7280   -6.5850 C.ar   50  TYR50       0.0417
     41  CE2        6.1680  -23.3070   -8.3620 C.ar   50  TYR50       0.0417
     42  CZ         5.1490  -23.7250   -7.5160 C.ar   50  TYR50       0.1957
     43  OH         3.9150  -23.1220   -7.5970 O.3    50  TYR50      -0.2866
     44  N          7.0490  -17.3370   -4.0950 N.3    80  LYS80      -0.1245
     45  CA         6.0210  -17.5290   -3.0760 C.3    80  LYS80       0.1561
     46  C          6.6410  -17.9230   -1.7320 C.2    80  LYS80       0.2260
     47  O          7.5910  -18.7040   -1.6920 O.2    80  LYS80      -0.2867
     48  CB         5.0190  -18.6100   -3.5240 C.3    80  LYS80       0.0271
     49  CG         4.6190  -18.5310   -5.0140 C.3    80  LYS80       0.0035
     50  CD         3.4800  -19.4820   -5.3470 C.3    80  LYS80       0.0206
     51  CE         3.2250  -19.5410   -6.8680 C.3    80  LYS80       0.1093
     52  NZ         4.2380  -20.3870   -7.5780 N.3    80  LYS80      -0.1314
     53  N          6.6350  -20.0150    1.5500 N.3    82  TRP82      -0.1241
     54  CA         6.0770  -21.3200    1.9310 C.3    82  TRP82       0.1605
     55  C          5.4780  -21.3200    3.3540 C.2    82  TRP82       0.2264
     56  O          5.7870  -20.4440    4.1720 O.2    82  TRP82      -0.2867
     57  CB         7.0930  -22.4580    1.7190 C.3    82  TRP82       0.0550
     58  CG         6.5270  -23.8150    2.0510 C.ar   82  TRP82       0.0003
     59  CD1        6.9580  -24.6620    3.0310 C.ar   82  TRP82       0.0946
     60  CD2        5.3950  -24.4490    1.4380 C.ar   82  TRP82       0.0152
     61  NE1        6.1700  -25.7930    3.0590 N.ar   82  TRP82      -0.2442
     62  CE2        5.2040  -25.6870    2.0930 C.ar   82  TRP82       0.0810
     63  CE3        4.5260  -24.0950    0.3790 C.ar   82  TRP82       0.0012
     64  CZ2        4.1860  -26.5840    1.7340 C.ar   82  TRP82       0.0191
     65  CZ3        3.5050  -24.9860    0.0250 C.ar   82  TRP82       0.0001
     66  CH2        3.3530  -26.2240    0.7060 C.ar   82  TRP82       0.0015
     67  N          1.8670  -18.3100   -0.2950 N.3   113  HIS113     -0.1226
     68  CA         1.4690  -19.5470   -0.9950 C.3   113  HIS113      0.1752
     69  C          0.1080  -20.1010   -0.5490 C.2   113  HIS113      0.2596
     70  O         -0.7070  -20.4660   -1.3950 O.2   113  HIS113     -0.2718
     71  CB         2.5440  -20.6340   -0.8710 C.3   113  HIS113      0.0759
     72  CG         2.6770  -21.5090   -2.0880 C.ar  113  HIS113      0.0818
     73  ND1        3.8970  -21.9120   -2.5850 N.ar  113  HIS113     -0.2268
     74  CD2        1.7410  -22.0530   -2.9050 C.ar  113  HIS113      0.1154
     75  CE1        3.7080  -22.6770   -3.6460 C.ar  113  HIS113      0.1986
     76  NE2        2.4070  -22.7840   -3.8560 N.ar  113  HIS113     -0.2212
     77  N         -0.1130  -20.1650    0.7730 N.am  114  TRP114     -0.1976
     78  CA        -1.3720  -20.6090    1.3840 C.3   114  TRP114      0.1640
     79  C         -1.7840  -19.6360    2.5180 C.2   114  TRP114      0.2290
     80  O         -0.9440  -18.9520    3.0550 O.2   114  TRP114     -0.2864
     81  CB        -1.2440  -22.0520    1.8980 C.3   114  TRP114      0.0576
     82  CG        -1.1470  -23.0400    0.7510 C.ar  114  TRP114      0.0006
     83  CD1       -0.0060  -23.4750    0.1320 C.ar  114  TRP114      0.0946
     84  CD2       -2.2380  -23.6520    0.0630 C.ar  114  TRP114      0.0152
     85  NE1       -0.3220  -24.3370   -0.8980 N.ar  114  TRP114     -0.2442
     86  CE2       -1.6870  -24.4680   -0.9540 C.ar  114  TRP114      0.0810
     87  CE3       -3.6340  -23.5920    0.2070 C.ar  114  TRP114      0.0012
     88  CZ2       -2.4830  -25.2120   -1.8310 C.ar  114  TRP114      0.0191
     89  CZ3       -4.4230  -24.3360   -0.6470 C.ar  114  TRP114      0.0001
     90  CH2       -3.8440  -25.1520   -1.6590 C.ar  114  TRP114      0.0015
     91  N          7.3780  -29.9080    5.3240 N.3   125  PHE125     -0.1241
     92  CA         6.1690  -30.6470    5.6680 C.3   125  PHE125      0.1605
     93  C          6.2740  -31.2770    7.0670 C.2   125  PHE125      0.2264
     94  O          6.4270  -32.4930    7.1870 O.2   125  PHE125     -0.2867
     95  CB         5.8790  -31.7120    4.6110 C.3   125  PHE125      0.0534
     96  CG         5.6300  -31.1510    3.2340 C.ar  125  PHE125     -0.0203
     97  CD1        4.3660  -30.6850    2.8740 C.ar  125  PHE125     -0.0042
     98  CD2        6.6550  -31.0890    2.3000 C.ar  125  PHE125     -0.0042
     99  CE1        4.1350  -30.1670    1.6010 C.ar  125  PHE125     -0.0003
    100  CE2        6.4270  -30.5820    1.0150 C.ar  125  PHE125     -0.0003
    101  CZ         5.1730  -30.1180    0.6700 C.ar  125  PHE125     -0.0000
    102  N         -3.2860  -20.6470  -12.2720 N.3   210  TYR210     -0.1241
    103  CA        -2.3620  -21.7660  -12.2350 C.3   210  TYR210      0.1605
    104  C         -3.0640  -23.0270  -12.7100 C.2   210  TYR210      0.2264
    105  O         -4.2780  -23.0540  -12.7690 O.2   210  TYR210     -0.2867
    106  CB        -1.6490  -21.9110  -10.8740 C.3   210  TYR210      0.0534
    107  CG        -2.3630  -22.5170   -9.6660 C.ar  210  TYR210     -0.0201
    108  CD1       -2.7980  -23.8650   -9.6480 C.ar  210  TYR210     -0.0009
    109  CD2       -2.5030  -21.7670   -8.4900 C.ar  210  TYR210     -0.0009
    110  CE1       -3.3970  -24.4210   -8.4870 C.ar  210  TYR210      0.0417
    111  CE2       -3.0990  -22.3080   -7.3270 C.ar  210  TYR210      0.0417
    112  CZ        -3.5340  -23.6240   -7.3270 C.ar  210  TYR210      0.1957
    113  OH        -4.0970  -24.1320   -6.1650 O.3   210  TYR210     -0.2866
    114  N         -0.2260  -34.3630  -13.1240 N.3   218  ARG218     -0.1231
    115  CA        -0.2180  -34.2950  -11.6540 C.3   218  ARG218      0.1694
    116  C         -0.2830  -35.7130  -11.0280 C.2   218  ARG218      0.2592
    117  O         -0.8420  -36.6380  -11.6170 O.2   218  ARG218     -0.2718
    118  CB        -1.3560  -33.3950  -11.1360 C.3   218  ARG218      0.0321
    119  CG        -2.7270  -34.0570  -11.1820 C.3   218  ARG218      0.0489
    120  CD        -3.8900  -33.0850  -11.1860 C.3   218  ARG218      0.2205
    121  NE        -5.1500  -33.8110  -11.3440 N.pl3 218  ARG218     -0.0865
    122  CZ        -5.6850  -34.1580  -12.5160 C.cat 218  ARG218      0.5346
    123  NH1       -5.0830  -33.8320  -13.6600 N.pl3 218  ARG218      0.1354
    124  NH2       -6.8390  -34.8260  -12.5440 N.pl3 218  ARG218      0.1354
    125  N          0.3130  -35.8700   -9.8470 N.am  219  ALA219     -0.1966
    126  CA         0.3790  -37.1720   -9.1700 C.3   219  ALA219      0.1728
    127  C         -0.9900  -37.6100   -8.6520 C.2   219  ALA219      0.2616
    128  O         -1.8110  -36.7730   -8.2690 O.2   219  ALA219     -0.2715
    129  CB         1.3880  -37.1240   -8.0290 C.3   219  ALA219      0.0334
    130  N         -1.2290  -38.9230   -8.6560 N.am  220  TRP220     -0.1960
    131  CA        -2.4470  -39.5230   -8.0820 C.3   220  TRP220      0.1771
    132  C         -3.7550  -38.9550   -8.6500 C.2   220  TRP220      0.2619
    133  O         -4.6160  -38.4720   -7.9050 O.2   220  TRP220     -0.2715
    134  CB        -2.4380  -39.4120   -6.5520 C.3   220  TRP220      0.0590
    135  CG        -1.3440  -40.1910   -5.8840 C.ar  220  TRP220      0.0006
    136  CD1       -0.1070  -39.7320   -5.5380 C.ar  220  TRP220      0.0946
    137  CD2       -1.3970  -41.5630   -5.4630 C.ar  220  TRP220      0.0152
    138  NE1        0.6150  -40.7280   -4.9280 N.ar  220  TRP220     -0.2442
    139  CE2       -0.1520  -41.8630   -4.8670 C.ar  220  TRP220      0.0810
    140  CE3       -2.3820  -42.5640   -5.5210 C.ar  220  TRP220      0.0012
    141  CZ2        0.1450  -43.1330   -4.3390 C.ar  220  TRP220      0.0191
    142  CZ3       -2.0870  -43.8270   -4.9950 C.ar  220  TRP220      0.0001
    143  CH2       -0.8320  -44.0970   -4.4120 C.ar  220  TRP220      0.0015
    144  N         -3.8970  -39.0230   -9.9690 N.am  221  ARG221     -0.1977
    145  CA        -5.1120  -38.5600  -10.6340 C.3   221  ARG221      0.1597
    146  C         -6.2180  -39.5910  -10.5140 C.2   221  ARG221      0.2287
    147  O         -5.9650  -40.8030  -10.5090 O.2   221  ARG221     -0.2864
    148  CB        -4.8610  -38.2860  -12.1160 C.3   221  ARG221      0.0334
    149  CG        -3.8530  -37.2070  -12.4010 C.3   221  ARG221      0.0492
    150  CD        -3.6600  -37.0100  -13.8940 C.3   221  ARG221      0.2205
    151  NE        -3.1280  -38.2010  -14.5560 N.pl3 221  ARG221     -0.0865
    152  CZ        -1.8380  -38.5340  -14.6140 C.cat 221  ARG221      0.5346
    153  NH1       -0.9100  -37.7740  -14.0420 N.pl3 221  ARG221      0.1354
    154  NH2       -1.4710  -39.6400  -15.2480 N.pl3 221  ARG221      0.1354
    155  N         -8.6700  -29.5920   -9.5550 N.3   298  PHE298     -0.1227
    156  CA        -7.6540  -30.6530   -9.6990 C.3   298  PHE298      0.1736
    157  C         -6.5520  -30.5840   -8.6390 C.2   298  PHE298      0.2595
    158  O         -5.9260  -31.6000   -8.3130 O.2   298  PHE298     -0.2718
    159  CB        -6.9470  -30.5850  -11.0650 C.3   298  PHE298      0.0547
    160  CG        -7.8390  -30.8510  -12.2460 C.ar  298  PHE298     -0.0202
    161  CD1       -7.9730  -29.8910  -13.2630 C.ar  298  PHE298     -0.0042
    162  CD2       -8.5230  -32.0630  -12.3700 C.ar  298  PHE298     -0.0042
    163  CE1       -8.7960  -30.1340  -14.3720 C.ar  298  PHE298     -0.0003
    164  CE2       -9.3390  -32.3120  -13.4710 C.ar  298  PHE298     -0.0003
    165  CZ        -9.4750  -31.3490  -14.4760 C.ar  298  PHE298     -0.0000
    166  N         -6.2660  -29.3790   -8.1580 N.am  299  ILE299     -0.1966
    167  CA        -5.1630  -29.1800   -7.2260 C.3   299  ILE299      0.1727
    168  C         -5.7130  -29.0360   -5.8060 C.2   299  ILE299      0.2616
    169  O         -6.2300  -27.9860   -5.4120 O.2   299  ILE299     -0.2715
    170  CB        -4.2520  -27.9880   -7.6420 C.3   299  ILE299      0.0290
    171  CG1       -3.9050  -28.0610   -9.1390 C.3   299  ILE299      0.0022
    172  CG2       -3.0110  -27.9010   -6.7650 C.3   299  ILE299      0.0023
    173  CD1       -3.2090  -29.3470   -9.5930 C.3   299  ILE299      0.0001
    174  N         -5.6240  -30.1420   -5.0740 N.am  300  VAL300     -0.1964
    175  CA        -6.0390  -30.2320   -3.6850 C.3   300  VAL300      0.1712
    176  C         -4.8540  -30.8770   -2.9750 C.2   300  VAL300      0.2458
    177  O         -4.4400  -31.9560   -3.3740 O.2   300  VAL300     -0.2730
    178  CB        -7.3130  -31.1100   -3.5500 C.3   300  VAL300      0.0289
    179  CG1       -7.5300  -31.5780   -2.1050 C.3   300  VAL300      0.0023
    180  CG2       -8.5320  -30.3600   -4.0750 C.3   300  VAL300      0.0023
    181  N         -4.2890  -30.2130   -1.9420 N.am  301  PRO301     -0.2716
    182  CA        -3.1380  -30.8010   -1.2390 C.3   301  PRO301      0.1536
    183  C         -3.4850  -32.1650   -0.6320 C.2   301  PRO301      0.2598
    184  O         -4.5190  -32.3120    0.0330 O.2   301  PRO301     -0.2715
    185  CB        -2.8290  -29.7890   -0.1270 C.3   301  PRO301      0.0310
    186  CG        -3.5150  -28.5330   -0.5170 C.3   301  PRO301      0.0237
    187  CD        -4.6920  -28.9160   -1.3610 C.3   301  PRO301      0.0939
    188  N         -2.6200  -33.1460   -0.8850 N.am  302  MET302     -0.1978
    189  CA        -2.8290  -34.5310   -0.4540 C.3   302  MET302      0.1605
    190  C         -1.6790  -35.0620    0.4020 C.2   302  MET302      0.2287
    191  O         -0.5430  -34.5700    0.3280 O.2   302  MET302     -0.2864
    192  CB        -2.9970  -35.4540   -1.6630 C.3   302  MET302      0.0413
    193  CG        -4.1350  -35.0960   -2.5960 C.3   302  MET302      0.0598
    194  SD        -5.7620  -35.4750   -1.9500 S.3   302  MET302     -0.1393
    195  CE        -5.6800  -37.2590   -1.7700 C.3   302  MET302      0.0692
    196  N         -4.4470  -42.4900    1.0380 N.3   309  ARG309     -0.1245
    197  CA        -4.1520  -41.1500    0.5340 C.3   309  ARG309      0.1563
    198  C         -5.3130  -40.1970    0.7980 C.2   309  ARG309      0.2260
    199  O         -6.4330  -40.3920    0.3080 O.2   309  ARG309     -0.2867
    200  CB        -3.7570  -41.1510   -0.9420 C.3   309  ARG309      0.0307
    201  CG        -3.0990  -39.8500   -1.3490 C.3   309  ARG309      0.0489
    202  CD        -2.3460  -39.9740   -2.6480 C.3   309  ARG309      0.2205
    203  NE        -1.7340  -38.7010   -3.0340 N.pl3 309  ARG309     -0.0865
    204  CZ        -0.5520  -38.2690   -2.6010 C.cat 309  ARG309      0.5346
    205  NH1        0.1670  -39.0100   -1.7650 N.pl3 309  ARG309      0.1354
    206  NH2       -0.0840  -37.0960   -3.0090 N.pl3 309  ARG309      0.1354
    207  N         -4.5840  -33.3360    2.5910 N.3   312  ARG312     -0.1245
    208  CA        -3.6380  -32.7910    3.5690 C.3   312  ARG312      0.1563
    209  C         -4.3150  -31.8220    4.5530 C.2   312  ARG312      0.2260
    210  O         -4.1860  -31.9740    5.7620 O.2   312  ARG312     -0.2867
    211  CB        -2.4930  -32.0800    2.8420 C.3   312  ARG312      0.0307
    212  CG        -1.2740  -31.7340    3.6900 C.3   312  ARG312      0.0489
    213  CD        -0.1480  -31.1670    2.8200 C.3   312  ARG312      0.2205
    214  NE        -0.4090  -29.7860    2.4000 N.pl3 312  ARG312     -0.0865
    215  CZ         0.1450  -29.1750    1.3480 C.cat 312  ARG312      0.5346
    216  NH1        1.0020  -29.8040    0.5470 N.pl3 312  ARG312      0.1354
    217  NH2       -0.1820  -27.9150    1.0830 N.pl3 312  ARG312      0.1354
@<TRIPOS>BOND
     1   154   152    1
     2   152   151    2
     3   152   153    1
     4   151   150    1
     5   165   163   ar
     6   165   164   ar
     7   163   161   ar
     8   150   149    1
     9   123   122    1
    10   164   162   ar
    11   161   160   ar
    12   114   115    1
    13    18    17    2
    14   105   104    2
    15   104   103    1
    16   124   122    1
    17    17    16    1
    18   122   121    2
    19     4     3    2
    20   149   148    1
    21   162   160   ar
    22   102   103    1
    23   160   159    1
    24   103   106    1
    25   148   145    1
    26    19    16    1
    27    19    20    1
    28   115   118    1
    29   115   116    1
    30   117   116    2
    31     1     2    1
    32     3    15   am
    33     3     2    1
    34    16    15    1
    35   121   120    1
    36    21    20    1
    37    21    22    2
    38    23    22    1
    39   120   119    1
    40   119   118    1
    41   159   156    1
    42   116   125   am
    43   106   107    1
    44     2     5    1
    45   145   146    1
    46   145   144    1
    47   146   147    2
    48     5     6    1
    49   144   132   am
    50   125   126    1
    51    11    13   ar
    52    11     8   ar
    53   156   155    1
    54   156   157    1
    55   107   108   ar
    56   107   109   ar
    57   108   110   ar
    58   173   171    1
    59    13    14   ar
    60   126   127    1
    61   126   129    1
    62     6     8   ar
    63     6     7   ar
    64   171   170    1
    65     8    10   ar
    66   130   127   am
    67   130   131    1
    68   127   128    2
    69   132   131    1
    70   132   133    2
    71   157   158    2
    72   157   166   am
    73   109   111   ar
    74   110   112   ar
    75    14    12   ar
    76    41    39   ar
    77    41    42   ar
    78    39    37   ar
    79     7     9   ar
    80   166   167    1
    81   131   134    1
    82    10    12   ar
    83    10     9   ar
    84   170   167    1
    85   170   172    1
    86    43    42    1
    87    52    51    1
    88    42    40   ar
    89    37    36    1
    90    37    38   ar
    91   112   111   ar
    92   112   113    1
    93    36    33    1
    94   167   168    1
    95    35    34    2
    96    51    50    1
    97    40    38   ar
    98   134   135    1
    99    34    33    1
   100    33    32    1
   101   135   136   ar
   102   135   137   ar
   103   168   169    2
   104   168   174   am
   105   136   138   ar
   106   140   137   ar
   107   140   142   ar
   108   137   139   ar
   109    50    49    1
   110   174   175    1
   111    49    48    1
   112   142   143   ar
   113   138   139   ar
   114   139   141   ar
   115    32    26   am
   116   143   141   ar
   117    44    45    1
   118   180   178    1
   119    76    75   ar
   120    76    74   ar
   121   175   178    1
   122   175   176    1
   123    75    73   ar
   124    26    27    2
   125    26    25    1
   126   178   179    1
   127    48    45    1
   128   177   176    2
   129    45    46    1
   130   203   202    1
   131   203   204    2
   132   206   204    1
   133   176   181   am
   134    74    72   ar
   135    30    28    1
   136   202   201    1
   137    24    25    1
   138   204   205    1
   139   193   194    1
   140   193   192    1
   141    73    72   ar
   142    25    28    1
   143    72    71    1
   144   194   195    1
   145   181   187    1
   146   181   182    1
   147    88    90   ar
   148    88    86   ar
   149    28    29    1
   150    46    47    2
   151   192   189    1
   152    90    89   ar
   153    70    69    2
   154   187   186    1
   155   201   200    1
   156   182   183    1
   157   182   185    1
   158    29    31    1
   159    68    71    1
   160    68    69    1
   161    68    67    1
   162    86    85   ar
   163    86    84   ar
   164   200   197    1
   165    85    83   ar
   166   188   183   am
   167   188   189    1
   168    89    87   ar
   169   183   184    2
   170    69    77   am
   171   186   185    1
   172   189   190    1
   173    65    63   ar
   174    65    66   ar
   175    84    87   ar
   176    84    82   ar
   177    83    82   ar
   178   199   198    2
   179   191   190    2
   180    63    60   ar
   181   197   198    1
   182   197   196    1
   183   216   215    1
   184   101   100   ar
   185   101    99   ar
   186    66    64   ar
   187    82    81    1
   188    77    78    1
   189   100    98   ar
   190   217   215    1
   191   215   214    2
   192    78    81    1
   193    78    79    1
   194    60    58   ar
   195    60    62   ar
   196    53    54    1
   197    99    97   ar
   198    57    54    1
   199    57    58    1
   200    64    62   ar
   201    54    55    1
   202    58    59   ar
   203    62    61   ar
   204    98    96   ar
   205   214   213    1
   206    79    80    2
   207   207   208    1
   208   213   212    1
   209   211   208    1
   210   211   212    1
   211    97    96   ar
   212    59    61   ar
   213    96    95    1
   214    55    56    2
   215   208   209    1
   216   209   210    2
   217    95    92    1
   218    91    92    1
   219    92    93    1
   220    93    94    2
