@<TRIPOS>MOLECULE
tmp/3fx5B00.pdb
 95 89 0 0 0
SMALL
GASTEIGER

@<TRIPOS>ATOM
      1  N         17.0810   26.2750   28.3010 N.3    23  LEU23      -0.1245
      2  CA        16.6380   27.2270   27.3280 C.3    23  LEU23       0.1561
      3  C         15.1610   27.1070   27.0730 C.2    23  LEU23       0.2260
      4  O         14.6700   26.0170   26.7830 O.2    23  LEU23      -0.2867
      5  CB        17.4290   26.9460   26.0420 C.3    23  LEU23       0.0270
      6  CG        17.3250   27.7170   24.8230 C.3    23  LEU23       0.0019
      7  CD1       17.9230   29.0740   25.0360 C.3    23  LEU23       0.0001
      8  CD2       18.1620   27.0540   23.7130 C.3    23  LEU23       0.0001
      9  N         12.3720   27.1000   24.7180 N.3    25  ASP25      -0.1239
     10  CA        12.5070   26.8030   23.2670 C.3    25  ASP25       0.1674
     11  C         11.1480   26.5680   22.6150 C.2    25  ASP25       0.2266
     12  O         10.6070   25.4590   22.6460 O.2    25  ASP25      -0.2867
     13  CB        13.4200   25.5990   23.1640 C.3    25  ASP25       0.1410
     14  CG        13.8400   25.2760   21.7770 C.2    25  ASP25       0.3668
     15  OD1       13.1510   25.8070   20.8590 O.co2  25  ASP25      -0.2456
     16  OD2       14.8380   24.5480   21.5770 O.co2  25  ASP25      -0.2456
     17  N         10.5340   26.3350   19.5560 N.3    27  GLY27      -0.1210
     18  CA        10.6640   25.4360   18.4170 C.3    27  GLY27       0.1956
     19  C         10.7680   23.9780   18.7550 C.2    27  GLY27       0.2612
     20  O         10.9140   23.1540   17.8440 O.2    27  GLY27      -0.2717
     21  N         10.6840   23.6410   20.0460 N.am   28  ALA28      -0.1965
     22  CA        10.7840   22.2650   20.5020 C.3    28  ALA28       0.1728
     23  C          9.4380   21.8100   21.0150 C.2    28  ALA28       0.2616
     24  O          8.8560   22.4120   21.9080 O.2    28  ALA28      -0.2715
     25  CB        11.8300   22.1590   21.6040 C.3    28  ALA28       0.0334
     26  N          8.9560   20.6680   20.4800 N.am   29  ASP29      -0.1957
     27  CA         7.6940   20.1450   20.9600 C.3    29  ASP29       0.1840
     28  C          7.7820   19.6800   22.4120 C.2    29  ASP29       0.2622
     29  O          6.8290   19.7510   23.1790 O.2    29  ASP29      -0.2715
     30  CB         7.2650   18.9500   20.1100 C.3    29  ASP29       0.1450
     31  CG         7.1010   19.1810   18.6290 C.2    29  ASP29       0.3671
     32  OD1        6.7880   20.3080   18.2070 O.co2  29  ASP29      -0.2456
     33  OD2        7.2980   18.1730   17.9160 O.co2  29  ASP29      -0.2456
     34  N          8.9470   19.1180   22.7260 N.am   30  ASP30      -0.1971
     35  CA         9.2300   18.3550   23.9360 C.3    30  ASP30       0.1709
     36  C         10.3760   18.9740   24.7070 C.2    30  ASP30       0.2293
     37  O         11.1370   19.7750   24.1800 O.2    30  ASP30      -0.2864
     38  CB         9.5970   16.9110   23.5420 C.3    30  ASP30       0.1436
     39  CG         8.6150   16.2560   22.6110 C.2    30  ASP30       0.3671
     40  OD1        8.9740   15.9200   21.4750 O.co2  30  ASP30      -0.2456
     41  OD2        7.4340   16.1720   23.0010 O.co2  30  ASP30      -0.2456
     42  N         13.8770   18.2930   26.7230 N.3    32  VAL32      -0.1245
     43  CA        15.0180   17.4000   26.6180 C.3    32  VAL32       0.1561
     44  C         16.1350   17.8840   27.5480 C.2    32  VAL32       0.2260
     45  O         16.5540   19.0310   27.4440 O.2    32  VAL32      -0.2867
     46  CB        15.6090   17.3020   25.2090 C.3    32  VAL32       0.0252
     47  CG1       16.5310   16.1020   25.1140 C.3    32  VAL32       0.0019
     48  CG2       14.4890   17.1850   24.1610 C.3    32  VAL32       0.0019
     49  N         13.3370   11.5730   18.7880 N.3    47  ILE47      -0.1231
     50  CA        13.0530   12.9670   18.4550 C.3    47  ILE47       0.1692
     51  C         14.0160   13.3800   17.3730 C.2    47  ILE47       0.2593
     52  O         15.1130   12.8710   17.2110 O.2    47  ILE47      -0.2718
     53  CB        13.1940   13.8650   19.6920 C.3    47  ILE47       0.0266
     54  CG1       14.5810   13.7960   20.3200 C.3    47  ILE47       0.0019
     55  CG2       12.0850   13.5900   20.6880 C.3    47  ILE47       0.0020
     56  CD1       14.7840   14.7600   21.4930 C.3    47  ILE47       0.0001
     57  N         13.5550   14.3430   16.5920 N.am   48  GLY48      -0.1942
     58  CA        14.2850   14.8420   15.4350 C.3    48  GLY48       0.2014
     59  C         14.5060   16.3120   15.5180 C.2    48  GLY48       0.2639
     60  O         13.5950   17.0560   15.9080 O.2    48  GLY48      -0.2714
     61  N         15.7010   16.7180   15.1200 N.am   49  GLY49      -0.1939
     62  CA        16.0700   18.1090   15.0460 C.3    49  GLY49       0.2014
     63  C         16.8480   18.4020   13.7900 C.2    49  GLY49       0.2638
     64  O         16.7370   17.7550   12.7770 O.2    49  GLY49      -0.2714
     65  N         17.6660   19.4650   13.8860 N.am   50  ILE50      -0.1977
     66  CA        18.3500   19.9800   12.7270 C.3    50  ILE50       0.1596
     67  C         19.2370   18.9430   12.0600 C.2    50  ILE50       0.2287
     68  O         19.4050   18.9390   10.8410 O.2    50  ILE50      -0.2864
     69  CB        19.1830   21.2350   13.1030 C.3    50  ILE50       0.0276
     70  CG1       19.5370   22.0600   11.8420 C.3    50  ILE50       0.0022
     71  CG2       20.3860   20.9290   13.9370 C.3    50  ILE50       0.0022
     72  CD1       18.3430   22.7650   11.2200 C.3    50  ILE50       0.0001
     73  N         19.1420   15.4310   12.3910 N.3    52  GLY52      -0.1210
     74  CA        18.5560   14.0940   12.3140 C.3    52  GLY52       0.1956
     75  C         17.8860   13.7280   13.6090 C.2    52  GLY52       0.2611
     76  O         17.4840   14.5410   14.3880 O.2    52  GLY52      -0.2717
     77  N         17.7300   12.4130   13.7840 N.am   53  PHE53      -0.1976
     78  CA        16.9610   11.8460   14.8520 C.3    53  PHE53       0.1639
     79  C         17.8670   11.1790   15.8700 C.2    53  PHE53       0.2290
     80  O         18.8850   10.5890   15.5300 O.2    53  PHE53      -0.2864
     81  CB        15.9370   10.8370   14.3240 C.3    53  PHE53       0.0560
     82  CG        14.7650   11.4930   13.6450 C.ar   53  PHE53      -0.0200
     83  CD1       14.8570   12.0250   12.3800 C.ar   53  PHE53      -0.0042
     84  CD2       13.5370   11.6200   14.3270 C.ar   53  PHE53      -0.0042
     85  CE1       13.7200   12.6730   11.8150 C.ar   53  PHE53      -0.0003
     86  CE2       12.4330   12.2360   13.7910 C.ar   53  PHE53      -0.0003
     87  CZ        12.5040   12.7720   12.5070 C.ar   53  PHE53      -0.0000
     88  N         16.6750   21.7620   26.9970 N.3    84  ILE84      -0.1245
     89  CA        15.6080   22.3730   26.2330 C.3    84  ILE84       0.1561
     90  C         14.2970   22.2650   26.9870 C.2    84  ILE84       0.2260
     91  O         13.8740   21.1390   27.2740 O.2    84  ILE84      -0.2867
     92  CB        15.4770   21.6420   24.8560 C.3    84  ILE84       0.0252
     93  CG1       16.7030   21.8300   23.9980 C.3    84  ILE84       0.0019
     94  CG2       14.1910   22.0070   24.1250 C.3    84  ILE84       0.0019
     95  CD1       16.7540   20.9280   22.7680 C.3    84  ILE84       0.0001
@<TRIPOS>BOND
     1    68    67    2
     2    72    70    1
     3    85    83   ar
     4    85    87   ar
     5    70    69    1
     6    67    66    1
     7    74    73    1
     8    74    75    1
     9    83    82   ar
    10    87    86   ar
    11    66    69    1
    12    66    65    1
    13    64    63    2
    14    69    71    1
    15    75    77   am
    16    75    76    2
    17    82    81    1
    18    82    84   ar
    19    77    78    1
    20    63    65   am
    21    63    62    1
    22    86    84   ar
    23    81    78    1
    24    78    79    1
    25    62    61    1
    26    61    59   am
    27    58    59    1
    28    58    57    1
    29    59    60    2
    30    80    79    2
    31    57    51   am
    32    52    51    2
    33    51    50    1
    34    20    19    2
    35    33    31   ar
    36    32    31   ar
    37    18    19    1
    38    18    17    1
    39    50    49    1
    40    50    53    1
    41    31    30    1
    42    19    21   am
    43    53    54    1
    44    53    55    1
    45    21    22    1
    46    30    27    1
    47    54    56    1
    48    26    27    1
    49    26    23   am
    50    22    23    1
    51    22    25    1
    52    15    14   ar
    53    27    28    1
    54    23    24    2
    55    40    39   ar
    56    16    14   ar
    57    14    13    1
    58    28    34   am
    59    28    29    2
    60    39    41   ar
    61    39    38    1
    62    11    12    2
    63    11    10    1
    64    34    35    1
    65    95    93    1
    66    13    10    1
    67    10     9    1
    68    38    35    1
    69     8     6    1
    70    35    36    1
    71    93    92    1
    72    94    92    1
    73    48    46    1
    74    37    36    2
    75     6     7    1
    76     6     5    1
    77    92    89    1
    78    47    46    1
    79    46    43    1
    80     5     2    1
    81    89    90    1
    82    89    88    1
    83    43    42    1
    84    43    44    1
    85     4     3    2
    86    90    91    2
    87     3     2    1
    88     2     1    1
    89    45    44    2
