@<TRIPOS>MOLECULE
tmp/3fx6A00.pdb
 175 165 0 0 0
SMALL
GASTEIGER

@<TRIPOS>ATOM
      1  N        -21.7780   -7.9640  -10.8130 N.3    69  HIS69      -0.1241
      2  CA       -21.5230   -7.3220  -12.1040 C.3    69  HIS69       0.1621
      3  C        -20.2570   -8.0300  -12.5860 C.2    69  HIS69       0.2264
      4  O        -19.1600   -7.7900  -12.0760 O.2    69  HIS69      -0.2867
      5  CB       -21.2730   -5.8240  -11.9150 C.3    69  HIS69       0.0745
      6  CG       -22.5190   -5.0440  -11.6310 C.ar   69  HIS69       0.0817
      7  ND1      -22.5570   -4.0010  -10.7330 N.ar   69  HIS69      -0.2268
      8  CD2      -23.7730   -5.1600  -12.1250 C.ar   69  HIS69       0.1154
      9  CE1      -23.7810   -3.5080  -10.6820 C.ar   69  HIS69       0.1986
     10  NE2      -24.5380   -4.1930  -11.5180 N.ar   69  HIS69      -0.2212
     11  N        -17.9780   -7.9280  -15.0740 N.3    71  ARG71      -0.1231
     12  CA       -16.7210   -7.2850  -15.4780 C.3    71  ARG71       0.1694
     13  C        -15.8820   -6.7210  -14.3310 C.2    71  ARG71       0.2591
     14  O        -14.7200   -6.3660  -14.5290 O.2    71  ARG71      -0.2718
     15  CB       -16.9910   -6.1590  -16.4780 C.3    71  ARG71       0.0321
     16  CG       -17.7350   -4.9680  -15.8880 C.3    71  ARG71       0.0489
     17  CD       -17.9790   -3.9150  -16.9500 C.3    71  ARG71       0.2205
     18  NE       -18.7500   -2.7780  -16.4550 N.pl3  71  ARG71      -0.0865
     19  CZ       -19.2740   -1.8490  -17.2470 C.cat  71  ARG71       0.5346
     20  NH1      -19.1110   -1.9340  -18.5610 N.pl3  71  ARG71       0.1354
     21  NH2      -19.9530   -0.8370  -16.7330 N.pl3  71  ARG71       0.1354
     22  N        -16.4680   -6.6310  -13.1430 N.am   72  GLU72      -0.1979
     23  CA       -15.7650   -6.0970  -11.9770 C.3    72  GLU72       0.1602
     24  C        -14.8520   -7.1590  -11.3530 C.2    72  GLU72       0.2287
     25  O        -14.9750   -7.5180  -10.1750 O.2    72  GLU72      -0.2864
     26  CB       -16.8040   -5.5580  -10.9860 C.3    72  GLU72       0.0415
     27  CG       -17.4580   -4.2780  -11.5300 C.3    72  GLU72       0.1163
     28  CD       -18.7800   -3.9060  -10.8850 C.2    72  GLU72       0.3649
     29  OE1      -19.0450   -4.3150   -9.7410 O.co2  72  GLU72      -0.2457
     30  OE2      -19.5550   -3.1690  -11.5350 O.co2  72  GLU72      -0.2457
     31  N        -21.4630   -6.7970  -18.1490 N.3   127  ARG127     -0.1245
     32  CA       -21.7950   -6.6240  -16.7320 C.3   127  ARG127      0.1563
     33  C        -23.0940   -7.2570  -16.2490 C.2   127  ARG127      0.2260
     34  O        -23.2360   -7.5610  -15.0650 O.2   127  ARG127     -0.2867
     35  CB       -21.8230   -5.1310  -16.3840 C.3   127  ARG127      0.0307
     36  CG       -23.0300   -4.3760  -16.9230 C.3   127  ARG127      0.0489
     37  CD       -22.8390   -2.8640  -16.8080 C.3   127  ARG127      0.2205
     38  NE       -22.5800   -2.4290  -15.4370 N.pl3 127  ARG127     -0.0865
     39  CZ       -23.5210   -2.1540  -14.5370 C.cat 127  ARG127      0.5346
     40  NH1      -24.8070   -2.2610  -14.8500 N.pl3 127  ARG127      0.1354
     41  NH2      -23.1750   -1.7770  -13.3130 N.pl3 127  ARG127      0.1354
     42  N        -28.0230   -5.9140  -10.1150 N.3   144  ASN144     -0.1225
     43  CA       -28.0830   -5.0500   -8.9390 C.3   144  ASN144      0.1785
     44  C        -29.1090   -3.9230   -9.0520 C.2   144  ASN144      0.2597
     45  O        -29.0290   -2.9180   -8.3430 O.2   144  ASN144     -0.2718
     46  CB       -26.7090   -4.4860   -8.5780 C.3   144  ASN144      0.1169
     47  CG       -26.6370   -4.0380   -7.1170 C.2   144  ASN144      0.2627
     48  OD1      -27.1950   -4.6910   -6.2280 O.2   144  ASN144     -0.2716
     49  ND2      -25.9410   -2.9410   -6.8650 N.am  144  ASN144     -0.0877
     50  N        -30.0720   -4.1000   -9.9530 N.am  145  ARG145     -0.1979
     51  CA       -31.1680   -3.1450  -10.1220 C.3   145  ARG145      0.1597
     52  C        -32.4420   -3.9740  -10.2120 C.2   145  ARG145      0.2287
     53  O        -33.5260   -3.4630  -10.4970 O.2   145  ARG145     -0.2864
     54  CB       -30.9830   -2.3100  -11.3960 C.3   145  ARG145      0.0334
     55  CG       -29.9710   -1.1820  -11.2460 C.3   145  ARG145      0.0492
     56  CD       -29.9380   -0.2900  -12.4810 C.3   145  ARG145      0.2205
     57  NE       -29.3610    1.0220  -12.1890 N.pl3 145  ARG145     -0.0865
     58  CZ       -28.0690    1.2540  -11.9870 C.cat 145  ARG145      0.5346
     59  NH1      -27.1930    0.2610  -12.0470 N.pl3 145  ARG145      0.1354
     60  NH2      -27.6520    2.4840  -11.7150 N.pl3 145  ARG145      0.1354
     61  N        -28.1440   -0.8770  -17.8150 N.3   164  THR164     -0.1218
     62  CA       -28.7140   -0.7940  -16.4750 C.3   164  THR164      0.1862
     63  C        -30.1780   -1.2440  -16.4570 C.2   164  THR164      0.2287
     64  O        -30.9820   -0.7900  -15.6380 O.2   164  THR164     -0.2866
     65  CB       -28.5970    0.6390  -15.9010 C.3   164  THR164      0.1770
     66  OG1      -29.2260    1.5710  -16.7890 O.3   164  THR164     -0.2211
     67  CG2      -27.1320    1.0200  -15.7340 C.3   164  THR164      0.0375
     68  N        -18.3890   -4.3200   -5.1390 N.3   196  HIS196     -0.1226
     69  CA       -18.3920   -3.9220   -6.5450 C.3   196  HIS196      0.1752
     70  C        -17.0530   -3.2790   -6.8770 C.2   196  HIS196      0.2597
     71  O        -16.1990   -3.1470   -6.0060 O.2   196  HIS196     -0.2718
     72  CB       -19.5190   -2.9120   -6.7780 C.3   196  HIS196      0.0759
     73  CG       -20.8890   -3.5040   -6.6630 C.ar  196  HIS196      0.0818
     74  ND1      -21.6740   -3.7730   -7.7590 N.ar  196  HIS196     -0.2268
     75  CD2      -21.5930   -3.9230   -5.5850 C.ar  196  HIS196      0.1154
     76  CE1      -22.8030   -4.3350   -7.3660 C.ar  196  HIS196      0.1986
     77  NE2      -22.7790   -4.4400   -6.0500 N.ar  196  HIS196     -0.2212
     78  N        -16.8520   -2.8530   -8.1170 N.am  197  SER197     -0.1938
     79  CA       -15.5660   -2.2400   -8.3890 C.3   197  SER197      0.2055
     80  C        -15.4550   -0.8830   -9.0310 C.2   197  SER197      0.2643
     81  O        -16.1890   -0.5020   -9.9440 O.2   197  SER197     -0.2714
     82  CB       -14.6550   -3.1990   -9.1590 C.3   197  SER197      0.2130
     83  OG       -14.7970   -3.0500  -10.5520 O.3   197  SER197     -0.2179
     84  N        -14.4780   -0.1700   -8.4840 N.am  198  TYR198     -0.1973
     85  CA       -14.0480    1.1380   -8.9000 C.3   198  TYR198      0.1639
     86  C        -14.9210    2.3850   -8.7280 C.2   198  TYR198      0.2290
     87  O        -16.0810    2.5000   -9.1660 O.2   198  TYR198     -0.2864
     88  CB       -13.4170    0.9570  -10.2930 C.3   198  TYR198      0.0560
     89  CG       -13.8120    1.8590  -11.4090 C.ar  198  TYR198     -0.0198
     90  CD1      -14.4180    1.3310  -12.5460 C.ar  198  TYR198     -0.0009
     91  CD2      -13.4950    3.2130  -11.3900 C.ar  198  TYR198     -0.0009
     92  CE1      -14.6950    2.1220  -13.6450 C.ar  198  TYR198      0.0417
     93  CE2      -13.7710    4.0240  -12.4900 C.ar  198  TYR198      0.0417
     94  CZ       -14.3670    3.4690  -13.6120 C.ar  198  TYR198      0.1957
     95  OH       -14.6240    4.2430  -14.7170 O.3   198  TYR198     -0.2866
     96  N        -20.7030    2.7230    0.6570 N.3   203  LEU203     -0.1245
     97  CA       -22.0220    3.3250    0.7470 C.3   203  LEU203      0.1561
     98  C        -22.9990    2.5690    1.6260 C.2   203  LEU203      0.2260
     99  O        -22.9250    1.3470    1.7500 O.2   203  LEU203     -0.2867
    100  CB       -22.6090    3.4380   -0.6600 C.3   203  LEU203      0.0270
    101  CG       -21.6650    3.9960   -1.7220 C.3   203  LEU203      0.0019
    102  CD1      -22.2650    3.7690   -3.0960 C.3   203  LEU203      0.0001
    103  CD2      -21.4050    5.4600   -1.4680 C.3   203  LEU203      0.0001
    104  N        -26.0150    5.8630   -0.7240 N.3   243  ILE243     -0.1245
    105  CA       -25.9130    5.6940   -2.1730 C.3   243  ILE243      0.1561
    106  C        -26.4260    6.8930   -2.9660 C.2   243  ILE243      0.2260
    107  O        -25.7310    7.4250   -3.8330 O.2   243  ILE243     -0.2867
    108  CB       -26.7070    4.4610   -2.6400 C.3   243  ILE243      0.0252
    109  CG1      -26.0980    3.1900   -2.0420 C.3   243  ILE243      0.0019
    110  CG2      -26.7130    4.3860   -4.1660 C.3   243  ILE243      0.0019
    111  CD1      -26.9320    1.9410   -2.2970 C.3   243  ILE243      0.0001
    112  N        -23.3870    8.9140   -5.0350 N.3   247  ILE247     -0.1231
    113  CA       -23.1920    8.7350   -6.4770 C.3   247  ILE247      0.1692
    114  C        -24.3850    9.1990   -7.2900 C.2   247  ILE247      0.2592
    115  O        -24.2380   10.0250   -8.1850 O.2   247  ILE247     -0.2718
    116  CB       -22.9100    7.2670   -6.8880 C.3   247  ILE247      0.0266
    117  CG1      -22.5760    6.4150   -5.6730 C.3   247  ILE247      0.0019
    118  CG2      -21.7680    7.2260   -7.8870 C.3   247  ILE247      0.0020
    119  CD1      -23.7970    5.8600   -5.0030 C.3   247  ILE247      0.0001
    120  N        -25.5620    8.6590   -6.9900 N.am  248  TYR248     -0.1976
    121  CA       -26.7800    9.0210   -7.7100 C.3   248  TYR248      0.1639
    122  C        -27.9450    8.1240   -7.3240 C.2   248  TYR248      0.2290
    123  O        -27.7660    7.1120   -6.6430 O.2   248  TYR248     -0.2864
    124  CB       -26.5630    8.9130   -9.2240 C.3   248  TYR248      0.0560
    125  CG       -25.9390    7.6030   -9.6840 C.ar  248  TYR248     -0.0198
    126  CD1      -26.3500    6.3790   -9.1490 C.ar  248  TYR248     -0.0009
    127  CD2      -24.9560    7.5900  -10.6740 C.ar  248  TYR248     -0.0009
    128  CE1      -25.7980    5.1770   -9.5870 C.ar  248  TYR248      0.0417
    129  CE2      -24.3990    6.3930  -11.1220 C.ar  248  TYR248      0.0417
    130  CZ       -24.8240    5.1920  -10.5740 C.ar  248  TYR248      0.1957
    131  OH       -24.2760    4.0110  -11.0160 O.3   248  TYR248     -0.2866
    132  N        -30.3550    5.2700   -7.5250 N.3   250  ALA250     -0.1245
    133  CA       -30.2440    3.9350   -8.0990 C.3   250  ALA250      0.1562
    134  C        -31.2750    3.0490   -7.4060 C.2   250  ALA250      0.2260
    135  O        -31.2800    2.9300   -6.1820 O.2   250  ALA250     -0.2867
    136  CB       -28.8360    3.3900   -7.8760 C.3   250  ALA250      0.0290
    137  N        -31.5420   -1.9440   -5.7730 N.3   253  GLY253     -0.1225
    138  CA       -30.2340   -2.3390   -5.2630 C.3   253  GLY253      0.1811
    139  C        -30.2460   -3.3310   -4.1110 C.2   253  GLY253      0.2280
    140  O        -31.1600   -3.3310   -3.2930 O.2   253  GLY253     -0.2866
    141  N        -28.3880   -3.6870   -1.2010 N.3   255  ILE255     -0.1245
    142  CA       -28.3770   -3.2570    0.1960 C.3   255  ILE255      0.1561
    143  C        -29.6140   -2.4940    0.6370 C.2   255  ILE255      0.2260
    144  O        -29.8570   -2.3550    1.8370 O.2   255  ILE255     -0.2867
    145  CB       -27.1180   -2.4410    0.5610 C.3   255  ILE255      0.0252
    146  CG1      -27.0780   -1.1240   -0.2040 C.3   255  ILE255      0.0019
    147  CG2      -25.8730   -3.2740    0.2920 C.3   255  ILE255      0.0019
    148  CD1      -25.9990   -0.2010    0.3090 C.3   255  ILE255      0.0001
    149  N        -22.2440   -1.3160    0.6990 N.3   268  THR268     -0.1218
    150  CA       -21.7610   -1.7250   -0.6070 C.3   268  THR268      0.1862
    151  C        -20.4160   -1.0510   -0.8130 C.2   268  THR268      0.2287
    152  O        -20.2700    0.1480   -0.5740 O.2   268  THR268     -0.2866
    153  CB       -22.7130   -1.3080   -1.7500 C.3   268  THR268      0.1770
    154  OG1      -23.9730   -1.9690   -1.5950 O.3   268  THR268     -0.2211
    155  CG2      -22.1290   -1.7070   -3.0910 C.3   268  THR268      0.0375
    156  N        -17.2600   -0.1190   -3.4370 N.3   270  GLU270     -0.1245
    157  CA       -16.8890    0.0500   -4.8450 C.3   270  GLU270      0.1567
    158  C        -15.3710    0.0910   -4.7150 C.2   270  GLU270      0.2260
    159  O        -14.8070    1.0860   -4.2600 O.2   270  GLU270     -0.2867
    160  CB       -17.4110    1.3660   -5.4170 C.3   270  GLU270      0.0388
    161  CG       -18.8790    1.3430   -5.8300 C.3   270  GLU270      0.1160
    162  CD       -19.1660    0.4020   -6.9940 C.2   270  GLU270      0.3649
    163  OE1      -18.2180   -0.0140   -7.7090 O.co2 270  GLU270     -0.2457
    164  OE2      -20.3570    0.0860   -7.2010 O.co2 270  GLU270     -0.2457
    165  N        -12.2380   -0.8880  -14.7900 N.3   279  PHE279     -0.1241
    166  CA       -12.5680   -2.3010  -14.6430 C.3   279  PHE279      0.1605
    167  C        -11.3930   -3.2060  -14.9960 C.2   279  PHE279      0.2264
    168  O        -11.3570   -4.3720  -14.6000 O.2   279  PHE279     -0.2867
    169  CB       -13.7710   -2.6510  -15.5220 C.3   279  PHE279      0.0534
    170  CG       -15.0070   -1.8760  -15.1800 C.ar  279  PHE279     -0.0203
    171  CD1      -15.5980   -2.0030  -13.9220 C.ar  279  PHE279     -0.0042
    172  CD2      -15.5640   -0.9870  -16.0960 C.ar  279  PHE279     -0.0042
    173  CE1      -16.7190   -1.2530  -13.5830 C.ar  279  PHE279     -0.0003
    174  CE2      -16.6850   -0.2330  -15.7660 C.ar  279  PHE279     -0.0003
    175  CZ       -17.2640   -0.3630  -14.5100 C.ar  279  PHE279     -0.0000
@<TRIPOS>BOND
     1    20    19    1
     2    31    32    1
     3    61    62    1
     4    19    21    1
     5    19    18    2
     6    17    18    1
     7    17    16    1
     8    36    37    1
     9    36    35    1
    10    37    38    1
    11    66    65    1
    12    32    35    1
    13    32    33    1
    14    15    16    1
    15    15    12    1
    16    62    63    1
    17    62    65    1
    18    63    64    2
    19    33    34    2
    20   172   174   ar
    21   172   170   ar
    22    65    67    1
    23   174   175   ar
    24   169   170    1
    25   169   166    1
    26    12    11    1
    27    12    13    1
    28    38    39    2
    29   170   171   ar
    30   167   166    1
    31   167   168    2
    32    40    39    1
    33   165   166    1
    34    95    94    1
    35    39    41    1
    36    14    13    2
    37   175   173   ar
    38    13    22   am
    39   171   173   ar
    40    92    94   ar
    41    92    90   ar
    42    94    93   ar
    43    22    23    1
    44     3     2    1
    45     3     4    2
    46    90    89   ar
    47    93    91   ar
    48    56    57    1
    49    56    55    1
    50    57    58    2
    51     8     6   ar
    52     8    10   ar
    53     2     5    1
    54     2     1    1
    55    59    58    1
    56    58    60    1
    57    23    24    1
    58    23    26    1
    59     5     6    1
    60     6     7   ar
    61    30    28   ar
    62    27    26    1
    63    27    28    1
    64    10     9   ar
    65    89    91   ar
    66    89    88    1
    67    54    55    1
    68    54    51    1
    69    24    25    2
    70   129   127   ar
    71   129   130   ar
    72   131   130    1
    73    28    29   ar
    74     7     9   ar
    75   127   125   ar
    76   130   128   ar
    77    83    82    1
    78    53    52    2
    79    88    85    1
    80    52    51    1
    81    51    50    1
    82    42    43    1
    83    50    44   am
    84    81    80    2
    85   125   124    1
    86   125   126   ar
    87   128   126   ar
    88   124   121    1
    89    87    86    2
    90    82    79    1
    91    44    43    1
    92    44    45    2
    93    80    84   am
    94    80    79    1
    95    43    46    1
    96    85    86    1
    97    85    84    1
    98    46    47    1
    99    79    78    1
   100   115   114    2
   101    78    70   am
   102   133   136    1
   103   133   132    1
   104   133   134    1
   105   118   116    1
   106    74    76   ar
   107    74    73   ar
   108   121   122    1
   109   121   120    1
   110   163   162   ar
   111   134   135    2
   112    76    77   ar
   113   122   123    2
   114   114   120   am
   115   114   113    1
   116   164   162   ar
   117    47    49   am
   118    47    48    2
   119   162   161    1
   120   116   113    1
   121   116   117    1
   122    70    69    1
   123    70    71    2
   124    72    73    1
   125    72    69    1
   126    73    75   ar
   127    69    68    1
   128   113   112    1
   129    77    75   ar
   130   161   160    1
   131   137   138    1
   132   117   119    1
   133   160   157    1
   134   138   139    1
   135   157   158    1
   136   157   156    1
   137   158   159    2
   138   110   108    1
   139   139   140    2
   140   107   106    2
   141   102   101    1
   142   155   153    1
   143   106   105    1
   144   108   105    1
   145   108   109    1
   146   111   109    1
   147   105   104    1
   148   153   154    1
   149   153   150    1
   150   101   103    1
   151   101   100    1
   152   141   142    1
   153   151   150    1
   154   151   152    2
   155   100    97    1
   156   150   149    1
   157   146   148    1
   158   146   145    1
   159   142   145    1
   160   142   143    1
   161   147   145    1
   162   143   144    2
   163    96    97    1
   164    97    98    1
   165    98    99    2
