@<TRIPOS>MOLECULE
tmp/3fxbA00.pdb
 119 118 0 0 0
SMALL
GASTEIGER

@<TRIPOS>ATOM
      1  N         -1.5920   -5.5290    8.2180 N.3     8  GLU8       -0.1231
      2  CA        -0.2590   -5.3790    7.6130 C.3     8  GLU8        0.1699
      3  C         -0.1630   -5.7090    6.1190 C.2     8  GLU8        0.2592
      4  O          0.9080   -5.5650    5.5220 O.2     8  GLU8       -0.2718
      5  CB         0.7580   -6.2570    8.3550 C.3     8  GLU8        0.0402
      6  CG         0.9660   -5.9320    9.8210 C.3     8  GLU8        0.1161
      7  CD         1.5020   -7.1220   10.6070 C.2     8  GLU8        0.3649
      8  OE1        1.1830   -8.2800   10.2400 O.co2   8  GLU8       -0.2457
      9  OE2        2.2360   -6.9030   11.6000 O.co2   8  GLU8       -0.2457
     10  N         -1.2620   -6.1590    5.5190 N.am    9  GLU9       -0.1979
     11  CA        -1.2390   -6.6340    4.1360 C.3     9  GLU9        0.1602
     12  C         -2.2890   -5.9350    3.2760 C.2     9  GLU9        0.2287
     13  O         -2.9870   -5.0360    3.7460 O.2     9  GLU9       -0.2864
     14  CB        -1.4420   -8.1510    4.1060 C.3     9  GLU9        0.0415
     15  CG        -0.2700   -8.9560    4.6680 C.3     9  GLU9        0.1163
     16  CD        -0.6350  -10.3930    5.0450 C.2     9  GLU9        0.3649
     17  OE1       -1.6710  -10.9080    4.5740 O.co2   9  GLU9       -0.2457
     18  OE2        0.1200  -11.0110    5.8210 O.co2   9  GLU9       -0.2457
     19  N          6.9770   -8.6700   14.8720 N.3    66  PHE66      -0.1241
     20  CA         7.2000   -7.2920   15.3050 C.3    66  PHE66       0.1605
     21  C          6.9770   -7.1000   16.8050 C.2    66  PHE66       0.2264
     22  O          7.5470   -6.1870   17.4110 O.2    66  PHE66      -0.2867
     23  CB         6.3320   -6.3200   14.4950 C.3    66  PHE66       0.0534
     24  CG         6.6160   -6.3500   13.0190 C.ar   66  PHE66      -0.0203
     25  CD1        7.8530   -5.9430   12.5260 C.ar   66  PHE66      -0.0042
     26  CD2        5.6540   -6.7960   12.1230 C.ar   66  PHE66      -0.0042
     27  CE1        8.1260   -5.9790   11.1610 C.ar   66  PHE66      -0.0003
     28  CE2        5.9180   -6.8340   10.7520 C.ar   66  PHE66      -0.0003
     29  CZ         7.1580   -6.4250   10.2720 C.ar   66  PHE66      -0.0000
     30  N         17.2780   -9.6180    4.9430 N.3   144  ARG144     -0.1245
     31  CA        16.2420   -8.8520    5.6310 C.3   144  ARG144      0.1563
     32  C         15.3910   -9.7780    6.4770 C.2   144  ARG144      0.2260
     33  O         15.1500  -10.9310    6.1190 O.2   144  ARG144     -0.2867
     34  CB        15.3660   -8.0770    4.6400 C.3   144  ARG144      0.0307
     35  CG        14.2790   -7.2080    5.2860 C.3   144  ARG144      0.0489
     36  CD        12.9690   -7.9650    5.4550 C.3   144  ARG144      0.2205
     37  NE        12.0770   -7.3140    6.4090 N.pl3 144  ARG144     -0.0865
     38  CZ        10.8160   -7.6810    6.6400 C.cat 144  ARG144      0.5346
     39  NH1       10.2820   -8.7010    5.9860 N.pl3 144  ARG144      0.1354
     40  NH2       10.0810   -7.0250    7.5260 N.pl3 144  ARG144      0.1354
     41  N         12.1850   -9.6590    9.9120 N.3   146  MET146     -0.1245
     42  CA        11.2800   -8.8710   10.7630 C.3   146  MET146      0.1570
     43  C         11.9970   -8.4690   12.0630 C.2   146  MET146      0.2261
     44  O         12.9910   -9.0900   12.4470 O.2   146  MET146     -0.2867
     45  CB         9.9570   -9.6170   11.0340 C.3   146  MET146      0.0387
     46  CG         8.9790   -9.6630    9.8310 C.3   146  MET146      0.0595
     47  SD         7.3530  -10.4150   10.1030 S.3   146  MET146     -0.1393
     48  CE         7.8090  -12.0790   10.5180 C.3   146  MET146      0.0692
     49  N          8.9030   -3.6060    6.4830 N.3   167  TRP167     -0.1241
     50  CA         8.5630   -4.0410    5.1220 C.3   167  TRP167      0.1605
     51  C          8.7160   -2.9890    4.0040 C.2   167  TRP167      0.2264
     52  O          9.1900   -3.3110    2.9090 O.2   167  TRP167     -0.2867
     53  CB         7.1650   -4.6880    5.0680 C.3   167  TRP167      0.0550
     54  CG         6.8070   -5.1150    3.6770 C.ar  167  TRP167      0.0003
     55  CD1        5.9120   -4.5190    2.8440 C.ar  167  TRP167      0.0946
     56  CD2        7.3910   -6.1910    2.9350 C.ar  167  TRP167      0.0152
     57  NE1        5.8810   -5.1700    1.6360 N.ar  167  TRP167     -0.2442
     58  CE2        6.7800   -6.2010    1.6650 C.ar  167  TRP167      0.0810
     59  CE3        8.3600   -7.1590    3.2270 C.ar  167  TRP167      0.0012
     60  CZ2        7.1050   -7.1420    0.6820 C.ar  167  TRP167      0.0191
     61  CZ3        8.6850   -8.0930    2.2520 C.ar  167  TRP167      0.0001
     62  CH2        8.0570   -8.0770    0.9930 C.ar  167  TRP167      0.0015
     63  N         12.6100  -13.3550    3.4760 N.3   183  GLU183     -0.1231
     64  CA        11.7930  -14.5470    3.7580 C.3   183  GLU183      0.1699
     65  C         10.3220  -14.2210    4.0130 C.2   183  GLU183      0.2592
     66  O         10.0030  -13.3250    4.7900 O.2   183  GLU183     -0.2718
     67  CB        12.3600  -15.3510    4.9380 C.3   183  GLU183      0.0402
     68  CG        12.5220  -14.5520    6.2320 C.3   183  GLU183      0.1161
     69  CD        11.9640  -15.2660    7.4600 C.2   183  GLU183      0.3649
     70  OE1       12.2270  -16.4820    7.6430 O.co2 183  GLU183     -0.2457
     71  OE2       11.2640  -14.5910    8.2520 O.co2 183  GLU183     -0.2457
     72  N          9.4370  -14.9650    3.3540 N.am  184  ASN184     -0.1961
     73  CA         7.9820  -14.8210    3.4980 C.3   184  ASN184      0.1804
     74  C          7.2440  -16.0260    2.8950 C.2   184  ASN184      0.2463
     75  O          7.8360  -16.7950    2.1320 O.2   184  ASN184     -0.2730
     76  CB         7.4880  -13.5110    2.8640 C.3   184  ASN184      0.1195
     77  CG         7.3130  -12.3930    3.8820 C.2   184  ASN184      0.2630
     78  OD1        6.6240  -12.5530    4.8870 O.2   184  ASN184     -0.2716
     79  ND2        7.9260  -11.2500    3.6180 N.am  184  ASN184     -0.0877
     80  N          5.9630  -16.2210    3.2600 N.am  185  PRO185     -0.2727
     81  CA         5.1480  -17.2300    2.5750 C.3   185  PRO185      0.1402
     82  C          4.9410  -16.9620    1.0780 C.2   185  PRO185      0.2269
     83  O          5.1610  -15.8460    0.6020 O.2   185  PRO185     -0.2865
     84  CB         3.8080  -17.1810    3.3260 C.3   185  PRO185      0.0296
     85  CG         3.7990  -15.8810    4.0330 C.3   185  PRO185      0.0237
     86  CD         5.2260  -15.5780    4.3620 C.3   185  PRO185      0.0939
     87  N          2.1850  -16.9300   -0.9480 N.3   187  PHE187     -0.1227
     88  CA         1.1180  -16.0420   -1.3980 C.3   187  PHE187      0.1736
     89  C          1.6170  -14.5930   -1.4280 C.2   187  PHE187      0.2595
     90  O          1.3090  -13.8470   -2.3630 O.2   187  PHE187     -0.2718
     91  CB        -0.1260  -16.1650   -0.5030 C.3   187  PHE187      0.0547
     92  CG        -0.1190  -15.2310    0.6770 C.ar  187  PHE187     -0.0202
     93  CD1        0.6480  -15.5170    1.8080 C.ar  187  PHE187     -0.0042
     94  CD2       -0.8450  -14.0490    0.6430 C.ar  187  PHE187     -0.0042
     95  CE1        0.6780  -14.6460    2.8930 C.ar  187  PHE187     -0.0003
     96  CE2       -0.8190  -13.1750    1.7160 C.ar  187  PHE187     -0.0003
     97  CZ        -0.0580  -13.4760    2.8500 C.ar  187  PHE187     -0.0000
     98  N          2.3980  -14.2180   -0.4110 N.am  188  PHE188     -0.1976
     99  CA         2.7730  -12.8270   -0.1650 C.3   188  PHE188      0.1639
    100  C          3.9220  -12.4370   -1.0510 C.2   188  PHE188      0.2290
    101  O          4.0190  -11.2930   -1.4990 O.2   188  PHE188     -0.2864
    102  CB         3.1760  -12.6340    1.2990 C.3   188  PHE188      0.0560
    103  CG         3.3830  -11.1920    1.7070 C.ar  188  PHE188     -0.0200
    104  CD1        2.2950  -10.3330    1.8850 C.ar  188  PHE188     -0.0042
    105  CD2        4.6650  -10.7090    1.9580 C.ar  188  PHE188     -0.0042
    106  CE1        2.4800   -9.0040    2.2810 C.ar  188  PHE188     -0.0003
    107  CE2        4.8650   -9.3790    2.3610 C.ar  188  PHE188     -0.0003
    108  CZ         3.7660   -8.5240    2.5200 C.ar  188  PHE188     -0.0000
    109  N          4.4560  -18.8980    8.7740 N.3   209  PHE209     -0.1241
    110  CA         4.2040  -17.5090    9.1460 C.3   209  PHE209      0.1605
    111  C          2.9840  -17.3770   10.0500 C.2   209  PHE209      0.2264
    112  O          1.8630  -17.6920    9.6480 O.2   209  PHE209     -0.2867
    113  CB         4.0380  -16.6190    7.9070 C.3   209  PHE209      0.0534
    114  CG         4.1220  -15.1440    8.2100 C.ar  209  PHE209     -0.0203
    115  CD1        5.3120  -14.4520    8.0240 C.ar  209  PHE209     -0.0042
    116  CD2        3.0160  -14.4510    8.7000 C.ar  209  PHE209     -0.0042
    117  CE1        5.3930  -13.0880    8.3130 C.ar  209  PHE209     -0.0003
    118  CE2        3.0940  -13.0930    8.9900 C.ar  209  PHE209     -0.0003
    119  CZ         4.2830  -12.4110    8.7950 C.ar  209  PHE209     -0.0000
@<TRIPOS>BOND
     1    90    89    2
     2   101   100    2
     3    89    88    1
     4    89    98   am
     5    88    87    1
     6    88    91    1
     7   100    99    1
     8    91    92    1
     9    98    99    1
    10    99   102    1
    11    83    82    2
    12    94    92   ar
    13    94    96   ar
    14    92    93   ar
    15    60    62   ar
    16    60    58   ar
    17    62    61   ar
    18    82    81    1
    19   102   103    1
    20    57    58   ar
    21    57    55   ar
    22    58    56   ar
    23   103   104   ar
    24   103   105   ar
    25    96    97   ar
    26    93    95   ar
    27   104   106   ar
    28   105   107   ar
    29    75    74    2
    30    61    59   ar
    31   106   108   ar
    32   107   108   ar
    33    81    80    1
    34    81    84    1
    35    55    54   ar
    36    97    95   ar
    37    76    73    1
    38    76    77    1
    39    74    80   am
    40    74    73    1
    41    52    51    2
    42    56    59   ar
    43    56    54   ar
    44    80    86    1
    45    12    13    2
    46    12    11    1
    47    84    85    1
    48    72    73    1
    49    72    65   am
    50    63    64    1
    51    79    77   am
    52    54    53    1
    53    64    65    1
    54    64    67    1
    55    77    78    2
    56    51    50    1
    57    65    66    2
    58    85    86    1
    59    14    11    1
    60    14    15    1
    61    11    10    1
    62    17    16   ar
    63    34    35    1
    64    34    31    1
    65    15    16    1
    66    67    68    1
    67    30    31    1
    68    16    18   ar
    69    53    50    1
    70    50    49    1
    71    35    36    1
    72    36    37    1
    73    10     3   am
    74     4     3    2
    75    31    32    1
    76    39    38    1
    77     3     2    1
    78    33    32    2
    79    68    69    1
    80    37    38    2
    81    38    40    1
    82    69    70   ar
    83    69    71   ar
    84     2     1    1
    85     2     5    1
    86   113   114    1
    87   113   110    1
    88   115   114   ar
    89   115   117   ar
    90   114   116   ar
    91   117   119   ar
    92     5     6    1
    93   116   118   ar
    94   109   110    1
    95   119   118   ar
    96   110   111    1
    97   112   111    2
    98     6     7    1
    99    46    47    1
   100    46    45    1
   101    41    42    1
   102    47    48    1
   103     8     7   ar
   104    29    28   ar
   105    29    27   ar
   106     7     9   ar
   107    28    26   ar
   108    42    45    1
   109    42    43    1
   110    27    25   ar
   111    43    44    2
   112    26    24   ar
   113    25    24   ar
   114    24    23    1
   115    23    20    1
   116    19    20    1
   117    20    21    1
   118    21    22    2
