@<TRIPOS>MOLECULE
tmp/3fxiC02.pdb
 107 100 0 0 0
SMALL
GASTEIGER

@<TRIPOS>ATOM
      1  N         41.5350    0.6170   17.4190 N.3    14  ILE14      -0.1245
      2  CA        40.2880    1.2410   17.8560 C.3    14  ILE14       0.1561
      3  C         40.4130    2.0970   19.1210 C.2    14  ILE14       0.2260
      4  O         40.9570    1.6610   20.1390 O.2    14  ILE14      -0.2867
      5  CB        39.2220    0.1420   18.0870 C.3    14  ILE14       0.0252
      6  CG1       39.0360   -0.6600   16.8060 C.3    14  ILE14       0.0019
      7  CG2       37.8910    0.7400   18.4630 C.3    14  ILE14       0.0019
      8  CD1       38.2770   -1.9240   17.0050 C.3    14  ILE14       0.0001
      9  N         38.7640   -6.6740   17.3740 N.3    34  ILE34      -0.1245
     10  CA        38.0950   -6.6540   16.0890 C.3    34  ILE34       0.1561
     11  C         39.0650   -6.7070   14.9220 C.2    34  ILE34       0.2260
     12  O         40.1340   -6.1100   14.9570 O.2    34  ILE34      -0.2867
     13  CB        37.2850   -5.3770   15.9170 C.3    34  ILE34       0.0252
     14  CG1       36.2910   -5.2280   17.0630 C.3    34  ILE34       0.0019
     15  CG2       36.5630   -5.3960   14.5870 C.3    34  ILE34       0.0019
     16  CD1       35.1710   -6.2010   17.0300 C.3    34  ILE34       0.0001
     17  N         38.6320   -6.1990   10.8210 N.3    36  LEU36      -0.1245
     18  CA        37.6910   -5.8560    9.7720 C.3    36  LEU36       0.1561
     19  C         37.5820   -6.8790    8.6550 C.2    36  LEU36       0.2260
     20  O         36.6870   -6.7900    7.8310 O.2    36  LEU36      -0.2867
     21  CB        38.0230   -4.4750    9.2120 C.3    36  LEU36       0.0270
     22  CG        37.3300   -3.3480    9.9800 C.3    36  LEU36       0.0019
     23  CD1       37.6580   -3.4550   11.4490 C.3    36  LEU36       0.0001
     24  CD2       37.7430   -2.0120    9.4160 C.3    36  LEU36       0.0001
     25  N         23.9210    5.8470   14.2510 N.3    60  LEU60      -0.1245
     26  CA        25.3010    5.7740   13.8340 C.3    60  LEU60       0.1561
     27  C         25.6520    6.7100   12.6980 C.2    60  LEU60       0.2260
     28  O         24.9800    6.7330   11.6630 O.2    60  LEU60      -0.2867
     29  CB        25.6570    4.3380   13.4510 C.3    60  LEU60       0.0270
     30  CG        25.4410    3.2200   14.4660 C.3    60  LEU60       0.0019
     31  CD1       25.8970    1.9240   13.8450 C.3    60  LEU60       0.0001
     32  CD2       26.2130    3.4830   15.7410 C.3    60  LEU60       0.0001
     33  N         30.8210  -11.2560   12.7550 N.3   103  PHE103     -0.1227
     34  CA        30.5160  -10.6650   11.4520 C.3   103  PHE103      0.1736
     35  C         31.5260  -11.0770   10.4050 C.2   103  PHE103      0.2595
     36  O         32.5990  -11.5730   10.7430 O.2   103  PHE103     -0.2718
     37  CB        30.4350   -9.1320   11.5310 C.3   103  PHE103      0.0547
     38  CG        31.7440   -8.4550   11.8330 C.ar  103  PHE103     -0.0202
     39  CD1       32.6350   -8.1370   10.8170 C.ar  103  PHE103     -0.0042
     40  CD2       32.0840   -8.1280   13.1440 C.ar  103  PHE103     -0.0042
     41  CE1       33.8460   -7.5070   11.1020 C.ar  103  PHE103     -0.0003
     42  CE2       33.2990   -7.4960   13.4390 C.ar  103  PHE103     -0.0003
     43  CZ        34.1810   -7.1830   12.4190 C.ar  103  PHE103     -0.0000
     44  N         31.1660  -10.8910    9.1360 N.am  104  LYS104     -0.1966
     45  CA        32.0340  -11.2410    8.0150 C.3   104  LYS104      0.1728
     46  C         31.3560  -10.8530    6.7130 C.2   104  LYS104      0.2617
     47  O         30.1800  -10.4990    6.7120 O.2   104  LYS104     -0.2715
     48  CB        32.3050  -12.7490    7.9950 C.3   104  LYS104      0.0311
     49  CG        31.0700  -13.6080    7.6950 C.3   104  LYS104      0.0038
     50  CD        31.4090  -15.1200    7.6200 C.3   104  LYS104      0.0206
     51  CE        32.1050  -15.5160    6.3120 C.3   104  LYS104      0.1093
     52  NZ        32.4340  -16.9730    6.2370 N.3   104  LYS104     -0.1314
     53  N         32.0940  -10.9070    5.6080 N.am  105  GLY105     -0.1940
     54  CA        31.4890  -10.6020    4.3250 C.3   105  GLY105      0.2014
     55  C         31.7160   -9.2620    3.6450 C.2   105  GLY105      0.2638
     56  O         31.3160   -9.1100    2.4940 O.2   105  GLY105     -0.2714
     57  N         32.3310   -8.2840    4.3080 N.am  106  ILE106     -0.1977
     58  CA        32.5630   -7.0060    3.6390 C.3   106  ILE106      0.1596
     59  C         34.0060   -6.5290    3.6170 C.2   106  ILE106      0.2287
     60  O         34.7250   -6.6130    4.6090 O.2   106  ILE106     -0.2864
     61  CB        31.6580   -5.8920    4.2170 C.3   106  ILE106      0.0276
     62  CG1       30.2070   -6.1630    3.8100 C.3   106  ILE106      0.0022
     63  CG2       32.0800   -4.5250    3.6860 C.3   106  ILE106      0.0022
     64  CD1       29.1960   -5.0940    4.2420 C.3   106  ILE106      0.0001
     65  N         36.6270   -3.4940    3.2230 N.3   108  PHE108     -0.1241
     66  CA        36.6820   -2.0590    3.4940 C.3   108  PHE108      0.1605
     67  C         37.9210   -1.4250    2.8730 C.2   108  PHE108      0.2264
     68  O         38.9540   -2.0780    2.7340 O.2   108  PHE108     -0.2867
     69  CB        36.7210   -1.7960    4.9960 C.3   108  PHE108      0.0534
     70  CG        35.6410   -2.4720    5.7590 C.ar  108  PHE108     -0.0203
     71  CD1       35.7510   -3.8110    6.0960 C.ar  108  PHE108     -0.0042
     72  CD2       34.5000   -1.7730    6.1270 C.ar  108  PHE108     -0.0042
     73  CE1       34.7370   -4.4520    6.8000 C.ar  108  PHE108     -0.0003
     74  CE2       33.4780   -2.3970    6.8290 C.ar  108  PHE108     -0.0003
     75  CZ        33.5950   -3.7440    7.1660 C.ar  108  PHE108     -0.0000
     76  N         33.2430    6.7000   13.6740 N.3   115  CYS115     -0.1235
     77  CA        31.8360    6.3840   13.8580 C.3   115  CYS115      0.1677
     78  C         31.2660    7.0060   15.1190 C.2   115  CYS115      0.2270
     79  O         31.6410    6.6230   16.2270 O.2   115  CYS115     -0.2867
     80  CB        31.6500    4.8620   13.9120 C.3   115  CYS115      0.0956
     81  SG        29.9460    4.3050   14.1950 S.3   115  CYS115     -0.0801
     82  N         28.5780    7.2480   17.7060 N.3   117  VAL117     -0.1245
     83  CA        27.5380    6.3710   18.2000 C.3   117  VAL117      0.1561
     84  C         26.7820    7.0710   19.3240 C.2   117  VAL117      0.2260
     85  O         27.1970    7.0970   20.4780 O.2   117  VAL117     -0.2867
     86  CB        28.1500    5.0260   18.6680 C.3   117  VAL117      0.0252
     87  CG1       29.4120    5.2820   19.4570 C.3   117  VAL117      0.0019
     88  CG2       27.1540    4.2450   19.5020 C.3   117  VAL117      0.0019
     89  N         34.0690    6.9900   17.8130 N.3   133  PHE133     -0.1241
     90  CA        35.0530    5.9330   17.6110 C.3   133  PHE133      0.1605
     91  C         35.9690    6.1700   16.4270 C.2   133  PHE133      0.2264
     92  O         35.5170    6.4590   15.3230 O.2   133  PHE133     -0.2867
     93  CB        34.3620    4.5770   17.4220 C.3   133  PHE133      0.0534
     94  CG        33.8560    3.9590   18.7000 C.ar  133  PHE133     -0.0203
     95  CD1       32.6180    4.3180   19.2320 C.ar  133  PHE133     -0.0042
     96  CD2       34.6200    3.0080   19.3680 C.ar  133  PHE133     -0.0042
     97  CE1       32.1600    3.7410   20.4040 C.ar  133  PHE133     -0.0003
     98  CE2       34.1680    2.4300   20.5400 C.ar  133  PHE133     -0.0003
     99  CZ        32.9330    2.7920   21.0590 C.ar  133  PHE133     -0.0000
    100  N         38.7080    4.3100   14.2400 N.3   135  ILE135     -0.1245
    101  CA        39.2640    3.0080   13.9330 C.3   135  ILE135      0.1561
    102  C         40.1130    3.0550   12.6560 C.2   135  ILE135      0.2260
    103  O         39.6210    3.3840   11.5740 O.2   135  ILE135     -0.2867
    104  CB        38.0980    1.9950   13.8460 C.3   135  ILE135      0.0252
    105  CG1       38.5510    0.6810   13.2440 C.3   135  ILE135      0.0019
    106  CG2       36.9430    2.5960   13.0780 C.3   135  ILE135      0.0019
    107  CD1       37.4730   -0.3630   13.3540 C.3   135  ILE135      0.0001
@<TRIPOS>BOND
     1    56    55    2
     2    68    67    2
     3    67    66    1
     4    65    66    1
     5    66    69    1
     6    59    58    1
     7    59    60    2
     8    58    61    1
     9    58    57    1
    10    55    57   am
    11    55    54    1
    12    63    61    1
    13    62    61    1
    14    62    64    1
    15    54    53    1
    16    69    70    1
    17    53    46   am
    18    70    71   ar
    19    70    72   ar
    20    71    73   ar
    21    72    74   ar
    22    52    51    1
    23    51    50    1
    24    47    46    2
    25    46    45    1
    26    73    75   ar
    27    74    75   ar
    28    50    49    1
    29    49    48    1
    30    20    19    2
    31    48    45    1
    32    45    44    1
    33    19    18    1
    34    44    35   am
    35    21    18    1
    36    21    22    1
    37    24    22    1
    38    18    17    1
    39    22    23    1
    40    35    36    2
    41    35    34    1
    42    39    41   ar
    43    39    38   ar
    44    41    43   ar
    45    34    37    1
    46    34    33    1
    47    37    38    1
    48   103   102    2
    49    28    27    2
    50    38    40   ar
    51    43    42   ar
    52   102   101    1
    53    27    26    1
    54   106   104    1
    55    40    42   ar
    56   105   107    1
    57   105   104    1
    58    29    26    1
    59    29    30    1
    60    76    77    1
    61    26    25    1
    62    31    30    1
    63   104   101    1
    64    77    80    1
    65    77    78    1
    66    80    81    1
    67   101   100    1
    68    30    32    1
    69    15    13    1
    70    11    12    2
    71    11    10    1
    72    78    79    2
    73    92    91    2
    74    13    10    1
    75    13    14    1
    76    10     9    1
    77    91    90    1
    78     6     8    1
    79     6     5    1
    80    16    14    1
    81     1     2    1
    82    93    90    1
    83    93    94    1
    84    90    89    1
    85    82    83    1
    86     2     5    1
    87     2     3    1
    88     5     7    1
    89    83    86    1
    90    83    84    1
    91    86    87    1
    92    86    88    1
    93    94    95   ar
    94    94    96   ar
    95     3     4    2
    96    95    97   ar
    97    84    85    2
    98    96    98   ar
    99    97    99   ar
   100    98    99   ar
