@<TRIPOS>MOLECULE
tmp/3fxiC03.pdb
 85 80 0 0 0
SMALL
GASTEIGER

@<TRIPOS>ATOM
      1  N         40.9430    1.2870   23.0630 N.3     6  VAL6       -0.1245
      2  CA        40.2860    0.0160   23.2340 C.3     6  VAL6        0.1561
      3  C         41.2990   -1.0810   22.9150 C.2     6  VAL6        0.2260
      4  O         41.7620   -1.7640   23.8260 O.2     6  VAL6       -0.2867
      5  CB        39.0510   -0.0980   22.3240 C.3     6  VAL6        0.0252
      6  CG1       38.2670   -1.3700   22.6690 C.3     6  VAL6        0.0019
      7  CG2       38.1660    1.1390   22.5000 C.3     6  VAL6        0.0019
      8  N         41.5350    0.6170   17.4190 N.3    14  ILE14      -0.1245
      9  CA        40.2880    1.2410   17.8560 C.3    14  ILE14       0.1561
     10  C         40.4130    2.0970   19.1210 C.2    14  ILE14       0.2260
     11  O         40.9570    1.6610   20.1390 O.2    14  ILE14      -0.2867
     12  CB        39.2220    0.1420   18.0870 C.3    14  ILE14       0.0252
     13  CG1       39.0360   -0.6600   16.8060 C.3    14  ILE14       0.0019
     14  CG2       37.8910    0.7400   18.4630 C.3    14  ILE14       0.0019
     15  CD1       38.2770   -1.9240   17.0050 C.3    14  ILE14       0.0001
     16  N         35.0820   -0.5500   28.3340 N.3    28  ILE28      -0.1245
     17  CA        34.8520   -1.2630   27.0840 C.3    28  ILE28       0.1561
     18  C         35.9880   -2.1860   26.6810 C.2    28  ILE28       0.2260
     19  O         37.0600   -1.7260   26.3150 O.2    28  ILE28      -0.2867
     20  CB        34.6410   -0.2680   25.9480 C.3    28  ILE28       0.0252
     21  CG1       33.4710    0.6470   26.2780 C.3    28  ILE28       0.0019
     22  CG2       34.3900   -1.0000   24.6560 C.3    28  ILE28       0.0019
     23  CD1       33.3080    1.7800   25.3060 C.3    28  ILE28       0.0001
     24  N         37.2010   -5.6480   24.2900 N.3    30  VAL30      -0.1245
     25  CA        36.8740   -6.4550   23.1360 C.3    30  VAL30       0.1561
     26  C         37.8670   -7.6110   23.0650 C.2    30  VAL30       0.2260
     27  O         39.0720   -7.3850   22.9030 O.2    30  VAL30      -0.2867
     28  CB        36.9480   -5.5810   21.8580 C.3    30  VAL30       0.0252
     29  CG1       36.4390   -6.3430   20.6550 C.3    30  VAL30       0.0019
     30  CG2       36.1360   -4.3120   22.0540 C.3    30  VAL30       0.0019
     31  N         38.7640   -6.6740   17.3740 N.3    34  ILE34      -0.1245
     32  CA        38.0950   -6.6540   16.0890 C.3    34  ILE34       0.1561
     33  C         39.0650   -6.7070   14.9220 C.2    34  ILE34       0.2260
     34  O         40.1340   -6.1100   14.9570 O.2    34  ILE34      -0.2867
     35  CB        37.2850   -5.3770   15.9170 C.3    34  ILE34       0.0252
     36  CG1       36.2910   -5.2280   17.0630 C.3    34  ILE34       0.0019
     37  CG2       36.5630   -5.3960   14.5870 C.3    34  ILE34       0.0019
     38  CD1       35.1710   -6.2010   17.0300 C.3    34  ILE34       0.0001
     39  N         32.2970   -8.8270   23.8260 N.3    43  LEU43      -0.1245
     40  CA        32.3940   -7.4070   24.1400 C.3    43  LEU43       0.1561
     41  C         31.9250   -7.1940   25.5730 C.2    43  LEU43       0.2260
     42  O         30.7280   -7.2350   25.8460 O.2    43  LEU43      -0.2867
     43  CB        31.5040   -6.6040   23.1960 C.3    43  LEU43       0.0270
     44  CG        31.1280   -5.1960   23.6520 C.3    43  LEU43       0.0019
     45  CD1       32.3720   -4.3130   23.6600 C.3    43  LEU43       0.0001
     46  CD2       30.0800   -4.6230   22.7350 C.3    43  LEU43       0.0001
     47  N         29.5400  -11.0820   19.8520 N.3   101  PHE101     -0.1227
     48  CA        29.3520  -10.5330   18.5120 C.3   101  PHE101      0.1736
     49  C         30.0460  -11.3940   17.4590 C.2   101  PHE101      0.2596
     50  O         30.8230  -12.2930   17.7910 O.2   101  PHE101     -0.2718
     51  CB        29.8590   -9.0830   18.4470 C.3   101  PHE101      0.0547
     52  CG        31.3450   -8.9380   18.6310 C.ar  101  PHE101     -0.0202
     53  CD1       32.2100   -9.0830   17.5570 C.ar  101  PHE101     -0.0042
     54  CD2       31.8770   -8.6610   19.8820 C.ar  101  PHE101     -0.0042
     55  CE1       33.5740   -8.9600   17.7270 C.ar  101  PHE101     -0.0003
     56  CE2       33.2390   -8.5350   20.0650 C.ar  101  PHE101     -0.0003
     57  CZ        34.0920   -8.6840   18.9840 C.ar  101  PHE101     -0.0000
     58  N         29.7460  -11.1200   16.1910 N.am  102  SER102     -0.1938
     59  CA        30.3230  -11.8630   15.0720 C.3   102  SER102      0.2055
     60  C         29.9470  -11.1910   13.7570 C.2   102  SER102      0.2643
     61  O         28.8860  -10.5920   13.6610 O.2   102  SER102     -0.2714
     62  CB        29.7980  -13.2990   15.0840 C.3   102  SER102      0.2130
     63  OG        29.8620  -13.8860   13.7940 O.3   102  SER102     -0.2179
     64  N         30.8210  -11.2560   12.7550 N.am  103  PHE103     -0.1973
     65  CA        30.5160  -10.6650   11.4520 C.3   103  PHE103      0.1639
     66  C         31.5260  -11.0770   10.4050 C.2   103  PHE103      0.2290
     67  O         32.5990  -11.5730   10.7430 O.2   103  PHE103     -0.2864
     68  CB        30.4350   -9.1320   11.5310 C.3   103  PHE103      0.0560
     69  CG        31.7440   -8.4550   11.8330 C.ar  103  PHE103     -0.0200
     70  CD1       32.6350   -8.1370   10.8170 C.ar  103  PHE103     -0.0042
     71  CD2       32.0840   -8.1280   13.1440 C.ar  103  PHE103     -0.0042
     72  CE1       33.8460   -7.5070   11.1020 C.ar  103  PHE103     -0.0003
     73  CE2       33.2990   -7.4960   13.4390 C.ar  103  PHE103     -0.0003
     74  CZ        34.1810   -7.1830   12.4190 C.ar  103  PHE103     -0.0000
     75  N         34.0690    6.9900   17.8130 N.3   133  PHE133     -0.1241
     76  CA        35.0530    5.9330   17.6110 C.3   133  PHE133      0.1605
     77  C         35.9690    6.1700   16.4270 C.2   133  PHE133      0.2264
     78  O         35.5170    6.4590   15.3230 O.2   133  PHE133     -0.2867
     79  CB        34.3620    4.5770   17.4220 C.3   133  PHE133      0.0534
     80  CG        33.8560    3.9590   18.7000 C.ar  133  PHE133     -0.0203
     81  CD1       32.6180    4.3180   19.2320 C.ar  133  PHE133     -0.0042
     82  CD2       34.6200    3.0080   19.3680 C.ar  133  PHE133     -0.0042
     83  CE1       32.1600    3.7410   20.4040 C.ar  133  PHE133     -0.0003
     84  CE2       34.1680    2.4300   20.5400 C.ar  133  PHE133     -0.0003
     85  CZ        32.9330    2.7920   21.0590 C.ar  133  PHE133     -0.0000
@<TRIPOS>BOND
     1    66    67    2
     2    66    65    1
     3    70    72   ar
     4    70    69   ar
     5    72    74   ar
     6    65    68    1
     7    65    64    1
     8    68    69    1
     9    69    71   ar
    10    74    73   ar
    11    64    60   am
    12    71    73   ar
    13    61    60    2
    14    60    59    1
    15    63    62    1
    16    37    35    1
    17    33    34    2
    18    33    32    1
    19    59    62    1
    20    59    58    1
    21    78    77    2
    22    35    32    1
    23    35    36    1
    24    32    31    1
    25    58    49   am
    26    77    76    1
    27    13    15    1
    28    13    12    1
    29    38    36    1
    30     8     9    1
    31    79    76    1
    32    79    80    1
    33    49    50    2
    34    49    48    1
    35    53    55   ar
    36    53    52   ar
    37    76    75    1
    38    55    57   ar
    39     9    12    1
    40     9    10    1
    41    12    14    1
    42    51    48    1
    43    51    52    1
    44    48    47    1
    45    52    54   ar
    46    80    81   ar
    47    80    82   ar
    48    57    56   ar
    49    10    11    2
    50    81    83   ar
    51    82    84   ar
    52    54    56   ar
    53    83    85   ar
    54    84    85   ar
    55    29    28    1
    56    28    30    1
    57    28    25    1
    58     5     7    1
    59     5     6    1
    60     5     2    1
    61    46    44    1
    62    27    26    2
    63     3     2    1
    64     3     4    2
    65     1     2    1
    66    26    25    1
    67    25    24    1
    68    43    44    1
    69    43    40    1
    70    44    45    1
    71    39    40    1
    72    40    41    1
    73    22    20    1
    74    23    21    1
    75    41    42    2
    76    20    21    1
    77    20    17    1
    78    19    18    2
    79    18    17    1
    80    17    16    1
