@<TRIPOS>MOLECULE
tmp/3fxiC04.pdb
 158 150 0 0 0
SMALL
GASTEIGER

@<TRIPOS>ATOM
      1  N         32.8390    4.8330   30.9940 N.3    26  ILE26      -0.1245
      2  CA        32.4240    3.5040   30.5350 C.3    26  ILE26       0.1561
      3  C         33.6260    2.6040   30.4250 C.2    26  ILE26       0.2260
      4  O         34.7180    3.0670   30.1110 O.2    26  ILE26      -0.2867
      5  CB        31.8370    3.4730   29.1210 C.3    26  ILE26       0.0252
      6  CG1       31.2930    4.8260   28.7250 C.3    26  ILE26       0.0019
      7  CG2       30.7260    2.4450   29.0570 C.3    26  ILE26       0.0019
      8  CD1       30.7610    4.8220   27.3150 C.3    26  ILE26       0.0001
      9  N         32.2970   -8.8270   23.8260 N.3    43  LEU43      -0.1245
     10  CA        32.3940   -7.4070   24.1400 C.3    43  LEU43       0.1561
     11  C         31.9250   -7.1940   25.5730 C.2    43  LEU43       0.2260
     12  O         30.7280   -7.2350   25.8460 O.2    43  LEU43      -0.2867
     13  CB        31.5040   -6.6040   23.1960 C.3    43  LEU43       0.0270
     14  CG        31.1280   -5.1960   23.6520 C.3    43  LEU43       0.0019
     15  CD1       32.3720   -4.3130   23.6600 C.3    43  LEU43       0.0001
     16  CD2       30.0800   -4.6230   22.7350 C.3    43  LEU43       0.0001
     17  N         31.2050   -4.9270   28.7840 N.3    45  ILE45      -0.1245
     18  CA        30.9500   -3.5450   29.1550 C.3    45  ILE45       0.1561
     19  C         30.5680   -3.4480   30.6160 C.2    45  ILE45       0.2260
     20  O         29.9810   -4.3730   31.1690 O.2    45  ILE45      -0.2867
     21  CB        29.8000   -2.9470   28.3390 C.3    45  ILE45       0.0252
     22  CG1       30.1700   -2.9350   26.8600 C.3    45  ILE45       0.0019
     23  CG2       29.4990   -1.5400   28.8180 C.3    45  ILE45       0.0019
     24  CD1       28.9980   -2.6710   25.9560 C.3    45  ILE45       0.0001
     25  N         28.9840   -0.3230   33.0500 N.3    47  TYR47      -0.1241
     26  CA        28.4450    1.0270   33.0020 C.3    47  TYR47       0.1605
     27  C         27.4260    1.1340   34.0930 C.2    47  TYR47       0.2264
     28  O         26.9580    0.1340   34.6220 O.2    47  TYR47      -0.2867
     29  CB        27.7460    1.2580   31.6540 C.3    47  TYR47       0.0534
     30  CG        27.4080    2.6910   31.2880 C.ar   47  TYR47      -0.0201
     31  CD1       28.3920    3.6710   31.2580 C.ar   47  TYR47      -0.0009
     32  CD2       26.1290    3.0390   30.8790 C.ar   47  TYR47      -0.0009
     33  CE1       28.1170    4.9740   30.8200 C.ar   47  TYR47       0.0417
     34  CE2       25.8330    4.3360   30.4370 C.ar   47  TYR47       0.0417
     35  CZ        26.8330    5.3050   30.4080 C.ar   47  TYR47       0.1957
     36  OH        26.5670    6.6050   29.9940 O.3    47  TYR47      -0.2866
     37  N         17.7200    1.9020   30.4190 N.3    53  LEU53      -0.1245
     38  CA        18.1010    1.3830   29.1130 C.3    53  LEU53       0.1561
     39  C         16.8960    0.9210   28.2870 C.2    53  LEU53       0.2260
     40  O         17.0290    0.4580   27.1600 O.2    53  LEU53      -0.2867
     41  CB        19.1180    0.2650   29.2850 C.3    53  LEU53       0.0270
     42  CG        20.3940    0.7310   29.9710 C.3    53  LEU53       0.0019
     43  CD1       21.4330   -0.3560   29.8710 C.3    53  LEU53       0.0001
     44  CD2       20.9010    1.9980   29.3300 C.3    53  LEU53       0.0001
     45  N         16.5730    0.9580   24.2040 N.3    56  LEU56      -0.1245
     46  CA        17.8480    1.5420   23.7700 C.3    56  LEU56       0.1561
     47  C         17.9700    1.4850   22.2470 C.2    56  LEU56       0.2260
     48  O         17.2560    0.7410   21.5900 O.2    56  LEU56      -0.2867
     49  CB        19.0080    0.7450   24.3770 C.3    56  LEU56       0.0270
     50  CG        20.3310    1.3900   24.7970 C.3    56  LEU56       0.0019
     51  CD1       21.3430    0.2880   25.0590 C.3    56  LEU56       0.0001
     52  CD2       20.8560    2.3170   23.7360 C.3    56  LEU56       0.0001
     53  N         21.0850    2.9170   19.0030 N.3    58  PHE58      -0.1241
     54  CA        22.1850    3.7810   18.6240 C.3    58  PHE58       0.1605
     55  C         21.8480    4.4850   17.3160 C.2    58  PHE58       0.2264
     56  O         21.0790    3.9690   16.5140 O.2    58  PHE58      -0.2867
     57  CB        23.4520    2.9540   18.4220 C.3    58  PHE58       0.0534
     58  CG        23.8890    2.1890   19.6350 C.ar   58  PHE58      -0.0203
     59  CD1       24.3990    0.9010   19.5060 C.ar   58  PHE58      -0.0042
     60  CD2       23.8520    2.7610   20.8950 C.ar   58  PHE58      -0.0042
     61  CE1       24.8690    0.1930   20.6060 C.ar   58  PHE58      -0.0003
     62  CE2       24.3230    2.0580   22.0080 C.ar   58  PHE58      -0.0003
     63  CZ        24.8330    0.7680   21.8580 C.ar   58  PHE58      -0.0000
     64  N         18.6730   -1.8260   19.9220 N.3    76  ILE76      -0.1245
     65  CA        19.0560   -2.8310   20.9040 C.3    76  ILE76       0.1561
     66  C         17.8510   -2.6670   21.8050 C.2    76  ILE76       0.2260
     67  O         17.5930   -1.5620   22.2480 O.2    76  ILE76      -0.2867
     68  CB        20.2860   -2.4090   21.7130 C.3    76  ILE76       0.0252
     69  CG1       21.1750   -1.4750   20.8810 C.3    76  ILE76       0.0019
     70  CG2       20.9960   -3.6460   22.2450 C.3    76  ILE76       0.0019
     71  CD1       21.6420   -2.0380   19.5730 C.3    76  ILE76       0.0001
     72  N         18.3850   -8.9460   25.1740 N.3    84  TYR84      -0.1241
     73  CA        19.4320   -8.6680   26.1660 C.3    84  TYR84       0.1605
     74  C         18.8850   -8.4070   27.5660 C.2    84  TYR84       0.2264
     75  O         17.8100   -7.8270   27.7250 O.2    84  TYR84      -0.2867
     76  CB        20.2980   -7.4980   25.6930 C.3    84  TYR84       0.0534
     77  CG        21.0870   -7.8290   24.4480 C.ar   84  TYR84      -0.0201
     78  CD1       21.0980   -6.9730   23.3510 C.ar   84  TYR84      -0.0009
     79  CD2       21.7960   -9.0270   24.3510 C.ar   84  TYR84      -0.0009
     80  CE1       21.7930   -7.3010   22.1800 C.ar   84  TYR84       0.0417
     81  CE2       22.4970   -9.3710   23.1900 C.ar   84  TYR84       0.0417
     82  CZ        22.4920   -8.5020   22.1070 C.ar   84  TYR84       0.1957
     83  OH        23.2050   -8.8410   20.9710 O.3    84  TYR84      -0.2866
     84  N         20.3110   -6.5240   29.8540 N.3    86  PHE86      -0.1241
     85  CA        20.5670   -5.1640   30.2960 C.3    86  PHE86       0.1605
     86  C         19.5020   -4.1430   29.8790 C.2    86  PHE86       0.2264
     87  O         19.5370   -2.9960   30.3100 O.2    86  PHE86      -0.2867
     88  CB        21.9640   -4.7260   29.8400 C.3    86  PHE86       0.0534
     89  CG        22.1480   -4.7140   28.3540 C.ar   86  PHE86      -0.0203
     90  CD1       21.6190   -3.6910   27.5820 C.ar   86  PHE86      -0.0042
     91  CD2       22.8670   -5.7190   27.7330 C.ar   86  PHE86      -0.0042
     92  CE1       21.8070   -3.6640   26.2080 C.ar   86  PHE86      -0.0003
     93  CE2       23.0650   -5.7090   26.3670 C.ar   86  PHE86      -0.0003
     94  CZ        22.5320   -4.6760   25.5970 C.ar   86  PHE86      -0.0000
     95  N         25.4790   -2.1090   35.5650 N.3    95  VAL95      -0.1245
     96  CA        25.3980   -2.9590   34.3840 C.3    95  VAL95       0.1561
     97  C         26.7670   -3.5770   34.0770 C.2    95  VAL95       0.2260
     98  O         27.6130   -2.9190   33.4860 O.2    95  VAL95      -0.2867
     99  CB        24.9530   -2.1340   33.1780 C.3    95  VAL95       0.0252
    100  CG1       24.6500   -3.0380   32.0070 C.3    95  VAL95       0.0019
    101  CG2       23.7520   -1.3030   33.5520 C.3    95  VAL95       0.0019
    102  N         27.9720   -6.5590   32.0700 N.3    97  THR97      -0.1218
    103  CA        27.5660   -7.6160   31.1520 C.3    97  THR97       0.1862
    104  C         28.5870   -7.9570   30.0690 C.2    97  THR97       0.2287
    105  O         29.5440   -7.2190   29.8460 O.2    97  THR97      -0.2866
    106  CB        26.2300   -7.2320   30.4660 C.3    97  THR97       0.1770
    107  OG1       25.7450   -8.3410   29.7040 O.3    97  THR97      -0.2211
    108  CG2       26.4330   -6.0490   29.5330 C.3    97  THR97       0.0375
    109  N         28.4750   -9.1550   26.0720 N.3    99  ILE99      -0.1231
    110  CA        27.6980   -9.3500   24.8550 C.3    99  ILE99       0.1692
    111  C         28.5650  -10.0280   23.7870 C.2    99  ILE99       0.2593
    112  O         29.7150   -9.6340   23.5750 O.2    99  ILE99      -0.2718
    113  CB        27.2420   -7.9940   24.3440 C.3    99  ILE99       0.0266
    114  CG1       26.4510   -7.3010   25.4480 C.3    99  ILE99       0.0019
    115  CG2       26.4470   -8.1440   23.0680 C.3    99  ILE99       0.0020
    116  CD1       26.4210   -5.8030   25.3400 C.3    99  ILE99       0.0001
    117  N         28.0410  -11.0490   23.1200 N.am  100  SER100     -0.1938
    118  CA        28.8310  -11.7140   22.0850 C.3   100  SER100      0.2055
    119  C         28.5400  -11.1010   20.7260 C.2   100  SER100      0.2643
    120  O         27.4300  -10.6430   20.4730 O.2   100  SER100     -0.2714
    121  CB        28.5290  -13.2180   22.0520 C.3   100  SER100      0.2130
    122  OG        27.1430  -13.4800   22.1840 O.3   100  SER100     -0.2179
    123  N         29.5400  -11.0820   19.8520 N.am  101  PHE101     -0.1959
    124  CA        29.3520  -10.5330   18.5120 C.3   101  PHE101      0.1771
    125  C         30.0460  -11.3940   17.4590 C.2   101  PHE101      0.2620
    126  O         30.8230  -12.2930   17.7910 O.2   101  PHE101     -0.2715
    127  CB        29.8590   -9.0830   18.4470 C.3   101  PHE101      0.0574
    128  CG        31.3450   -8.9380   18.6310 C.ar  101  PHE101     -0.0200
    129  CD1       32.2100   -9.0830   17.5570 C.ar  101  PHE101     -0.0042
    130  CD2       31.8770   -8.6610   19.8820 C.ar  101  PHE101     -0.0042
    131  CE1       33.5740   -8.9600   17.7270 C.ar  101  PHE101     -0.0003
    132  CE2       33.2390   -8.5350   20.0650 C.ar  101  PHE101     -0.0003
    133  CZ        34.0920   -8.6840   18.9840 C.ar  101  PHE101     -0.0000
    134  N         29.7460  -11.1200   16.1910 N.am  102  SER102     -0.1950
    135  CA        30.3230  -11.8630   15.0720 C.3   102  SER102      0.1924
    136  C         29.9470  -11.1910   13.7570 C.2   102  SER102      0.2314
    137  O         28.8860  -10.5920   13.6610 O.2   102  SER102     -0.2863
    138  CB        29.7980  -13.2990   15.0840 C.3   102  SER102      0.2116
    139  OG        29.8620  -13.8860   13.7940 O.3   102  SER102     -0.2180
    140  N         21.5890    9.0580   25.9850 N.3   128  LEU128     -0.1231
    141  CA        22.2080    8.3670   27.1120 C.3   128  LEU128      0.1693
    142  C         23.6830    8.7760   27.1570 C.2   128  LEU128      0.2592
    143  O         24.1900    9.2150   28.1960 O.2   128  LEU128     -0.2718
    144  CB        22.0920    6.8530   26.9270 C.3   128  LEU128      0.0284
    145  CG        21.9580    5.9480   28.1590 C.3   128  LEU128      0.0019
    146  CD1       22.4410    4.5540   27.7950 C.3   128  LEU128      0.0001
    147  CD2       22.7780    6.4760   29.3290 C.3   128  LEU128      0.0001
    148  N         24.3700    8.6080   26.0290 N.am  129  PHE129     -0.1976
    149  CA        25.7680    8.9930   25.9030 C.3   129  PHE129      0.1639
    150  C         26.1220    9.0980   24.4250 C.2   129  PHE129      0.2290
    151  O         25.4120    8.5780   23.5670 O.2   129  PHE129     -0.2864
    152  CB        26.6910    7.9890   26.6130 C.3   129  PHE129      0.0560
    153  CG        26.6900    6.6140   26.0090 C.ar  129  PHE129     -0.0200
    154  CD1       27.2820    6.3730   24.7650 C.ar  129  PHE129     -0.0042
    155  CD2       26.1020    5.5570   26.6810 C.ar  129  PHE129     -0.0042
    156  CE1       27.2740    5.0970   24.2000 C.ar  129  PHE129     -0.0003
    157  CE2       26.0910    4.2840   26.1290 C.ar  129  PHE129     -0.0003
    158  CZ        26.6810    4.0520   24.8830 C.ar  129  PHE129     -0.0000
@<TRIPOS>BOND
     1   137   136    2
     2   136   135    1
     3   139   138    1
     4   135   138    1
     5   135   134    1
     6   134   125   am
     7    56    55    2
     8    55    54    1
     9   125   126    2
    10   125   124    1
    11   129   131   ar
    12   129   128   ar
    13   131   133   ar
    14    57    54    1
    15    57    58    1
    16   127   124    1
    17   127   128    1
    18   124   123    1
    19    54    53    1
    20   128   130   ar
    21   133   132   ar
    22    59    58   ar
    23    59    61   ar
    24    71    69    1
    25    58    60   ar
    26   123   119   am
    27   130   132   ar
    28    64    65    1
    29   120   119    2
    30    61    63   ar
    31   119   118    1
    32    69    68    1
    33    60    62   ar
    34    65    68    1
    35    65    66    1
    36    83    82    1
    37    48    47    2
    38    68    70    1
    39    66    67    2
    40    63    62   ar
    41   121   118    1
    42   121   122    1
    43   118   117    1
    44    82    80   ar
    45    82    81   ar
    46    80    78   ar
    47    47    46    1
    48    16    14    1
    49   115   113    1
    50   117   111   am
    51    81    79   ar
    52    13    14    1
    53    13    10    1
    54    78    77   ar
    55   151   150    2
    56   112   111    2
    57    14    15    1
    58    52    50    1
    59    46    45    1
    60    46    49    1
    61   111   110    1
    62     9    10    1
    63    10    11    1
    64   156   154   ar
    65   156   158   ar
    66   113   110    1
    67   113   114    1
    68    79    77   ar
    69    49    50    1
    70   150   149    1
    71    77    76    1
    72   154   153   ar
    73    50    51    1
    74   110   109    1
    75   158   157   ar
    76    72    73    1
    77   116   114    1
    78    11    12    2
    79    94    92   ar
    80    94    93   ar
    81    76    73    1
    82   149   148    1
    83   149   152    1
    84    24    22    1
    85   140   141    1
    86   153   152    1
    87   153   155   ar
    88   148   142   am
    89   157   155   ar
    90    73    74    1
    91    92    90   ar
    92    93    91   ar
    93    22    21    1
    94   144   141    1
    95   144   145    1
    96   141   142    1
    97   142   143    2
    98    40    39    2
    99     8     6    1
   100    74    75    2
   101    90    89   ar
   102    91    89   ar
   103   146   145    1
   104   145   147    1
   105    39    38    1
   106    21    23    1
   107    21    18    1
   108    89    88    1
   109     6     5    1
   110    17    18    1
   111     7     5    1
   112    38    41    1
   113    38    37    1
   114     5     2    1
   115    18    19    1
   116    41    42    1
   117    44    42    1
   118   108   106    1
   119   107   106    1
   120    88    85    1
   121   105   104    2
   122    84    85    1
   123    43    42    1
   124    86    85    1
   125    86    87    2
   126    36    35    1
   127   104   103    1
   128     4     3    2
   129    35    34   ar
   130    35    33   ar
   131     3     2    1
   132    34    32   ar
   133   106   103    1
   134     2     1    1
   135    19    20    2
   136    33    31   ar
   137    32    30   ar
   138   103   102    1
   139    31    30   ar
   140    30    29    1
   141    29    26    1
   142   100    99    1
   143    26    25    1
   144    26    27    1
   145    99   101    1
   146    99    96    1
   147    98    97    2
   148    97    96    1
   149    27    28    2
   150    96    95    1
