@<TRIPOS>MOLECULE
tmp/3fxiC01.pdb
 88 83 0 0 0
SMALL
GASTEIGER

@<TRIPOS>ATOM
      1  N         28.6660    7.1520   10.4540 N.3    62  ILE62      -0.1245
      2  CA        29.9400    6.6260    9.9660 C.3    62  ILE62       0.1561
      3  C         30.5760    7.5690    8.9550 C.2    62  ILE62       0.2260
      4  O         29.8890    8.3360    8.2760 O.2    62  ILE62      -0.2867
      5  CB        29.7760    5.2130    9.3070 C.3    62  ILE62       0.0252
      6  CG1       28.7630    4.3660   10.0750 C.3    62  ILE62       0.0019
      7  CG2       31.1010    4.4770    9.3150 C.3    62  ILE62       0.0019
      8  CD1       27.3360    4.7220    9.7410 C.3    62  ILE62       0.0001
      9  N         34.0120    7.5010    6.1210 N.3    64  VAL64      -0.1245
     10  CA        35.1160    6.8320    5.4280 C.3    64  VAL64       0.1561
     11  C         36.0150    7.8880    4.7760 C.2    64  VAL64       0.2260
     12  O         35.6050    8.5250    3.8030 O.2    64  VAL64      -0.2867
     13  CB        34.5980    5.9140    4.2960 C.3    64  VAL64       0.0252
     14  CG1       35.6770    4.9290    3.8930 C.3    64  VAL64       0.0019
     15  CG2       33.3340    5.2070    4.7240 C.3    64  VAL64       0.0019
     16  N         34.4360   10.8740    3.6700 N.3    67  MET67      -0.1245
     17  CA        33.1340   10.5460    3.0930 C.3    67  MET67       0.1570
     18  C         32.0930   10.2320    4.1630 C.2    67  MET67       0.2261
     19  O         32.3970    9.6300    5.1930 O.2    67  MET67      -0.2867
     20  CB        33.2640    9.3600    2.1360 C.3    67  MET67       0.0387
     21  CG        33.3150    9.7380    0.6660 C.3    67  MET67       0.0595
     22  SD        34.7200    8.9820   -0.1500 S.3    67  MET67      -0.1393
     23  CE        34.3100    7.2570   -0.0710 C.3    67  MET67       0.0692
     24  N         28.3520    8.4970    5.2210 N.3    69  LEU69      -0.1245
     25  CA        27.3350    7.5000    4.9230 C.3    69  LEU69       0.1561
     26  C         26.0740    7.9610    5.6180 C.2    69  LEU69       0.2260
     27  O         26.1430    8.6700    6.6170 O.2    69  LEU69      -0.2867
     28  CB        27.7480    6.1500    5.4970 C.3    69  LEU69       0.0270
     29  CG        28.9040    5.4170    4.8300 C.3    69  LEU69       0.0019
     30  CD1       29.7100    4.6420    5.8550 C.3    69  LEU69       0.0001
     31  CD2       28.3400    4.5080    3.7630 C.3    69  LEU69       0.0001
     32  N         22.3570    5.6610   10.4950 N.3    72  ARG72      -0.1245
     33  CA        21.9660    4.2740   10.6750 C.3    72  ARG72       0.1563
     34  C         21.2970    4.1740   12.0210 C.2    72  ARG72       0.2260
     35  O         21.8330    4.6640   13.0140 O.2    72  ARG72      -0.2867
     36  CB        23.1760    3.3390   10.6810 C.3    72  ARG72       0.0307
     37  CG        23.8310    3.1300    9.3430 C.3    72  ARG72       0.0489
     38  CD        24.9070    2.0630    9.4340 C.3    72  ARG72       0.2205
     39  NE        24.3410    0.7250    9.6010 N.pl3  72  ARG72      -0.0865
     40  CZ        23.9360   -0.0510    8.6000 C.cat  72  ARG72       0.5346
     41  NH1       24.0290    0.3690    7.3440 N.pl3  72  ARG72       0.1354
     42  NH2       23.4550   -1.2570    8.8570 N.pl3  72  ARG72       0.1354
     43  N         32.3310   -8.2840    4.3080 N.3   106  ILE106     -0.1231
     44  CA        32.5630   -7.0060    3.6390 C.3   106  ILE106      0.1692
     45  C         34.0060   -6.5290    3.6170 C.2   106  ILE106      0.2592
     46  O         34.7250   -6.6130    4.6090 O.2   106  ILE106     -0.2718
     47  CB        31.6580   -5.8920    4.2170 C.3   106  ILE106      0.0266
     48  CG1       30.2070   -6.1630    3.8100 C.3   106  ILE106      0.0019
     49  CG2       32.0800   -4.5250    3.6860 C.3   106  ILE106      0.0020
     50  CD1       29.1960   -5.0940    4.2420 C.3   106  ILE106      0.0001
     51  N         34.4170   -6.0500    2.4470 N.am  107  LYS107     -0.1966
     52  CA        35.7570   -5.5270    2.2180 C.3   107  LYS107      0.1728
     53  C         35.6930   -4.0220    2.4310 C.2   107  LYS107      0.2616
     54  O         34.8020   -3.3550    1.8960 O.2   107  LYS107     -0.2715
     55  CB        36.1840   -5.8060    0.7780 C.3   107  LYS107      0.0311
     56  CG        37.5250   -5.2120    0.3570 C.3   107  LYS107      0.0038
     57  CD        37.4520   -4.7260   -1.1010 C.3   107  LYS107      0.0206
     58  CE        38.8260   -4.4360   -1.7230 C.3   107  LYS107      0.1093
     59  NZ        39.6220   -5.6670   -2.0130 N.3   107  LYS107     -0.1314
     60  N         36.6270   -3.4940    3.2230 N.am  108  PHE108     -0.1960
     61  CA        36.6820   -2.0590    3.4940 C.3   108  PHE108      0.1771
     62  C         37.9210   -1.4250    2.8730 C.2   108  PHE108      0.2620
     63  O         38.9540   -2.0780    2.7340 O.2   108  PHE108     -0.2715
     64  CB        36.7210   -1.7960    4.9960 C.3   108  PHE108      0.0574
     65  CG        35.6410   -2.4720    5.7590 C.ar  108  PHE108     -0.0200
     66  CD1       35.7510   -3.8110    6.0960 C.ar  108  PHE108     -0.0042
     67  CD2       34.5000   -1.7730    6.1270 C.ar  108  PHE108     -0.0042
     68  CE1       34.7370   -4.4520    6.8000 C.ar  108  PHE108     -0.0003
     69  CE2       33.4780   -2.3970    6.8290 C.ar  108  PHE108     -0.0003
     70  CZ        33.5950   -3.7440    7.1660 C.ar  108  PHE108     -0.0000
     71  N         37.8210   -0.1500    2.5110 N.am  109  SER109     -0.1950
     72  CA        38.9680    0.5510    1.9440 C.3   109  SER109      0.1924
     73  C         39.9990    0.6610    3.0660 C.2   109  SER109      0.2314
     74  O         39.7360    0.2970    4.2130 O.2   109  SER109     -0.2863
     75  CB        38.5940    1.9750    1.4900 C.3   109  SER109      0.2116
     76  OG        37.4420    2.0050    0.6630 O.3   109  SER109     -0.2180
     77  N         38.5250    5.4780    9.7310 N.3   113  TYR113     -0.1241
     78  CA        37.0840    5.4160    9.9110 C.3   113  TYR113      0.1605
     79  C         36.7200    6.0420   11.2370 C.2   113  TYR113      0.2264
     80  O         37.3930    5.8100   12.2510 O.2   113  TYR113     -0.2867
     81  CB        36.5900    3.9690    9.9060 C.3   113  TYR113      0.0534
     82  CG        36.6620    3.2910    8.5620 C.ar  113  TYR113     -0.0201
     83  CD1       37.7710    2.5270    8.2020 C.ar  113  TYR113     -0.0009
     84  CD2       35.6310    3.4410    7.6310 C.ar  113  TYR113     -0.0009
     85  CE1       37.8560    1.9350    6.9550 C.ar  113  TYR113      0.0417
     86  CE2       35.7070    2.8540    6.3820 C.ar  113  TYR113      0.0417
     87  CZ        36.8230    2.1060    6.0490 C.ar  113  TYR113      0.1957
     88  OH        36.9280    1.5540    4.7950 O.3   113  TYR113     -0.2866
@<TRIPOS>BOND
     1    59    58    1
     2    58    57    1
     3    57    56    1
     4    22    23    1
     5    22    21    1
     6    56    55    1
     7    76    75    1
     8    21    20    1
     9    55    52    1
    10    75    72    1
    11    54    53    2
    12    72    71    1
    13    72    73    1
    14    20    17    1
    15    52    53    1
    16    52    51    1
    17    53    60   am
    18    51    45   am
    19    71    62   am
    20    63    62    2
    21    62    61    1
    22    73    74    2
    23    17    16    1
    24    17    18    1
    25    60    61    1
    26    61    64    1
    27    45    44    1
    28    45    46    2
    29    44    47    1
    30    44    43    1
    31    49    47    1
    32    31    29    1
    33    12    11    2
    34    48    47    1
    35    48    50    1
    36    14    13    1
    37    18    19    2
    38    13    15    1
    39    13    10    1
    40    11    10    1
    41    88    87    1
    42    29    28    1
    43    29    30    1
    44    25    24    1
    45    25    28    1
    46    25    26    1
    47    64    65    1
    48    10     9    1
    49    26    27    2
    50    65    66   ar
    51    65    67   ar
    52    87    86   ar
    53    87    85   ar
    54    66    68   ar
    55    67    69   ar
    56    86    84   ar
    57    68    70   ar
    58    69    70   ar
    59    85    83   ar
    60    41    40    1
    61    84    82   ar
    62    83    82   ar
    63     4     3    2
    64    82    81    1
    65    40    42    1
    66    40    39    2
    67     3     2    1
    68     5     7    1
    69     5     2    1
    70     5     6    1
    71    37    38    1
    72    37    36    1
    73    38    39    1
    74    77    78    1
    75     8     6    1
    76    81    78    1
    77    78    79    1
    78     2     1    1
    79    32    33    1
    80    33    36    1
    81    33    34    1
    82    79    80    2
    83    34    35    2
