@<TRIPOS>MOLECULE
tmp/3fxmA00.pdb
 79 73 0 0 0
SMALL
GASTEIGER

@<TRIPOS>ATOM
      1  N        -33.3330   34.8430   42.8010 N.3    32  ARG32      -0.1245
      2  CA       -32.2030   35.2630   43.6050 C.3    32  ARG32       0.1563
      3  C        -31.5930   36.5240   43.0250 C.2    32  ARG32       0.2260
      4  O        -31.6040   36.7350   41.8030 O.2    32  ARG32      -0.2867
      5  CB       -31.1320   34.1700   43.6950 C.3    32  ARG32       0.0307
      6  CG       -31.5970   32.8100   44.1740 C.3    32  ARG32       0.0489
      7  CD       -32.0790   32.7690   45.6170 C.3    32  ARG32       0.2205
      8  NE       -31.9610   31.4070   46.1430 N.pl3  32  ARG32      -0.0865
      9  CZ       -30.8940   30.9590   46.8060 C.cat  32  ARG32       0.5346
     10  NH1      -29.8700   31.7630   47.0520 N.pl3  32  ARG32       0.1354
     11  NH2      -30.8460   29.7090   47.2380 N.pl3  32  ARG32       0.1354
     12  N        -25.1000   32.7750   40.4840 N.3    36  GLU36      -0.1245
     13  CA       -23.8280   32.1960   40.9260 C.3    36  GLU36       0.1567
     14  C        -23.5870   30.7550   40.4530 C.2    36  GLU36       0.2260
     15  O        -22.6060   30.1200   40.8550 O.2    36  GLU36      -0.2867
     16  CB       -23.7060   32.2900   42.4370 C.3    36  GLU36       0.0388
     17  CG       -24.0250   33.6740   42.9960 C.3    36  GLU36       0.1160
     18  CD       -23.9150   33.7190   44.5090 C.2    36  GLU36       0.3649
     19  OE1      -24.3360   32.7390   45.1810 O.co2  36  GLU36      -0.2457
     20  OE2      -23.4190   34.7490   45.0230 O.co2  36  GLU36      -0.2457
     21  N        -22.4860   24.9480   41.1110 N.3    59  ASP59      -0.1225
     22  CA       -23.3970   25.7570   41.9260 C.3    59  ASP59       0.1805
     23  C        -22.5830   26.5310   42.9610 C.2    59  ASP59       0.2598
     24  O        -22.1460   25.9650   43.9750 O.2    59  ASP59      -0.2718
     25  CB       -24.4690   24.8750   42.6000 C.3    59  ASP59       0.1424
     26  CG       -25.4840   25.6800   43.3960 C.2    59  ASP59       0.3668
     27  OD1      -25.3940   26.9220   43.3760 O.co2  59  ASP59      -0.2456
     28  OD2      -26.3700   25.0770   44.0430 O.co2  59  ASP59      -0.2456
     29  N        -22.3830   27.8210   42.6980 N.am   60  GLY60      -0.1942
     30  CA       -21.5780   28.6640   43.5650 C.3    60  GLY60       0.2014
     31  C        -22.3340   29.1960   44.7660 C.2    60  GLY60       0.2639
     32  O        -23.5160   29.5100   44.6730 O.2    60  GLY60      -0.2714
     33  N        -21.6640   29.2420   45.9110 N.am   61  HIS61      -0.1959
     34  CA       -22.1640   29.8820   47.1250 C.3    61  HIS61       0.1787
     35  C        -21.2300   31.0050   47.6120 C.2    61  HIS61       0.2620
     36  O        -20.0160   30.8990   47.4190 O.2    61  HIS61      -0.2715
     37  CB       -22.5080   28.8730   48.2530 C.3    61  HIS61       0.0785
     38  CG       -21.5770   27.6990   48.3930 C.ar   61  HIS61       0.0821
     39  ND1      -20.6240   27.6280   49.3850 N.ar   61  HIS61      -0.2267
     40  CD2      -21.5270   26.5160   47.7380 C.ar   61  HIS61       0.1154
     41  CE1      -20.0100   26.4600   49.3170 C.ar   61  HIS61       0.1986
     42  NE2      -20.5350   25.7700   48.3230 N.ar   61  HIS61      -0.2212
     43  N        -21.8170   32.0290   48.2450 N.am   62  ALA62      -0.1977
     44  CA       -21.1540   33.2500   48.6980 C.3    62  ALA62       0.1597
     45  C        -20.3770   33.9380   47.5630 C.2    62  ALA62       0.2287
     46  O        -19.2210   34.3420   47.7490 O.2    62  ALA62      -0.2864
     47  CB       -20.2660   32.9820   49.9380 C.3    62  ALA62       0.0319
     48  N        -26.6810   21.4390   58.7930 N.3   185  ARG185     -0.1245
     49  CA       -25.5990   22.3750   58.4960 C.3   185  ARG185      0.1563
     50  C        -24.3140   22.1890   59.3000 C.2   185  ARG185      0.2260
     51  O        -24.3530   22.0250   60.5270 O.2   185  ARG185     -0.2867
     52  CB       -26.1080   23.8120   58.6110 C.3   185  ARG185      0.0307
     53  CG       -26.7780   24.2670   57.3450 C.3   185  ARG185      0.0489
     54  CD       -27.8180   25.3430   57.5360 C.3   185  ARG185      0.2205
     55  NE       -28.7140   25.2790   56.3840 N.pl3 185  ARG185     -0.0865
     56  CZ       -28.6300   26.0600   55.3070 C.cat 185  ARG185      0.5346
     57  NH1      -27.7120   27.0120   55.2400 N.pl3 185  ARG185      0.1354
     58  NH2      -29.4730   25.8960   54.2920 N.pl3 185  ARG185      0.1354
     59  N        -24.7110   24.3470   54.2370 N.3   191  ALA191     -0.1245
     60  CA       -25.6330   23.2970   53.8280 C.3   191  ALA191      0.1562
     61  C        -24.9900   22.0960   53.1120 C.2   191  ALA191      0.2260
     62  O        -25.6410   21.0500   52.9570 O.2   191  ALA191     -0.2867
     63  CB       -26.7180   23.9050   52.9510 C.3   191  ALA191      0.0290
     64  N        -28.9320   22.0050   42.5390 N.3   238  ASP238     -0.1239
     65  CA       -30.0650   21.7940   43.4540 C.3   238  ASP238      0.1674
     66  C        -31.2800   22.7120   43.2160 C.2   238  ASP238      0.2266
     67  O        -32.3620   22.4870   43.7650 O.2   238  ASP238     -0.2867
     68  CB       -29.6190   21.9230   44.9070 C.3   238  ASP238      0.1410
     69  CG       -29.1480   23.3260   45.2590 C.2   238  ASP238      0.3668
     70  OD1      -28.8720   24.1190   44.3370 O.co2 238  ASP238     -0.2456
     71  OD2      -29.0430   23.6380   46.4600 O.co2 238  ASP238     -0.2456
     72  N        -34.4300   29.3410   43.5830 N.3   281  ASP281     -0.1239
     73  CA       -32.9660   29.3490   43.4970 C.3   281  ASP281      0.1674
     74  C        -32.5440   29.6070   42.0560 C.2   281  ASP281      0.2266
     75  O        -33.3830   29.6000   41.1700 O.2   281  ASP281     -0.2867
     76  CB       -32.3950   28.0270   44.0310 C.3   281  ASP281      0.1410
     77  CG       -30.8850   28.0870   44.2890 C.2   281  ASP281      0.3668
     78  OD1      -30.2690   29.1530   44.0310 O.co2 281  ASP281     -0.2456
     79  OD2      -30.3020   27.0640   44.7440 O.co2 281  ASP281     -0.2456
@<TRIPOS>BOND
     1    14    15    2
     2    14    13    1
     3    12    13    1
     4    13    16    1
     5    21    22    1
     6    75    74    2
     7     4     3    2
     8    22    25    1
     9    22    23    1
    10    74    73    1
    11    16    17    1
    12    64    65    1
    13    25    26    1
    14    29    23   am
    15    29    30    1
    16     1     2    1
    17    23    24    2
    18    17    18    1
    19     3     2    1
    20    66    65    1
    21    66    67    2
    22    27    26   ar
    23    26    28   ar
    24    65    68    1
    25    73    72    1
    26    73    76    1
    27    30    31    1
    28     2     5    1
    29     5     6    1
    30    76    77    1
    31    78    77   ar
    32     6     7    1
    33    77    79   ar
    34    70    69   ar
    35    18    20   ar
    36    18    19   ar
    37    32    31    2
    38    31    33   am
    39    68    69    1
    40    69    71   ar
    41     7     8    1
    42    33    34    1
    43     8     9    2
    44     9    10    1
    45     9    11    1
    46    34    35    1
    47    34    37    1
    48    36    35    2
    49    45    46    2
    50    45    44    1
    51    35    43   am
    52    40    42   ar
    53    40    38   ar
    54    43    44    1
    55    37    38    1
    56    42    41   ar
    57    38    39   ar
    58    44    47    1
    59    41    39   ar
    60    63    60    1
    61    62    61    2
    62    61    60    1
    63    60    59    1
    64    58    56    1
    65    57    56    1
    66    56    55    2
    67    55    54    1
    68    53    54    1
    69    53    52    1
    70    49    52    1
    71    49    48    1
    72    49    50    1
    73    50    51    2
