@<TRIPOS>MOLECULE
tmp/3fxpA00.pdb
 190 186 0 0 0
SMALL
GASTEIGER

@<TRIPOS>ATOM
      1  N        -13.9890   46.9420   -1.7770 N.3   111  ASN111     -0.1225
      2  CA       -12.8380   46.0790   -2.0360 C.3   111  ASN111      0.1785
      3  C        -12.6230   45.0460   -0.9480 C.2   111  ASN111      0.2597
      4  O        -11.5370   44.9580   -0.3640 O.2   111  ASN111     -0.2718
      5  CB       -11.5460   46.9090   -2.1720 C.3   111  ASN111      0.1169
      6  CG       -11.5300   47.6970   -3.4650 C.2   111  ASN111      0.2627
      7  OD1      -11.8380   47.1440   -4.5290 O.2   111  ASN111     -0.2716
      8  ND2      -11.1860   48.9770   -3.3790 N.am  111  ASN111     -0.0877
      9  N        -13.6320   44.2310   -0.6450 N.am  112  ASN112     -0.1960
     10  CA       -13.3310   43.2380    0.3980 C.3   112  ASN112      0.1819
     11  C        -14.4530   42.2150    0.5190 C.2   112  ASN112      0.2621
     12  O        -15.4290   42.2480   -0.2330 O.2   112  ASN112     -0.2715
     13  CB       -13.0820   43.9320    1.7330 C.3   112  ASN112      0.1195
     14  CG       -11.9320   43.3010    2.5000 C.2   112  ASN112      0.2630
     15  OD1      -11.7490   42.0850    2.4670 O.2   112  ASN112     -0.2716
     16  ND2      -11.1500   44.1150    3.1940 N.am  112  ASN112     -0.0877
     17  N        -14.2890   41.3120    1.4710 N.am  113  ALA113     -0.1963
     18  CA       -15.2620   40.2740    1.7800 C.3   113  ALA113      0.1728
     19  C        -15.0740   39.8600    3.2360 C.2   113  ALA113      0.2616
     20  O        -14.0090   40.1270    3.8000 O.2   113  ALA113     -0.2715
     21  CB       -15.1080   39.0610    0.8810 C.3   113  ALA113      0.0334
     22  N        -16.0820   39.2220    3.8130 N.am  114  PHE114     -0.1960
     23  CA       -15.9580   38.8710    5.2190 C.3   114  PHE114      0.1771
     24  C        -17.0910   37.9400    5.6380 C.2   114  PHE114      0.2619
     25  O        -18.0460   37.8000    4.8800 O.2   114  PHE114     -0.2715
     26  CB       -15.9890   40.1150    6.1010 C.3   114  PHE114      0.0574
     27  CG       -17.1590   41.0620    5.9230 C.ar  114  PHE114     -0.0200
     28  CD1      -17.1450   42.0440    4.9500 C.ar  114  PHE114     -0.0042
     29  CD2      -18.2770   40.9800    6.7400 C.ar  114  PHE114     -0.0042
     30  CE1      -18.2020   42.9220    4.7950 C.ar  114  PHE114     -0.0003
     31  CE2      -19.3460   41.8490    6.5950 C.ar  114  PHE114     -0.0003
     32  CZ       -19.3150   42.8330    5.6170 C.ar  114  PHE114     -0.0000
     33  N        -16.8960   37.3970    6.8200 N.am  115  TRP115     -0.1974
     34  CA       -17.8480   36.6160    7.5810 C.3   115  TRP115      0.1640
     35  C        -18.3150   37.4840    8.7380 C.2   115  TRP115      0.2290
     36  O        -17.4610   37.9190    9.5050 O.2   115  TRP115     -0.2864
     37  CB       -17.2240   35.3200    8.1010 C.3   115  TRP115      0.0576
     38  CG       -18.0920   34.5870    9.0810 C.ar  115  TRP115      0.0006
     39  CD1      -18.0420   34.6640   10.4450 C.ar  115  TRP115      0.0946
     40  CD2      -19.1430   33.6630    8.7650 C.ar  115  TRP115      0.0152
     41  NE1      -18.9990   33.8410   10.9850 N.ar  115  TRP115     -0.2442
     42  CE2      -19.6880   33.2140    9.9810 C.ar  115  TRP115      0.0810
     43  CE3      -19.6640   33.1710    7.5670 C.ar  115  TRP115      0.0012
     44  CZ2      -20.7400   32.2970   10.0540 C.ar  115  TRP115      0.0191
     45  CZ3      -20.7080   32.2640    7.6420 C.ar  115  TRP115      0.0001
     46  CH2      -21.2390   31.8310    8.8630 C.ar  115  TRP115      0.0015
     47  N         -8.7600   47.9340   -8.3110 N.3   129  THR129     -0.1203
     48  CA        -8.1540   47.1970   -7.2180 C.3   129  THR129      0.1994
     49  C         -8.6550   45.7560   -7.1750 C.2   129  THR129      0.2617
     50  O         -7.9000   44.8020   -7.0170 O.2   129  THR129     -0.2717
     51  CB        -8.4800   47.8200   -5.8450 C.3   129  THR129      0.1784
     52  OG1       -8.4890   49.2530   -5.9410 O.3   129  THR129     -0.2211
     53  CG2       -7.4250   47.3910   -4.8270 C.3   129  THR129      0.0376
     54  N         -9.9650   45.5800   -7.3030 N.am  130  PHE130     -0.1975
     55  CA       -10.5810   44.2700   -7.2050 C.3   130  PHE130      0.1639
     56  C        -11.7240   44.1680   -8.2190 C.2   130  PHE130      0.2290
     57  O        -12.2600   45.2110   -8.5880 O.2   130  PHE130     -0.2864
     58  CB       -11.1510   44.0090   -5.8140 C.3   130  PHE130      0.0560
     59  CG       -10.2240   43.5260   -4.7190 C.ar  130  PHE130     -0.0200
     60  CD1       -9.8670   42.1910   -4.6170 C.ar  130  PHE130     -0.0042
     61  CD2       -9.7080   44.4090   -3.7850 C.ar  130  PHE130     -0.0042
     62  CE1       -9.0210   41.7480   -3.6220 C.ar  130  PHE130     -0.0003
     63  CE2       -8.8590   43.9800   -2.7860 C.ar  130  PHE130     -0.0003
     64  CZ        -8.5140   42.6460   -2.6990 C.ar  130  PHE130     -0.0000
     65  N        -15.3730   39.7600   -5.4100 N.3   133  LEU133     -0.1245
     66  CA       -14.4260   38.9450   -4.6550 C.3   133  LEU133      0.1561
     67  C        -14.8110   37.4780   -4.5820 C.2   133  LEU133      0.2260
     68  O        -13.9700   36.6250   -4.2930 O.2   133  LEU133     -0.2867
     69  CB       -14.2630   39.5570   -3.2460 C.3   133  LEU133      0.0270
     70  CG       -13.1510   40.6250   -3.2140 C.3   133  LEU133      0.0019
     71  CD1      -13.7110   41.9960   -3.5400 C.3   133  LEU133      0.0001
     72  CD2      -12.4240   40.6370   -1.8790 C.3   133  LEU133      0.0001
     73  N        -10.7660   32.9990   -1.6520 N.3   139  VAL139     -0.1245
     74  CA       -11.5030   33.9690   -0.8460 C.3   139  VAL139      0.1561
     75  C        -12.7550   33.3690   -0.2200 C.2   139  VAL139      0.2260
     76  O        -13.0180   33.5050    0.9690 O.2   139  VAL139     -0.2867
     77  CB       -11.9270   35.1660   -1.7160 C.3   139  VAL139      0.0252
     78  CG1      -12.8680   36.0750   -0.9380 C.3   139  VAL139      0.0019
     79  CG2      -10.6820   35.9010   -2.1840 C.3   139  VAL139      0.0019
     80  N        -11.7220   30.9510    2.3740 N.3   142  HIS142     -0.1226
     81  CA       -11.1880   31.7070    3.5080 C.3   142  HIS142      0.1752
     82  C        -12.3540   32.1510    4.3800 C.2   142  HIS142      0.2595
     83  O        -12.3830   32.0490    5.6000 O.2   142  HIS142     -0.2718
     84  CB       -10.3940   32.9310    3.0680 C.3   142  HIS142      0.0759
     85  CG        -9.8680   33.8780    4.1110 C.ar  142  HIS142      0.0818
     86  ND1       -8.5160   33.9820    4.3840 N.ar  142  HIS142     -0.2268
     87  CD2      -10.4520   34.7810    4.9370 C.ar  142  HIS142      0.1154
     88  CE1       -8.3070   34.8830    5.3290 C.ar  142  HIS142      0.1986
     89  NE2       -9.4750   35.3890    5.6870 N.ar  142  HIS142     -0.2212
     90  N        -13.3710   32.7040    3.7100 N.am  143  GLU143     -0.1979
     91  CA       -14.3900   33.3100    4.5720 C.3   143  GLU143      0.1602
     92  C        -15.1910   32.2250    5.2670 C.2   143  GLU143      0.2287
     93  O        -15.5070   32.3670    6.4470 O.2   143  GLU143     -0.2864
     94  CB       -15.2870   34.2470    3.7670 C.3   143  GLU143      0.0415
     95  CG       -14.5400   35.3710    3.0750 C.3   143  GLU143      0.1163
     96  CD       -13.7110   36.2590    3.9680 C.2   143  GLU143      0.3649
     97  OE1      -13.8710   36.2220    5.2020 O.co2 143  GLU143     -0.2457
     98  OE2      -12.8900   37.0250    3.4130 O.co2 143  GLU143     -0.2457
     99  N        -13.5230   30.9490    8.3560 N.3   146  HIS146     -0.1241
    100  CA       -13.6780   31.7550    9.5630 C.3   146  HIS146      0.1621
    101  C        -14.8600   31.2520   10.3930 C.2   146  HIS146      0.2264
    102  O        -14.7770   31.2660   11.6210 O.2   146  HIS146     -0.2867
    103  CB       -13.8920   33.2200    9.2120 C.3   146  HIS146      0.0745
    104  CG       -12.6650   34.0510    9.0060 C.ar  146  HIS146      0.0817
    105  ND1      -11.6580   34.1320    9.9380 N.ar  146  HIS146     -0.2268
    106  CD2      -12.2940   34.8480    7.9640 C.ar  146  HIS146      0.1154
    107  CE1      -10.7100   34.9410    9.4810 C.ar  146  HIS146      0.1986
    108  NE2      -11.0720   35.3860    8.2920 N.ar  146  HIS146     -0.2212
    109  N        -10.1170   37.1530   17.7010 N.3   157  TYR157     -0.1241
    110  CA        -9.5770   37.8590   16.5460 C.3   157  TYR157      0.1605
    111  C         -8.6610   39.0050   16.9480 C.2   157  TYR157      0.2264
    112  O         -8.9550   40.1580   16.6390 O.2   157  TYR157     -0.2867
    113  CB       -10.7300   38.4010   15.6930 C.3   157  TYR157      0.0534
    114  CG       -10.3670   38.5150   14.2220 C.ar  157  TYR157     -0.0201
    115  CD1       -9.9660   37.3910   13.5150 C.ar  157  TYR157     -0.0009
    116  CD2      -10.4150   39.7260   13.5430 C.ar  157  TYR157     -0.0009
    117  CE1       -9.6250   37.4540   12.1760 C.ar  157  TYR157      0.0417
    118  CE2      -10.0790   39.7950   12.1960 C.ar  157  TYR157      0.0417
    119  CZ        -9.6840   38.6630   11.5140 C.ar  157  TYR157      0.1957
    120  OH        -9.3430   38.7070   10.1750 O.3   157  TYR157     -0.2866
    121  N         -6.4310   33.8390   11.1850 N.3   166  GLU166     -0.1245
    122  CA        -6.2370   34.2410    9.7910 C.3   166  GLU166      0.1567
    123  C         -5.5210   33.1940    8.9460 C.2   166  GLU166      0.2260
    124  O         -5.9010   32.8560    7.8170 O.2   166  GLU166     -0.2867
    125  CB        -5.4270   35.5500    9.6960 C.3   166  GLU166      0.0388
    126  CG        -6.2580   36.8090    9.5190 C.3   166  GLU166      0.1160
    127  CD        -7.2690   36.7010    8.3910 C.2   166  GLU166      0.3649
    128  OE1       -6.8210   36.5360    7.2320 O.co2 166  GLU166     -0.2457
    129  OE2       -8.4870   36.8020    8.6430 O.co2 166  GLU166     -0.2457
    130  N         -3.0830   34.2450   -2.0760 N.3   188  ILE188     -0.1231
    131  CA        -4.4520   34.5020   -1.6630 C.3   188  ILE188      0.1692
    132  C         -5.0890   35.6480   -2.4500 C.2   188  ILE188      0.2592
    133  O         -4.5600   36.7590   -2.3770 O.2   188  ILE188     -0.2718
    134  CB        -4.5250   34.8710   -0.1650 C.3   188  ILE188      0.0266
    135  CG1       -3.7310   33.9380    0.7560 C.3   188  ILE188      0.0019
    136  CG2       -5.9770   34.9900    0.2770 C.3   188  ILE188      0.0020
    137  CD1       -4.2520   32.5180    0.7900 C.3   188  ILE188      0.0001
    138  N         -6.1790   35.3610   -3.1500 N.am  189  GLY189     -0.1957
    139  CA        -7.0130   36.3400   -3.8010 C.3   189  GLY189      0.1869
    140  C         -6.5740   36.7290   -5.1990 C.2   189  GLY189      0.2309
    141  O         -7.1290   37.6720   -5.7670 O.2   189  GLY189     -0.2863
    142  N         -7.8510   40.0350   -7.6240 N.3   193  TYR193     -0.1241
    143  CA        -7.0750   41.2390   -7.3570 C.3   193  TYR193      0.1605
    144  C         -6.4780   41.8600   -8.6140 C.2   193  TYR193      0.2264
    145  O         -5.9400   41.1290   -9.4480 O.2   193  TYR193     -0.2867
    146  CB        -5.9670   40.8450   -6.3790 C.3   193  TYR193      0.0534
    147  CG        -5.1750   41.9760   -5.7800 C.ar  193  TYR193     -0.0201
    148  CD1       -5.7750   43.0260   -5.0970 C.ar  193  TYR193     -0.0009
    149  CD2       -3.7890   41.9710   -5.9130 C.ar  193  TYR193     -0.0009
    150  CE1       -5.0040   44.0460   -4.5630 C.ar  193  TYR193      0.0417
    151  CE2       -3.0180   42.9830   -5.3800 C.ar  193  TYR193      0.0417
    152  CZ        -3.6330   44.0170   -4.7070 C.ar  193  TYR193      0.1957
    153  OH        -2.8410   45.0120   -4.1850 O.3   193  TYR193     -0.2866
    154  N         -2.9040   39.3310   -2.5780 N.3   202  LEU202     -0.1231
    155  CA        -2.9390   40.0950   -1.3310 C.3   202  LEU202      0.1693
    156  C         -1.8900   39.5760   -0.3490 C.2   202  LEU202      0.2591
    157  O         -1.3000   40.3190    0.4370 O.2   202  LEU202     -0.2718
    158  CB        -4.3240   40.0430   -0.6770 C.3   202  LEU202      0.0284
    159  CG        -5.4260   40.9610   -1.1970 C.3   202  LEU202      0.0019
    160  CD1       -4.8920   42.3700   -1.4200 C.3   202  LEU202      0.0001
    161  CD2       -6.0380   40.4090   -2.4740 C.3   202  LEU202      0.0001
    162  N         -1.6620   38.2690   -0.3770 N.am  203  ARG203     -0.1980
    163  CA        -0.7610   37.6370    0.5700 C.3   203  ARG203      0.1597
    164  C         -0.0750   36.4420   -0.0750 C.2   203  ARG203      0.2287
    165  O         -0.6560   35.8070   -0.9490 O.2   203  ARG203     -0.2864
    166  CB        -1.4820   37.0990    1.8050 C.3   203  ARG203      0.0334
    167  CG        -2.0380   38.1430    2.7570 C.3   203  ARG203      0.0492
    168  CD        -2.5270   37.4640    4.0260 C.3   203  ARG203      0.2205
    169  NE        -3.8280   36.8240    3.8760 N.pl3 203  ARG203     -0.0865
    170  CZ        -4.9820   37.4680    3.7700 C.cat 203  ARG203      0.5346
    171  NH1       -5.0230   38.7950    3.7810 N.pl3 203  ARG203      0.1354
    172  NH2       -6.1220   36.7950    3.6480 N.pl3 203  ARG203      0.1354
    173  N         -5.9490   44.8820   14.3790 N.3   227  ASN227     -0.1240
    174  CA        -6.2180   44.0360   15.5330 C.3   227  ASN227      0.1653
    175  C         -4.9420   43.4300   16.0970 C.2   227  ASN227      0.2266
    176  O         -4.9490   42.2690   16.5290 O.2   227  ASN227     -0.2867
    177  CB        -7.1750   42.8970   15.1450 C.3   227  ASN227      0.1155
    178  CG        -8.5360   43.4170   14.7220 C.2   227  ASN227      0.2627
    179  OD1       -8.9830   43.1480   13.6070 O.2   227  ASN227     -0.2716
    180  ND2       -9.1700   44.1560   15.6250 N.am  227  ASN227     -0.0877
    181  N         -3.5810   40.1090   10.1120 N.3   231  HIS231     -0.1241
    182  CA        -3.3340   39.8170    8.7100 C.3   231  HIS231      0.1621
    183  C         -1.8510   39.9050    8.3660 C.2   231  HIS231      0.2264
    184  O         -1.4940   39.6750    7.2070 O.2   231  HIS231     -0.2867
    185  CB        -4.0730   40.8040    7.7820 C.3   231  HIS231      0.0745
    186  CG        -5.5330   40.4900    7.7680 C.ar  231  HIS231      0.0817
    187  ND1       -6.4570   41.1860    8.5150 N.ar  231  HIS231     -0.2268
    188  CD2       -6.2030   39.5340    7.0990 C.ar  231  HIS231      0.1154
    189  CE1       -7.6540   40.6690    8.2950 C.ar  231  HIS231      0.1986
    190  NE2       -7.5240   39.6670    7.4450 N.ar  231  HIS231     -0.2212
@<TRIPOS>BOND
     1   145   144    2
     2   144   143    1
     3    57    56    2
     4    47    48    1
     5    56    55    1
     6   142   143    1
     7   143   146    1
     8    54    55    1
     9    54    49   am
    10    48    49    1
    11    48    51    1
    12    55    58    1
    13    49    50    2
    14   146   147    1
    15    52    51    1
    16   149   147   ar
    17   149   151   ar
    18    51    53    1
    19    58    59    1
    20   147   148   ar
    21   141   140    2
    22    65    66    1
    23   151   152   ar
    24   140   139    1
    25   148   150   ar
    26    59    60   ar
    27    59    61   ar
    28   152   150   ar
    29   152   153    1
    30    66    67    1
    31    66    69    1
    32    60    62   ar
    33    67    68    2
    34     7     6    2
    35   139   138    1
    36    61    63   ar
    37    62    64   ar
    38    71    70    1
    39     6     8   am
    40     6     5    1
    41    69    70    1
    42    70    72    1
    43   138   132   am
    44    63    64   ar
    45   154   155    1
    46   161   159    1
    47   132   133    2
    48   132   131    1
    49    79    77    1
    50     5     2    1
    51   130   131    1
    52     2     1    1
    53     2     3    1
    54    77    78    1
    55    77    74    1
    56   131   134    1
    57    73    74    1
    58   160   159    1
    59   155   158    1
    60   155   156    1
    61   159   158    1
    62   165   164    2
    63     3     9   am
    64     3     4    2
    65    74    75    1
    66     9    10    1
    67   162   156   am
    68   162   163    1
    69   156   157    2
    70    12    11    2
    71    75    76    2
    72   134   136    1
    73   134   135    1
    74   164   163    1
    75    10    11    1
    76    10    13    1
    77    11    17   am
    78   163   166    1
    79   135   137    1
    80    21    18    1
    81    17    18    1
    82    13    14    1
    83    18    19    1
    84   166   167    1
    85    80    81    1
    86    15    14    2
    87    14    16   am
    88   167   168    1
    89    84    81    1
    90    84    85    1
    91    95    94    1
    92    95    96    1
    93    19    20    2
    94    19    22   am
    95    98    96   ar
    96    81    82    1
    97   172   170    1
    98    90    82   am
    99    90    91    1
   100    94    91    1
   101   170   171    1
   102   170   169    2
   103    22    23    1
   104   169   168    1
   105    96    97   ar
   106    85    86   ar
   107    85    87   ar
   108    82    83    2
   109    86    88   ar
   110    91    92    1
   111    30    28   ar
   112    30    32   ar
   113    25    24    2
   114    87    89   ar
   115    28    27   ar
   116    23    24    1
   117    23    26    1
   118    92    93    2
   119    88    89   ar
   120    32    31   ar
   121    24    33   am
   122    27    26    1
   123    27    29   ar
   124    31    29   ar
   125    33    34    1
   126   188   190   ar
   127   188   186   ar
   128   184   183    2
   129   128   127   ar
   130   190   189   ar
   131    43    45   ar
   132    43    40   ar
   133    34    37    1
   134    34    35    1
   135    45    46   ar
   136   186   185    1
   137   186   187   ar
   138   185   182    1
   139   124   123    2
   140   106   108   ar
   141   106   104   ar
   142    37    38    1
   143   108   107   ar
   144   189   187   ar
   145    99   100    1
   146   183   182    1
   147   127   129   ar
   148   127   126    1
   149   182   181    1
   150    35    36    2
   151    40    38   ar
   152    40    42   ar
   153    46    44   ar
   154   123   122    1
   155   104   103    1
   156   104   105   ar
   157    38    39   ar
   158   103   100    1
   159   107   105   ar
   160   126   125    1
   161   100   101    1
   162   125   122    1
   163   122   121    1
   164    42    44   ar
   165    42    41   ar
   166   120   119    1
   167   101   102    2
   168    39    41   ar
   169   119   117   ar
   170   119   118   ar
   171   117   115   ar
   172   118   116   ar
   173   115   114   ar
   174   116   114   ar
   175   179   178    2
   176   114   113    1
   177   173   174    1
   178   178   177    1
   179   178   180   am
   180   177   174    1
   181   174   175    1
   182   113   110    1
   183   175   176    2
   184   110   111    1
   185   110   109    1
   186   112   111    2
