@<TRIPOS>MOLECULE
tmp/3fxrA00.pdb
 94 92 0 0 0
SMALL
GASTEIGER

@<TRIPOS>ATOM
      1  N         -3.6410   34.9820   69.2750 N.3   149  ALA149     -0.1231
      2  CA        -4.8750   34.3170   68.8770 C.3   149  ALA149      0.1694
      3  C         -4.7900   32.8240   69.1850 C.2   149  ALA149      0.2592
      4  O         -3.7260   32.3180   69.5730 O.2   149  ALA149     -0.2718
      5  CB        -5.1690   34.5500   67.3770 C.3   149  ALA149      0.0304
      6  N         -5.9240   32.1340   69.0220 N.am  150  HIS150     -0.1976
      7  CA        -5.9680   30.6790   69.0420 C.3   150  HIS150      0.1656
      8  C         -6.2800   30.1480   67.6480 C.2   150  HIS150      0.2291
      9  O         -7.3450   30.4190   67.0910 O.2   150  HIS150     -0.2864
     10  CB        -6.9920   30.1880   70.0630 C.3   150  HIS150      0.0771
     11  CG        -6.7580   30.7250   71.4420 C.ar  150  HIS150      0.0820
     12  ND1       -5.8650   30.1500   72.3210 N.ar  150  HIS150     -0.2267
     13  CD2       -7.2770   31.8000   72.0820 C.ar  150  HIS150      0.1154
     14  CE1       -5.8550   30.8430   73.4460 C.ar  150  HIS150      0.1986
     15  NE2       -6.6980   31.8490   73.3250 N.ar  150  HIS150     -0.2212
     16  N         -7.6740   37.2650   74.0620 N.3   198  PRO198     -0.2102
     17  CA        -8.6310   36.9320   73.0020 C.3   198  PRO198      0.1504
     18  C         -9.9700   36.3860   73.4960 C.2   198  PRO198      0.2575
     19  O        -11.0140   36.7610   72.9560 O.2   198  PRO198     -0.2718
     20  CB        -7.8740   35.8940   72.1660 C.3   198  PRO198      0.0282
     21  CG        -6.4490   36.3150   72.2830 C.3   198  PRO198      0.0208
     22  CD        -6.2940   36.8890   73.6820 C.3   198  PRO198      0.0893
     23  N         -9.9590   35.5240   74.5100 N.am  199  ARG199     -0.1980
     24  CA       -11.2190   34.9860   75.0450 C.3   199  ARG199      0.1597
     25  C        -11.8380   35.8180   76.1810 C.2   199  ARG199      0.2287
     26  O        -12.6180   35.2970   76.9710 O.2   199  ARG199     -0.2864
     27  CB       -11.0520   33.5190   75.4740 C.3   199  ARG199      0.0334
     28  CG       -11.0290   32.5230   74.3220 C.3   199  ARG199      0.0492
     29  CD       -10.3100   31.2390   74.7120 C.3   199  ARG199      0.2205
     30  NE       -10.3220   30.2320   73.6410 N.pl3 199  ARG199     -0.0865
     31  CZ        -9.4280   29.2490   73.5260 C.cat 199  ARG199      0.5346
     32  NH1       -8.4400   29.1370   74.4080 N.pl3 199  ARG199      0.1354
     33  NH2       -9.5070   28.3800   72.5250 N.pl3 199  ARG199      0.1354
     34  N         -9.2640   36.0040   80.8310 N.3   203  ALA203     -0.1231
     35  CA        -9.5150   34.6480   80.3240 C.3   203  ALA203      0.1694
     36  C         -8.3590   33.6790   80.5910 C.2   203  ALA203      0.2591
     37  O         -8.5820   32.5040   80.8850 O.2   203  ALA203     -0.2718
     38  CB        -9.8830   34.6650   78.8530 C.3   203  ALA203      0.0304
     39  N         -7.1320   34.1800   80.5260 N.am  204  ILE204     -0.1980
     40  CA        -5.9610   33.3520   80.7950 C.3   204  ILE204      0.1595
     41  C         -5.9710   32.7800   82.2300 C.2   204  ILE204      0.2287
     42  O         -5.9100   31.5470   82.4090 O.2   204  ILE204     -0.2864
     43  CB        -4.6360   34.0790   80.4340 C.3   204  ILE204      0.0276
     44  CG1       -4.5650   34.3260   78.9130 C.3   204  ILE204      0.0022
     45  CG2       -3.4350   33.2620   80.9170 C.3   204  ILE204      0.0022
     46  CD1       -3.2630   35.0080   78.3800 C.3   204  ILE204      0.0001
     47  N         -9.1430   30.4340   82.9430 N.3   207  ASN207     -0.1240
     48  CA        -8.9110   29.1200   82.3380 C.3   207  ASN207      0.1653
     49  C         -7.7890   28.3060   82.9860 C.2   207  ASN207      0.2266
     50  O         -7.8210   27.0750   82.9690 O.2   207  ASN207     -0.2867
     51  CB        -8.7010   29.2440   80.8120 C.3   207  ASN207      0.1155
     52  CG        -9.9830   29.6800   80.0810 C.2   207  ASN207      0.2627
     53  OD1      -11.0980   29.2830   80.4570 O.2   207  ASN207     -0.2716
     54  ND2       -9.8300   30.5080   79.0490 N.am  207  ASN207     -0.0877
     55  N         -8.6730   24.5870   84.7310 N.3   211  ARG211     -0.1245
     56  CA        -8.0420   23.3290   84.3950 C.3   211  ARG211      0.1563
     57  C         -7.3280   22.7140   85.5950 C.2   211  ARG211      0.2260
     58  O         -7.2410   21.4930   85.7020 O.2   211  ARG211     -0.2867
     59  CB        -7.1190   23.4640   83.1760 C.3   211  ARG211      0.0307
     60  CG        -5.8400   24.2880   83.3660 C.3   211  ARG211      0.0489
     61  CD        -4.9470   24.2080   82.1120 C.3   211  ARG211      0.2205
     62  NE        -5.6350   24.7610   80.9400 N.pl3 211  ARG211     -0.0865
     63  CZ        -5.5630   26.0310   80.5350 C.cat 211  ARG211      0.5346
     64  NH1       -4.8120   26.9130   81.1830 N.pl3 211  ARG211      0.1354
     65  NH2       -6.2590   26.4180   79.4730 N.pl3 211  ARG211      0.1354
     66  N         -0.1390   29.0770   79.8980 N.3   266  PRO266     -0.2102
     67  CA        -0.0850   28.9090   78.4430 C.3   266  PRO266      0.1504
     68  C          1.0360   29.6980   77.7740 C.2   266  PRO266      0.2576
     69  O          1.6060   30.6260   78.3720 O.2   266  PRO266     -0.2718
     70  CB        -1.4350   29.4710   77.9630 C.3   266  PRO266      0.0282
     71  CG        -2.2430   29.7280   79.2070 C.3   266  PRO266      0.0208
     72  CD        -1.3000   29.8740   80.3300 C.3   266  PRO266      0.0893
     73  N          1.3240   29.3340   76.5270 N.am  267  ASN267     -0.1961
     74  CA         2.2150   30.1230   75.6820 C.3   267  ASN267      0.1804
     75  C          1.4710   30.6310   74.4610 C.2   267  ASN267      0.2463
     76  O          1.4760   29.9650   73.4210 O.2   267  ASN267     -0.2730
     77  CB         3.4280   29.3030   75.2750 C.3   267  ASN267      0.1195
     78  CG         4.2860   28.9260   76.4570 C.2   267  ASN267      0.2630
     79  OD1        4.0990   27.8660   77.0640 O.2   267  ASN267     -0.2716
     80  ND2        5.2190   29.8110   76.8170 N.am  267  ASN267     -0.0877
     81  N          0.8190   31.8090   74.5900 N.am  268  PRO268     -0.2716
     82  CA         0.0180   32.4310   73.5420 C.3   268  PRO268      0.1536
     83  C          0.8140   32.6460   72.2760 C.2   268  PRO268      0.2599
     84  O          1.8410   33.3250   72.3010 O.2   268  PRO268     -0.2715
     85  CB        -0.3600   33.7930   74.1430 C.3   268  PRO268      0.0310
     86  CG        -0.2540   33.6030   75.5970 C.3   268  PRO268      0.0237
     87  CD         0.8940   32.6700   75.7830 C.3   268  PRO268      0.0939
     88  N          0.3320   32.0660   71.1810 N.am  269  THR269     -0.1951
     89  CA         0.9440   32.2260   69.8750 C.3   269  THR269      0.1897
     90  C          0.5400   33.5790   69.2860 C.2   269  THR269      0.2313
     91  O         -0.6510   33.8960   69.1750 O.2   269  THR269     -0.2863
     92  CB         0.5140   31.0780   68.9410 C.3   269  THR269      0.1794
     93  OG1        0.9000   29.8230   69.5180 O.3   269  THR269     -0.2208
     94  CG2        1.1280   31.2250   67.5440 C.3   269  THR269      0.0378
@<TRIPOS>BOND
     1     9     8    2
     2     5     2    1
     3    94    92    1
     4     8     7    1
     5     2     3    1
     6     2     1    1
     7    92    93    1
     8    92    89    1
     9     6     7    1
    10     6     3   am
    11     7    10    1
    12    91    90    2
    13     3     4    2
    14    90    89    1
    15    89    88    1
    16    10    11    1
    17    88    83   am
    18    11    13   ar
    19    11    12   ar
    20    13    15   ar
    21    20    21    1
    22    20    17    1
    23    83    84    2
    24    83    82    1
    25    21    22    1
    26    12    14   ar
    27    33    31    1
    28    19    18    2
    29    17    18    1
    30    17    16    1
    31    15    14   ar
    32    76    75    2
    33    18    23   am
    34    31    30    2
    35    31    32    1
    36    82    85    1
    37    82    81    1
    38    30    29    1
    39    22    16    1
    40    85    86    1
    41    28    29    1
    42    28    27    1
    43    75    81   am
    44    75    74    1
    45    23    24    1
    46    81    87    1
    47    24    27    1
    48    24    25    1
    49    77    74    1
    50    77    78    1
    51    86    87    1
    52    74    73    1
    53    25    26    2
    54    78    80   am
    55    78    79    2
    56    73    68   am
    57    68    69    2
    58    68    67    1
    59    70    67    1
    60    70    71    1
    61    46    44    1
    62    67    66    1
    63    38    35    1
    64    44    43    1
    65    54    52   am
    66    71    72    1
    67    65    63    1
    68    66    72    1
    69    52    53    2
    70    52    51    1
    71    35    36    1
    72    35    34    1
    73    43    40    1
    74    43    45    1
    75    39    36   am
    76    39    40    1
    77    63    62    2
    78    63    64    1
    79    36    37    2
    80    40    41    1
    81    51    48    1
    82    62    61    1
    83    61    60    1
    84    41    42    2
    85    48    47    1
    86    48    49    1
    87    50    49    2
    88    59    60    1
    89    59    56    1
    90    56    55    1
    91    56    57    1
    92    57    58    2
