@<TRIPOS>MOLECULE
tmp/3fxuB00.pdb
 124 118 0 0 0
SMALL
GASTEIGER

@<TRIPOS>ATOM
      1  N        -31.6770   58.9580   21.3900 N.3    70  SER70      -0.1203
      2  CA       -32.7370   59.2400   22.3480 C.3    70  SER70       0.2005
      3  C        -34.0610   58.8690   21.6680 C.2    70  SER70       0.2461
      4  O        -34.0800   58.6610   20.4560 O.2    70  SER70      -0.2732
      5  CB       -32.6950   60.7120   22.7490 C.3    70  SER70       0.2103
      6  OG       -32.9860   61.5010   21.6250 O.3    70  SER70      -0.2182
      7  N        -35.1680   58.7840   22.4340 N.am   71  PRO71      -0.2717
      8  CA       -36.4410   58.2730   21.8780 C.3    71  PRO71       0.1535
      9  C        -37.0180   58.9540   20.6200 C.2    71  PRO71       0.2598
     10  O        -37.4720   58.2520   19.7210 O.2    71  PRO71      -0.2715
     11  CB       -37.4220   58.4070   23.0570 C.3    71  PRO71       0.0310
     12  CG       -36.5530   58.3280   24.2530 C.3    71  PRO71       0.0237
     13  CD       -35.2880   59.0610   23.8780 C.3    71  PRO71       0.0939
     14  N        -37.0630   60.2820   20.5530 N.am   72  ALA72      -0.1978
     15  CA       -37.6680   60.9330   19.3640 C.3    72  ALA72       0.1597
     16  C        -36.9090   60.6300   18.0620 C.2    72  ALA72       0.2287
     17  O        -37.5300   60.3820   17.0150 O.2    72  ALA72      -0.2864
     18  CB       -37.8280   62.4290   19.5630 C.3    72  ALA72       0.0319
     19  N        -29.2280   58.8550   26.5380 N.3   100  MET100     -0.1245
     20  CA       -29.5360   60.2510   26.7650 C.3   100  MET100      0.1570
     21  C        -28.3550   60.9370   27.4560 C.2   100  MET100      0.2261
     22  O        -27.6300   60.3120   28.2340 O.2   100  MET100     -0.2867
     23  CB       -30.7910   60.3690   27.6430 C.3   100  MET100      0.0387
     24  CG       -31.3210   61.7940   27.7770 C.3   100  MET100      0.0595
     25  SD       -33.0980   61.9230   28.1160 S.3   100  MET100     -0.1393
     26  CE       -33.7830   61.0380   26.7120 C.3   100  MET100      0.0692
     27  N        -31.1890   65.0800   22.9400 N.3   119  ALA119     -0.1245
     28  CA       -31.4650   66.3930   23.4950 C.3   119  ALA119      0.1562
     29  C        -30.4170   66.7390   24.5540 C.2   119  ALA119      0.2260
     30  O        -29.8930   65.8530   25.2470 O.2   119  ALA119     -0.2867
     31  CB       -32.8860   66.4340   24.0870 C.3   119  ALA119      0.0290
     32  N        -36.9380   70.0420   18.6170 N.3   137  SER137     -0.1217
     33  CA       -38.1100   69.2100   18.8590 C.3   137  SER137      0.1889
     34  C        -39.2550   69.9840   19.5090 C.2   137  SER137      0.2288
     35  O        -39.1300   71.1640   19.8070 O.2   137  SER137     -0.2866
     36  CB       -37.7530   67.9660   19.6750 C.3   137  SER137      0.2089
     37  OG       -37.4590   68.3020   21.0220 O.3   137  SER137     -0.2183
     38  N        -42.3840   69.5010   22.5190 N.3   139  VAL139     -0.1245
     39  CA       -42.8250   68.7240   23.6830 C.3   139  VAL139      0.1561
     40  C        -44.3350   68.9320   23.9170 C.2   139  VAL139      0.2260
     41  O        -44.8360   70.0550   23.8080 O.2   139  VAL139     -0.2867
     42  CB       -41.9560   69.0690   24.9350 C.3   139  VAL139      0.0252
     43  CG1      -42.5900   68.6030   26.2160 C.3   139  VAL139      0.0019
     44  CG2      -40.5510   68.4550   24.7880 C.3   139  VAL139      0.0019
     45  N        -41.1830   61.9170   33.5950 N.3   166  SER166     -0.1202
     46  CA       -40.4880   61.2360   32.5220 C.3   166  SER166      0.2020
     47  C        -39.0290   61.6990   32.5150 C.2   166  SER166      0.2619
     48  O        -38.6930   62.7220   33.1140 O.2   166  SER166     -0.2717
     49  CB       -41.1850   61.5080   31.1690 C.3   166  SER166      0.2103
     50  OG       -41.5100   62.8840   30.9990 O.3   166  SER166     -0.2182
     51  N        -38.1800   60.9400   31.8300 N.am  167  SER167     -0.1937
     52  CA       -36.7440   61.1470   31.8340 C.3   167  SER167      0.2055
     53  C        -36.3390   62.3950   31.0230 C.2   167  SER167      0.2643
     54  O        -37.0260   62.7750   30.0640 O.2   167  SER167     -0.2714
     55  CB       -36.0730   59.8750   31.2950 C.3   167  SER167      0.2130
     56  OG       -34.7250   59.7720   31.7190 O.3   167  SER167     -0.2179
     57  N        -35.2380   63.0380   31.4140 N.am  168  ALA168     -0.1963
     58  CA       -34.7590   64.2550   30.7380 C.3   168  ALA168      0.1713
     59  C        -33.2860   64.5230   31.0520 C.2   168  ALA168      0.2458
     60  O        -32.7750   64.0230   32.0570 O.2   168  ALA168     -0.2730
     61  CB       -35.6050   65.4540   31.1420 C.3   168  ALA168      0.0333
     62  N        -32.5940   65.3170   30.1980 N.am  169  PRO169     -0.2727
     63  CA       -31.1770   65.6230   30.4800 C.3   169  PRO169      0.1402
     64  C        -30.9380   66.2560   31.8560 C.2   169  PRO169      0.2269
     65  O        -29.9130   65.9800   32.4930 O.2   169  PRO169     -0.2865
     66  CB       -30.7810   66.5920   29.3580 C.3   169  PRO169      0.0296
     67  CG       -31.7170   66.2880   28.2390 C.3   169  PRO169      0.0237
     68  CD       -33.0170   65.8290   28.8780 C.3   169  PRO169      0.0939
     69  N        -38.4990   69.1830   32.6890 N.3   175  ILE175     -0.1245
     70  CA       -39.2830   70.0860   31.8450 C.3   175  ILE175      0.1561
     71  C        -40.5530   70.6040   32.5550 C.2   175  ILE175      0.2260
     72  O        -40.7840   71.8180   32.5970 O.2   175  ILE175     -0.2867
     73  CB       -39.5760   69.4850   30.4430 C.3   175  ILE175      0.0252
     74  CG1      -38.3320   69.6500   29.5540 C.3   175  ILE175      0.0019
     75  CG2      -40.7890   70.1720   29.7840 C.3   175  ILE175      0.0019
     76  CD1      -38.5070   69.1680   28.1210 C.3   175  ILE175      0.0001
     77  N        -39.1260   55.2950   28.4070 N.3   197  PHE197     -0.1241
     78  CA       -40.0020   55.8260   27.3730 C.3   197  PHE197      0.1605
     79  C        -40.8330   54.7210   26.7020 C.2   197  PHE197      0.2264
     80  O        -41.9740   54.9680   26.3060 O.2   197  PHE197     -0.2867
     81  CB       -39.2550   56.7010   26.3660 C.3   197  PHE197      0.0534
     82  CG       -38.8350   58.0390   26.9320 C.ar  197  PHE197     -0.0203
     83  CD1      -39.7620   59.0590   27.1050 C.ar  197  PHE197     -0.0042
     84  CD2      -37.5110   58.2650   27.3230 C.ar  197  PHE197     -0.0042
     85  CE1      -39.3650   60.3090   27.6420 C.ar  197  PHE197     -0.0003
     86  CE2      -37.1090   59.4900   27.8500 C.ar  197  PHE197     -0.0003
     87  CZ       -38.0360   60.5110   28.0170 C.ar  197  PHE197     -0.0000
     88  N        -45.0000   64.5590   30.1720 N.3   212  THR212     -0.1203
     89  CA       -44.5500   65.3180   29.0250 C.3   212  THR212      0.1994
     90  C        -43.7750   64.3660   28.1520 C.2   212  THR212      0.2618
     91  O        -43.0390   63.5090   28.6550 O.2   212  THR212     -0.2717
     92  CB       -43.6990   66.5520   29.4010 C.3   212  THR212      0.1784
     93  OG1      -42.5090   66.1230   30.0630 O.3   212  THR212     -0.2211
     94  CG2      -44.4740   67.4660   30.3350 C.3   212  THR212      0.0376
     95  N        -43.9680   64.4830   26.8480 N.am  213  MET213     -0.1965
     96  CA       -43.2120   63.6730   25.9110 C.3   213  MET213      0.1721
     97  C        -42.9280   64.3970   24.5950 C.2   213  MET213      0.2458
     98  O        -43.6250   65.3540   24.2390 O.2   213  MET213     -0.2730
     99  CB       -43.8680   62.2910   25.6970 C.3   213  MET213      0.0427
    100  CG       -45.1770   62.2790   24.9420 C.3   213  MET213      0.0599
    101  SD       -45.8650   60.6200   24.8200 S.3   213  MET213     -0.1393
    102  CE       -46.3540   60.2280   26.4740 C.3   213  MET213      0.0692
    103  N        -41.8710   63.9580   23.8770 N.am  214  PRO214     -0.2727
    104  CA       -41.6410   64.4650   22.5360 C.3   214  PRO214      0.1402
    105  C        -42.8890   64.2520   21.7040 C.2   214  PRO214      0.2269
    106  O        -43.5500   63.2170   21.8510 O.2   214  PRO214     -0.2865
    107  CB       -40.5050   63.5800   22.0210 C.3   214  PRO214      0.0296
    108  CG       -39.7760   63.1470   23.2260 C.3   214  PRO214      0.0237
    109  CD       -40.7680   63.0890   24.3450 C.3   214  PRO214      0.0939
    110  N        -36.7650   71.4960   23.0210 N.3   239  PRO239     -0.2116
    111  CA       -35.3600   71.0590   23.2170 C.3   239  PRO239      0.1372
    112  C        -34.6200   70.8720   21.8900 C.2   239  PRO239      0.2244
    113  O        -35.1790   70.3630   20.9120 O.2   239  PRO239     -0.2868
    114  CB       -35.4790   69.7150   23.9590 C.3   239  PRO239      0.0268
    115  CG       -36.9470   69.5970   24.4030 C.3   239  PRO239      0.0207
    116  CD       -37.7510   70.4950   23.4820 C.3   239  PRO239      0.0892
    117  N        -32.0520   68.7680   19.8080 N.3   241  ILE241     -0.1245
    118  CA       -31.3870   67.4520   19.7200 C.3   241  ILE241      0.1561
    119  C        -30.0590   67.6300   18.9780 C.2   241  ILE241      0.2260
    120  O        -30.0310   68.2130   17.9070 O.2   241  ILE241     -0.2867
    121  CB       -32.3080   66.4370   19.0070 C.3   241  ILE241      0.0252
    122  CG1      -33.6690   66.3730   19.7390 C.3   241  ILE241      0.0019
    123  CG2      -31.6630   65.0280   18.9240 C.3   241  ILE241      0.0019
    124  CD1      -34.7490   65.6530   18.9480 C.3   241  ILE241      0.0001
@<TRIPOS>BOND
     1    17    16    2
     2   120   119    2
     3    16    15    1
     4    32    33    1
     5    33    34    1
     6    33    36    1
     7   123   121    1
     8   124   122    1
     9   119   118    1
    10   121   118    1
    11   121   122    1
    12    15    18    1
    13    15    14    1
    14    34    35    2
    15    36    37    1
    16   118   117    1
    17    10     9    2
    18     4     3    2
    19    14     9   am
    20     9     8    1
    21   113   112    2
    22     1     2    1
    23     6     5    1
    24     3     2    1
    25     3     7   am
    26   105   106    2
    27   105   104    1
    28     8     7    1
    29     8    11    1
    30   112   111    1
    31   107   104    1
    32   107   108    1
    33     2     5    1
    34     7    13    1
    35    38    39    1
    36   104   103    1
    37    27    28    1
    38   110   111    1
    39   110   116    1
    40    11    12    1
    41   111   114    1
    42   108   109    1
    43   116   115    1
    44    28    31    1
    45    28    29    1
    46    39    40    1
    47    39    42    1
    48    41    40    2
    49   103   109    1
    50   103    97   am
    51    13    12    1
    52   114   115    1
    53    98    97    2
    54    29    30    2
    55    97    96    1
    56    44    42    1
    57   101   100    1
    58   101   102    1
    59    42    43    1
    60   100    99    1
    61    99    96    1
    62    96    95    1
    63    80    79    2
    64    81    82    1
    65    81    78    1
    66    19    20    1
    67    79    78    1
    68    26    25    1
    69    20    21    1
    70    20    23    1
    71    95    90   am
    72    82    83   ar
    73    82    84   ar
    74    83    85   ar
    75    84    86   ar
    76    78    77    1
    77    21    22    2
    78    85    87   ar
    79    23    24    1
    80    24    25    1
    81    86    87   ar
    82    76    74    1
    83    90    91    2
    84    90    89    1
    85    67    68    1
    86    67    66    1
    87    68    62    1
    88    89    92    1
    89    89    88    1
    90    66    63    1
    91    92    93    1
    92    92    94    1
    93    74    73    1
    94    75    73    1
    95    54    53    2
    96    62    63    1
    97    62    59   am
    98    73    70    1
    99    63    64    1
   100    58    59    1
   101    58    61    1
   102    58    57    1
   103    50    49    1
   104    53    57   am
   105    53    52    1
   106    59    60    2
   107    49    46    1
   108    55    56    1
   109    55    52    1
   110    51    52    1
   111    51    47   am
   112    70    71    1
   113    70    69    1
   114    64    65    2
   115    47    46    1
   116    47    48    2
   117    46    45    1
   118    71    72    2
