@<TRIPOS>MOLECULE
tmp/3fxuA03.pdb
 101 101 0 0 0
SMALL
GASTEIGER

@<TRIPOS>ATOM
      1  N         -3.1610   38.4020   69.7550 N.3   148  ALA148     -0.1231
      2  CA        -3.5130   37.0880   70.2670 C.3   148  ALA148      0.1694
      3  C         -4.8920   36.7610   69.7340 C.2   148  ALA148      0.2592
      4  O         -5.7340   37.6530   69.6190 O.2   148  ALA148     -0.2718
      5  CB        -3.5350   37.0960   71.7980 C.3   148  ALA148      0.0304
      6  N         -5.0950   35.4900   69.3810 N.am  149  ALA149     -0.1966
      7  CA        -6.4070   34.9500   69.0240 C.3   149  ALA149      0.1728
      8  C         -6.3900   33.4250   69.1400 C.2   149  ALA149      0.2616
      9  O         -5.3290   32.7940   69.0630 O.2   149  ALA149     -0.2715
     10  CB        -6.8070   35.3630   67.6150 C.3   149  ALA149      0.0334
     11  N         -7.5670   32.8430   69.3520 N.am  150  HIS150     -0.1959
     12  CA        -7.7490   31.3950   69.2520 C.3   150  HIS150      0.1787
     13  C         -8.0450   31.0910   67.7900 C.2   150  HIS150      0.2620
     14  O         -9.0080   31.6200   67.2270 O.2   150  HIS150     -0.2715
     15  CB        -8.9000   30.9210   70.1370 C.3   150  HIS150      0.0785
     16  CG        -8.5990   30.9800   71.6010 C.ar  150  HIS150      0.0821
     17  ND1       -8.7950   32.1160   72.3580 N.ar  150  HIS150     -0.2267
     18  CD2       -8.1150   30.0410   72.4490 C.ar  150  HIS150      0.1154
     19  CE1       -8.4460   31.8740   73.6100 C.ar  150  HIS150      0.1986
     20  NE2       -8.0260   30.6240   73.6910 N.ar  150  HIS150     -0.2212
     21  N         -7.2110   30.2440   67.1850 N.am  151  LYS151     -0.1977
     22  CA        -7.2460   29.9730   65.7460 C.3   151  LYS151      0.1596
     23  C         -8.6600   29.7440   65.2250 C.2   151  LYS151      0.2287
     24  O         -9.0260   30.2530   64.1660 O.2   151  LYS151     -0.2864
     25  CB        -6.3310   28.7830   65.3870 C.3   151  LYS151      0.0298
     26  CG        -6.2100   28.4600   63.8780 C.3   151  LYS151      0.0038
     27  CD        -5.9340   29.7140   63.0360 C.3   151  LYS151      0.0206
     28  CE        -5.8380   29.4170   61.5380 C.3   151  LYS151      0.1093
     29  NZ        -4.4170   29.3470   61.0920 N.3   151  LYS151     -0.1314
     30  N         -9.0750   40.3600   77.3260 N.3   197  ALA197     -0.1231
     31  CA        -8.7020   39.1490   76.5980 C.3   197  ALA197      0.1679
     32  C         -9.6030   39.0380   75.3740 C.2   197  ALA197      0.2434
     33  O        -10.6840   39.6200   75.3700 O.2   197  ALA197     -0.2733
     34  CB        -8.8530   37.9160   77.5000 C.3   197  ALA197      0.0304
     35  N         -9.1670   38.2980   74.3290 N.am  198  PRO198     -0.2718
     36  CA        -9.9990   38.1430   73.1190 C.3   198  PRO198      0.1535
     37  C        -11.3680   37.5610   73.4230 C.2   198  PRO198      0.2598
     38  O        -12.3370   37.8690   72.7240 O.2   198  PRO198     -0.2715
     39  CB        -9.2040   37.1520   72.2640 C.3   198  PRO198      0.0310
     40  CG        -7.7980   37.2770   72.7400 C.3   198  PRO198      0.0237
     41  CD        -7.8660   37.6140   74.1970 C.3   198  PRO198      0.0939
     42  N        -11.4480   36.7350   74.4660 N.am  199  ARG199     -0.1978
     43  CA       -12.7150   36.1180   74.8500 C.3   199  ARG199      0.1597
     44  C        -13.4910   36.9150   75.9130 C.2   199  ARG199      0.2287
     45  O        -14.5020   36.4410   76.4370 O.2   199  ARG199     -0.2864
     46  CB       -12.4940   34.6530   75.2630 C.3   199  ARG199      0.0334
     47  CG       -11.9550   33.7980   74.1200 C.3   199  ARG199      0.0492
     48  CD       -12.0290   32.3070   74.4100 C.3   199  ARG199      0.2205
     49  NE       -12.0380   31.5360   73.1640 N.pl3 199  ARG199     -0.0865
     50  CZ       -11.6760   30.2600   73.0560 C.cat 199  ARG199      0.5346
     51  NH1      -11.2580   29.5840   74.1190 N.pl3 199  ARG199      0.1354
     52  NH2      -11.7270   29.6590   71.8720 N.pl3 199  ARG199      0.1354
     53  N         -9.0900   34.7280   80.7250 N.3   204  ILE204     -0.1245
     54  CA        -7.9830   33.8190   80.9810 C.3   204  ILE204      0.1561
     55  C         -8.0490   33.2180   82.3870 C.2   204  ILE204      0.2260
     56  O         -7.9950   32.0000   82.5460 O.2   204  ILE204     -0.2867
     57  CB        -6.6400   34.5070   80.7370 C.3   204  ILE204      0.0252
     58  CG1       -6.4530   34.7100   79.2260 C.3   204  ILE204      0.0019
     59  CG2       -5.4900   33.7090   81.3800 C.3   204  ILE204      0.0019
     60  CD1       -5.1310   35.4070   78.8400 C.3   204  ILE204      0.0001
     61  N         -2.2920   29.5740   79.9890 N.3   266  PRO266     -0.2102
     62  CA        -2.0860   29.5150   78.5400 C.3   266  PRO266      0.1504
     63  C         -0.8870   30.3290   78.0150 C.2   266  PRO266      0.2576
     64  O         -0.4050   31.2800   78.6650 O.2   266  PRO266     -0.2718
     65  CB        -3.3840   30.1160   77.9820 C.3   266  PRO266      0.0282
     66  CG        -3.8010   31.0970   79.0360 C.3   266  PRO266      0.0208
     67  CD        -3.4750   30.3910   80.3340 C.3   266  PRO266      0.0893
     68  N         -0.4300   29.9490   76.8270 N.am  267  ASN267     -0.1961
     69  CA         0.5580   30.7260   76.0980 C.3   267  ASN267      0.1804
     70  C         -0.1080   31.1980   74.8080 C.2   267  ASN267      0.2463
     71  O         -0.0140   30.5180   73.7910 O.2   267  ASN267     -0.2730
     72  CB         1.8020   29.8740   75.7930 C.3   267  ASN267      0.1195
     73  CG         2.5440   29.4300   77.0510 C.2   267  ASN267      0.2630
     74  OD1        2.1640   28.4520   77.6860 O.2   267  ASN267     -0.2716
     75  ND2        3.6350   30.1180   77.3820 N.am  267  ASN267     -0.0877
     76  N         -0.8090   32.3560   74.8520 N.am  268  PRO268     -0.2716
     77  CA        -1.5790   32.8370   73.7040 C.3   268  PRO268      0.1536
     78  C         -0.7270   33.0020   72.4600 C.2   268  PRO268      0.2599
     79  O          0.3760   33.5680   72.5270 O.2   268  PRO268     -0.2715
     80  CB        -2.1030   34.2010   74.1800 C.3   268  PRO268      0.0310
     81  CG        -2.1380   34.0660   75.6800 C.3   268  PRO268      0.0237
     82  CD        -0.9240   33.2750   76.0020 C.3   268  PRO268      0.0939
     83  N         -1.2360   32.5110   71.3330 N.am  269  THR269     -0.1951
     84  CA        -0.5620   32.6830   70.0540 C.3   269  THR269      0.1897
     85  C         -0.9890   34.0090   69.4640 C.2   269  THR269      0.2313
     86  O         -2.1950   34.2780   69.2980 O.2   269  THR269     -0.2863
     87  CB        -0.9130   31.5590   69.0440 C.3   269  THR269      0.1794
     88  OG1       -0.6080   30.2830   69.6150 O.3   269  THR269     -0.2208
     89  CG2       -0.1460   31.7230   67.7240 C.3   269  THR269      0.0378
     90  N         -1.1820   36.3190   66.2110 N.3   271  TYR271     -0.1241
     91  CA        -1.2880   36.1290   64.7650 C.3   271  TYR271      0.1605
     92  C         -1.2200   37.4520   64.0070 C.2   271  TYR271      0.2264
     93  O         -1.6390   38.4900   64.5220 O.2   271  TYR271     -0.2867
     94  CB        -2.6190   35.4450   64.4170 C.3   271  TYR271      0.0534
     95  CG        -2.7160   34.0100   64.8900 C.ar  271  TYR271     -0.0201
     96  CD1       -2.2130   32.9650   64.1100 C.ar  271  TYR271     -0.0009
     97  CD2       -3.3030   33.6970   66.1210 C.ar  271  TYR271     -0.0009
     98  CE1       -2.3010   31.6450   64.5350 C.ar  271  TYR271      0.0417
     99  CE2       -3.4010   32.3840   66.5490 C.ar  271  TYR271      0.0417
    100  CZ        -2.8910   31.3610   65.7610 C.ar  271  TYR271      0.1957
    101  OH        -2.9620   30.0600   66.2030 O.3   271  TYR271     -0.2866
@<TRIPOS>BOND
     1    29    28    1
     2    28    27    1
     3    27    26    1
     4    26    25    1
     5    92    93    2
     6    92    91    1
     7    96    98   ar
     8    96    95   ar
     9    24    23    2
    10    94    91    1
    11    94    95    1
    12    98   100   ar
    13    91    90    1
    14    95    97   ar
    15    23    22    1
    16    25    22    1
    17    22    21    1
    18   100   101    1
    19   100    99   ar
    20    97    99   ar
    21    21    13   am
    22    14    13    2
    23    10     7    1
    24    89    87    1
    25    13    12    1
    26     7     8    1
    27     7     6    1
    28    87    88    1
    29    87    84    1
    30     9     8    2
    31     8    11   am
    32    12    11    1
    33    12    15    1
    34    86    85    2
    35     6     3   am
    36    85    84    1
    37     4     3    2
    38     3     2    1
    39     1     2    1
    40    84    83    1
    41    15    16    1
    42     2     5    1
    43    83    78   am
    44    16    17   ar
    45    16    18   ar
    46    52    50    1
    47    39    40    1
    48    39    36    1
    49    17    19   ar
    50    18    20   ar
    51    78    79    2
    52    78    77    1
    53    38    37    2
    54    40    41    1
    55    50    49    2
    56    50    51    1
    57    36    37    1
    58    36    35    1
    59    49    48    1
    60    37    42   am
    61    19    20   ar
    62    77    80    1
    63    77    76    1
    64    71    70    2
    65    47    48    1
    66    47    46    1
    67    80    81    1
    68    41    35    1
    69    35    32   am
    70    42    43    1
    71    70    76   am
    72    70    69    1
    73    43    46    1
    74    43    44    1
    75    76    82    1
    76    33    32    2
    77    32    31    1
    78    81    82    1
    79    72    69    1
    80    72    73    1
    81    44    45    2
    82    69    68    1
    83    31    30    1
    84    31    34    1
    85    68    63   am
    86    73    75   am
    87    73    74    2
    88    65    62    1
    89    65    66    1
    90    63    62    1
    91    63    64    2
    92    62    61    1
    93    60    58    1
    94    66    67    1
    95    58    57    1
    96    61    67    1
    97    53    54    1
    98    57    54    1
    99    57    59    1
   100    54    55    1
   101    55    56    2
