@<TRIPOS>MOLECULE
tmp/3fxuB01.pdb
 103 98 0 0 0
SMALL
GASTEIGER

@<TRIPOS>ATOM
      1  N        -37.0630   60.2820   20.5530 N.3    72  ALA72      -0.1231
      2  CA       -37.6680   60.9330   19.3640 C.3    72  ALA72       0.1694
      3  C        -36.9090   60.6300   18.0620 C.2    72  ALA72       0.2591
      4  O        -37.5300   60.3820   17.0150 O.2    72  ALA72      -0.2718
      5  CB       -37.8280   62.4290   19.5630 C.3    72  ALA72       0.0304
      6  N        -35.5770   60.6500   18.1510 N.am   73  ILE73      -0.1980
      7  CA       -34.6740   60.2850   17.0650 C.3    73  ILE73       0.1595
      8  C        -34.9280   58.8690   16.5930 C.2    73  ILE73       0.2287
      9  O        -35.0580   58.6090   15.3930 O.2    73  ILE73      -0.2864
     10  CB       -33.1650   60.3920   17.5350 C.3    73  ILE73       0.0276
     11  CG1      -32.6930   61.8270   17.4160 C.3    73  ILE73       0.0022
     12  CG2      -32.2470   59.4890   16.7160 C.3    73  ILE73       0.0022
     13  CD1      -33.3600   62.6070   16.2540 C.3    73  ILE73       0.0001
     14  N        -38.3600   58.4930   14.5590 N.3    76  ALA76      -0.1231
     15  CA       -38.6520   59.2820   13.3590 C.3    76  ALA76       0.1694
     16  C        -37.5680   59.1330   12.2850 C.2    76  ALA76       0.2591
     17  O        -37.7140   58.3590   11.3220 O.2    76  ALA76      -0.2718
     18  CB       -38.8420   60.7610   13.7510 C.3    76  ALA76       0.0304
     19  N        -36.4620   59.8410   12.4670 N.am   77  ALA77      -0.1980
     20  CA       -35.3950   59.8860   11.4670 C.3    77  ALA77       0.1597
     21  C        -34.5690   58.5950   11.3740 C.2    77  ALA77       0.2287
     22  O        -34.0870   58.2290   10.2950 O.2    77  ALA77      -0.2864
     23  CB       -34.4880   61.0690   11.7290 C.3    77  ALA77       0.0319
     24  N        -31.8300   68.7330   15.2900 N.3   135  TYR135     -0.1227
     25  CA       -33.2810   68.8360   15.2900 C.3   135  TYR135      0.1736
     26  C        -33.7540   69.7780   16.3750 C.2   135  TYR135      0.2595
     27  O        -33.2520   69.7260   17.4900 O.2   135  TYR135     -0.2718
     28  CB       -33.9910   67.4820   15.3480 C.3   135  TYR135      0.0548
     29  CG       -35.4060   67.5730   14.8230 C.ar  135  TYR135     -0.0200
     30  CD1      -35.6590   67.6000   13.4570 C.ar  135  TYR135     -0.0009
     31  CD2      -36.4860   67.6310   15.6890 C.ar  135  TYR135     -0.0009
     32  CE1      -36.9580   67.6850   12.9650 C.ar  135  TYR135      0.0417
     33  CE2      -37.7870   67.7140   15.2080 C.ar  135  TYR135      0.0417
     34  CZ       -38.0160   67.7450   13.8440 C.ar  135  TYR135      0.1957
     35  OH       -39.3080   67.8300   13.3600 O.3   135  TYR135     -0.2866
     36  N        -34.7610   70.5970   16.0940 N.am  136  VAL136     -0.1966
     37  CA       -35.4230   71.2870   17.1970 C.3   136  VAL136      0.1727
     38  C        -36.7620   70.6000   17.4290 C.2   136  VAL136      0.2617
     39  O        -37.6140   70.5670   16.5330 O.2   136  VAL136     -0.2715
     40  CB       -35.5510   72.8140   16.9670 C.3   136  VAL136      0.0290
     41  CG1      -36.3740   73.4580   18.0750 C.3   136  VAL136      0.0023
     42  CG2      -34.1600   73.4670   16.9160 C.3   136  VAL136      0.0023
     43  N        -36.9380   70.0420   18.6170 N.am  137  SER137     -0.1936
     44  CA       -38.1100   69.2100   18.8590 C.3   137  SER137      0.2055
     45  C        -39.2550   69.9840   19.5090 C.2   137  SER137      0.2643
     46  O        -39.1300   71.1640   19.8070 O.2   137  SER137     -0.2714
     47  CB       -37.7530   67.9660   19.6750 C.3   137  SER137      0.2130
     48  OG       -37.4590   68.3020   21.0220 O.3   137  SER137     -0.2179
     49  N        -40.3560   69.2740   19.7070 N.am  138  ASP138     -0.1971
     50  CA       -41.6050   69.7720   20.2300 C.3   138  ASP138      0.1709
     51  C        -41.9690   68.8940   21.4130 C.2   138  ASP138      0.2293
     52  O        -41.8790   67.6620   21.3150 O.2   138  ASP138     -0.2864
     53  CB       -42.6570   69.5210   19.1680 C.3   138  ASP138      0.1436
     54  CG       -43.5470   70.6740   18.9600 C.2   138  ASP138      0.3671
     55  OD1      -44.2960   71.0410   19.9010 O.co2 138  ASP138     -0.2456
     56  OD2      -43.4870   71.2060   17.8350 O.co2 138  ASP138     -0.2456
     57  N        -41.8710   63.9580   23.8770 N.3   214  PRO214     -0.2102
     58  CA       -41.6410   64.4650   22.5360 C.3   214  PRO214      0.1504
     59  C        -42.8890   64.2520   21.7040 C.2   214  PRO214      0.2576
     60  O        -43.5500   63.2170   21.8510 O.2   214  PRO214     -0.2718
     61  CB       -40.5050   63.5800   22.0210 C.3   214  PRO214      0.0282
     62  CG       -39.7760   63.1470   23.2260 C.3   214  PRO214      0.0208
     63  CD       -40.7680   63.0890   24.3450 C.3   214  PRO214      0.0893
     64  N        -43.2330   65.2220   20.8570 N.am  215  ARG215     -0.1966
     65  CA       -44.4180   65.0990   20.0180 C.3   215  ARG215      0.1729
     66  C        -44.3520   63.8120   19.1740 C.2   215  ARG215      0.2616
     67  O        -45.3720   63.1610   18.9600 O.2   215  ARG215     -0.2715
     68  CB       -44.6150   66.3350   19.1350 C.3   215  ARG215      0.0348
     69  CG       -45.9790   66.4000   18.4390 C.3   215  ARG215      0.0492
     70  CD       -46.1600   67.6240   17.5300 C.3   215  ARG215      0.2205
     71  NE       -46.3100   68.8870   18.2600 N.pl3 215  ARG215     -0.0865
     72  CZ       -47.4500   69.3500   18.7840 C.cat 215  ARG215      0.5346
     73  NH1      -48.5820   68.6500   18.6920 N.pl3 215  ARG215      0.1354
     74  NH2      -47.4580   70.5190   19.4300 N.pl3 215  ARG215      0.1354
     75  N        -43.1440   63.4580   18.7150 N.am  216  THR216     -0.1951
     76  CA       -42.8970   62.1740   18.0110 C.3   216  THR216      0.1897
     77  C        -43.4500   60.9570   18.7360 C.2   216  THR216      0.2313
     78  O        -44.1430   60.1330   18.1260 O.2   216  THR216     -0.2863
     79  CB       -41.3710   61.9380   17.7530 C.3   216  THR216      0.1794
     80  OG1      -40.9110   62.9060   16.8210 O.3   216  THR216     -0.2208
     81  CG2      -41.1210   60.5730   17.1420 C.3   216  THR216      0.0378
     82  N        -47.2000   60.9460   18.8550 N.3   219  GLU219     -0.1245
     83  CA       -47.7270   60.5190   17.5490 C.3   219  GLU219      0.1567
     84  C        -47.3030   59.0850   17.1570 C.2   219  GLU219      0.2260
     85  O        -47.8730   58.4960   16.2450 O.2   219  GLU219     -0.2867
     86  CB       -47.3730   61.5410   16.4650 C.3   219  GLU219      0.0388
     87  CG       -48.1460   62.8640   16.6320 C.3   219  GLU219      0.1160
     88  CD       -47.6110   64.0150   15.7820 C.2   219  GLU219      0.3649
     89  OE1      -48.2720   65.0850   15.7500 O.co2 219  GLU219     -0.2457
     90  OE2      -46.5390   63.8700   15.1530 O.co2 219  GLU219     -0.2457
     91  N        -32.0520   68.7680   19.8080 N.3   241  ILE241     -0.1245
     92  CA       -31.3870   67.4520   19.7200 C.3   241  ILE241      0.1561
     93  C        -30.0590   67.6300   18.9780 C.2   241  ILE241      0.2260
     94  O        -30.0310   68.2130   17.9070 O.2   241  ILE241     -0.2867
     95  CB       -32.3080   66.4370   19.0070 C.3   241  ILE241      0.0252
     96  CG1      -33.6690   66.3730   19.7390 C.3   241  ILE241      0.0019
     97  CG2      -31.6630   65.0280   18.9240 C.3   241  ILE241      0.0019
     98  CD1      -34.7490   65.6530   18.9480 C.3   241  ILE241      0.0001
     99  N        -33.3280   63.8690    9.3550 N.3   266  ALA266     -0.1245
    100  CA       -33.8200   64.7530   10.4140 C.3   266  ALA266      0.1562
    101  C        -34.2980   66.0920    9.8340 C.2   266  ALA266      0.2260
    102  O        -35.2880   66.6710   10.2920 O.2   266  ALA266     -0.2867
    103  CB       -32.7470   64.9810   11.4460 C.3   266  ALA266      0.0290
@<TRIPOS>BOND
     1    99   100    1
     2   101   102    2
     3   101   100    1
     4    22    21    2
     5   100   103    1
     6    17    16    2
     7    21    20    1
     8    20    23    1
     9    20    19    1
    10    16    19   am
    11    16    15    1
    12    32    30   ar
    13    32    34   ar
    14    15    18    1
    15    15    14    1
    16    35    34    1
    17    30    29   ar
    18    34    33   ar
    19    29    28    1
    20    29    31   ar
    21    90    88   ar
    22    33    31   ar
    23    24    25    1
    24    25    28    1
    25    25    26    1
    26     9     8    2
    27    89    88   ar
    28    88    87    1
    29    36    26   am
    30    36    37    1
    31    85    84    2
    32    13    11    1
    33    26    27    2
    34    86    87    1
    35    86    83    1
    36    39    38    2
    37     8     7    1
    38    12    10    1
    39    80    79    1
    40    42    40    1
    41    40    37    1
    42    40    41    1
    43     4     3    2
    44     7    10    1
    45     7     6    1
    46    81    79    1
    47    84    83    1
    48    37    38    1
    49    11    10    1
    50    38    43   am
    51    70    71    1
    52    70    69    1
    53    83    82    1
    54    79    76    1
    55    56    54   ar
    56    94    93    2
    57    76    75    1
    58    76    77    1
    59     3     6   am
    60     3     2    1
    61    78    77    2
    62    71    72    2
    63    69    68    1
    64    43    44    1
    65    73    72    1
    66    75    66   am
    67    72    74    1
    68    44    45    1
    69    44    47    1
    70    97    95    1
    71    98    96    1
    72    67    66    2
    73    54    53    1
    74    54    55   ar
    75    93    92    1
    76    95    92    1
    77    95    96    1
    78    68    65    1
    79    53    50    1
    80    66    65    1
    81     2     5    1
    82     2     1    1
    83    45    49   am
    84    45    46    2
    85    47    48    1
    86    49    50    1
    87    92    91    1
    88    65    64    1
    89    50    51    1
    90    64    59   am
    91    52    51    2
    92    59    60    2
    93    59    58    1
    94    61    58    1
    95    61    62    1
    96    58    57    1
    97    62    63    1
    98    57    63    1
