@<TRIPOS>MOLECULE
tmp/3fxwA00.pdb
 154 143 0 0 0
SMALL
GASTEIGER

@<TRIPOS>ATOM
      1  N         15.5930    9.5330   15.4750 N.3    18  LEU18      -0.1231
      2  CA        16.3790    8.7410   14.5370 C.3    18  LEU18       0.1693
      3  C         15.9030    7.2790   14.5070 C.2    18  LEU18       0.2593
      4  O         16.2520    6.5300   13.5900 O.2    18  LEU18      -0.2718
      5  CB        17.8570    8.8130   14.9070 C.3    18  LEU18       0.0284
      6  CG        18.5170   10.1650   15.1790 C.3    18  LEU18       0.0019
      7  CD1       19.8650    9.9300   15.8560 C.3    18  LEU18       0.0001
      8  CD2       18.6710   11.0250   13.9100 C.3    18  LEU18       0.0001
      9  N         15.1050    6.8880   15.5070 N.am   19  GLY19      -0.1942
     10  CA        14.5770    5.5170   15.6160 C.3    19  GLY19       0.2014
     11  C         13.6960    5.2750   16.8400 C.2    19  GLY19       0.2639
     12  O         13.4830    6.1860   17.6510 O.2    19  GLY19      -0.2714
     13  N         13.1860    4.0420   16.9640 N.am   20  LEU20      -0.1963
     14  CA        12.2620    3.6300   18.0460 C.3    20  LEU20       0.1728
     15  C         12.5150    2.1880   18.5220 C.2    20  LEU20       0.2616
     16  O         12.3240    1.2500   17.7480 O.2    20  LEU20      -0.2715
     17  CB        10.8050    3.7520   17.5720 C.3    20  LEU20       0.0311
     18  CG        10.1450    5.1390   17.4990 C.3    20  LEU20       0.0022
     19  CD1        9.4490    5.3620   16.1500 C.3    20  LEU20       0.0001
     20  CD2        9.1880    5.3660   18.6790 C.3    20  LEU20       0.0001
     21  N         12.9370    2.0180   19.7840 N.am   21  GLY21      -0.1955
     22  CA        13.1610    0.6760   20.3880 C.3    21  GLY21       0.1869
     23  C         12.0960    0.2320   21.3890 C.2    21  GLY21       0.2309
     24  O         11.2460    1.0280   21.7940 O.2    21  GLY21      -0.2863
     25  N         14.8520    7.0230   20.0350 N.3    25  VAL25      -0.1245
     26  CA        16.2160    7.4670   19.7090 C.3    25  VAL25       0.1561
     27  C         16.2510    8.9240   19.1730 C.2    25  VAL25       0.2260
     28  O         15.5430    9.2650   18.2370 O.2    25  VAL25      -0.2867
     29  CB        16.9240    6.4350   18.7530 C.3    25  VAL25       0.0252
     30  CG1       18.3670    6.8150   18.4960 C.3    25  VAL25       0.0019
     31  CG2       16.8660    5.0150   19.3800 C.3    25  VAL25       0.0019
     32  N         28.1060   14.8150   16.1420 N.3    36  LYS36      -0.1245
     33  CA        26.7370   14.3420   16.1160 C.3    36  LYS36       0.1561
     34  C         26.7180   12.8950   16.6180 C.2    36  LYS36       0.2260
     35  O         27.5210   12.0630   16.1920 O.2    36  LYS36      -0.2867
     36  CB        26.1440   14.4690   14.7160 C.3    36  LYS36       0.0271
     37  CG        24.6440   14.2240   14.6400 C.3    36  LYS36       0.0035
     38  CD        24.2090   13.9970   13.1940 C.3    36  LYS36       0.0206
     39  CE        23.4120   15.1430   12.6680 C.3    36  LYS36       0.1093
     40  NZ        22.8280   14.8520   11.3040 N.3    36  LYS36      -0.1314
     41  N         23.8590    9.8340   18.8530 N.3    38  ALA38      -0.1245
     42  CA        22.4840    9.3500   18.9630 C.3    38  ALA38       0.1562
     43  C         22.2080    9.0620   20.4420 C.2    38  ALA38       0.2260
     44  O         23.0730    8.5480   21.1320 O.2    38  ALA38      -0.2867
     45  CB        22.2860    8.0300   18.0880 C.3    38  ALA38       0.0290
     46  N         19.5900    7.1570   23.1140 N.3    40  LYS40      -0.1245
     47  CA        18.4210    6.3340   23.4730 C.3    40  LYS40       0.1561
     48  C         18.0100    6.5550   24.9420 C.2    40  LYS40       0.2260
     49  O         18.7980    6.3500   25.8610 O.2    40  LYS40      -0.2867
     50  CB        18.6750    4.8230   23.1760 C.3    40  LYS40       0.0271
     51  CG        17.4220    3.9390   23.2430 C.3    40  LYS40       0.0035
     52  CD        17.7930    2.4800   22.8440 C.3    40  LYS40       0.0206
     53  CE        16.5590    1.6310   22.5850 C.3    40  LYS40       0.1093
     54  NZ        16.9120    0.2230   22.2390 N.3    40  LYS40      -0.1314
     55  N         27.0810   -1.3850   16.8040 N.3    65  VAL65      -0.1245
     56  CA        27.0050    0.0600   17.1700 C.3    65  VAL65       0.1561
     57  C         27.6320    0.3350   18.5550 C.2    65  VAL65       0.2260
     58  O         27.2520   -0.2800   19.5700 O.2    65  VAL65      -0.2867
     59  CB        25.5410    0.6280   17.0540 C.3    65  VAL65       0.0252
     60  CG1       25.4660    2.1240   17.4540 C.3    65  VAL65       0.0019
     61  CG2       24.9960    0.4600   15.6120 C.3    65  VAL65       0.0019
     62  N         25.2760    6.7380   21.6730 N.3    85  MET85      -0.1230
     63  CA        25.9560    5.9010   20.6900 C.3    85  MET85       0.1702
     64  C         26.4410    6.6830   19.4740 C.2    85  MET85       0.2592
     65  O         26.0390    7.8290   19.2630 O.2    85  MET85      -0.2718
     66  CB        25.1660    4.6080   20.3340 C.3    85  MET85       0.0401
     67  CG        23.7660    4.7150   19.8490 C.3    85  MET85       0.0596
     68  SD        22.7690    3.1830   20.2420 S.3    85  MET85      -0.1393
     69  CE        21.3090    3.8970   20.9550 C.3    85  MET85       0.0692
     70  N         27.3270    6.0600   18.6860 N.am   86  GLU86      -0.1966
     71  CA        27.7920    6.6960   17.4850 C.3    86  GLU86       0.1733
     72  C         26.5530    6.9140   16.6260 C.2    86  GLU86       0.2616
     73  O         25.5680    6.1670   16.7030 O.2    86  GLU86      -0.2715
     74  CB        28.8330    5.8210   16.7810 C.3    86  GLU86       0.0429
     75  CG        28.3190    4.4370   16.3150 C.3    86  GLU86       0.1163
     76  CD        29.3930    3.6250   15.6270 C.2    86  GLU86       0.3649
     77  OE1       29.5960    2.4520   16.0160 O.co2  86  GLU86      -0.2457
     78  OE2       30.0550    4.1730   14.7250 O.co2  86  GLU86      -0.2457
     79  N         26.6010    7.9660   15.8270 N.am   87  CYS87      -0.1954
     80  CA        25.4970    8.3460   14.9740 C.3    87  CYS87       0.1843
     81  C         25.5980    7.4890   13.7250 C.2    87  CYS87       0.2625
     82  O         26.6240    7.5140   13.0330 O.2    87  CYS87      -0.2714
     83  CB        25.6160    9.8310   14.6210 C.3    87  CYS87       0.0997
     84  SG        24.2330   10.4310   13.6660 S.3    87  CYS87      -0.0797
     85  N         24.5540    6.6860   13.4700 N.am   88  MET88      -0.1963
     86  CA        24.5510    5.7450   12.3320 C.3    88  MET88       0.1736
     87  C         23.8470    6.4520   11.1750 C.2    88  MET88       0.2616
     88  O         22.7250    6.1190   10.7940 O.2    88  MET88      -0.2715
     89  CB        23.8470    4.4150   12.7330 C.3    88  MET88       0.0427
     90  CG        24.6380    3.6560   13.8590 C.3    88  MET88       0.0599
     91  SD        26.3110    3.2220   13.2340 S.3    88  MET88      -0.1393
     92  CE        25.8930    1.9690   12.0330 C.3    88  MET88       0.0692
     93  N         24.5310    7.4440   10.6020 N.am   89  GLU89      -0.1977
     94  CA        23.9060    8.3940    9.6730 C.3    89  GLU89       0.1602
     95  C         23.4870    7.8440    8.2920 C.2    89  GLU89       0.2287
     96  O         22.6890    8.4580    7.5670 O.2    89  GLU89      -0.2864
     97  CB        24.8060    9.6370    9.5630 C.3    89  GLU89       0.0415
     98  CG        24.0860   10.8120    8.9710 C.3    89  GLU89       0.1163
     99  CD        24.5350   12.1360    9.5730 C.2    89  GLU89       0.3649
    100  OE1       23.6610   12.8090   10.1530 O.co2  89  GLU89      -0.2457
    101  OE2       25.7400   12.4890    9.4730 O.co2  89  GLU89      -0.2457
    102  N         21.7180    5.2190    7.9310 N.3    91  GLY91      -0.1210
    103  CA        20.4290    4.5880    8.2080 C.3    91  GLY91       0.1956
    104  C         20.3500    3.0870    7.8970 C.2    91  GLY91       0.2611
    105  O         21.3510    2.3860    7.9150 O.2    91  GLY91      -0.2717
    106  N         19.1410    2.6330    7.5870 N.am   92  GLU92      -0.1979
    107  CA        18.8130    1.2100    7.4470 C.3    92  GLU92       0.1602
    108  C         19.4090    0.5430    6.1930 C.2    92  GLU92       0.2287
    109  O         19.3770    1.0710    5.0840 O.2    92  GLU92      -0.2864
    110  CB        17.2990    1.0170    7.5200 C.3    92  GLU92       0.0415
    111  CG        16.7500    1.2170    8.9420 C.3    92  GLU92       0.1163
    112  CD        15.2160    1.2270    9.0110 C.2    92  GLU92       0.3649
    113  OE1       14.6840    1.4480   10.1150 O.co2  92  GLU92      -0.2457
    114  OE2       14.5550    1.0210    7.9690 O.co2  92  GLU92      -0.2457
    115  N         15.1560   -2.9130   11.0530 N.3   136  GLU136     -0.1231
    116  CA        15.2590   -1.6250   11.7960 C.3   136  GLU136      0.1699
    117  C         16.5440   -1.5110   12.5850 C.2   136  GLU136      0.2592
    118  O         16.9350   -0.4190   12.9550 O.2   136  GLU136     -0.2718
    119  CB        14.0870   -1.4550   12.7550 C.3   136  GLU136      0.0402
    120  CG        12.7470   -1.2850   12.0280 C.3   136  GLU136      0.1161
    121  CD        11.9620   -2.6060   11.8680 C.2   136  GLU136      0.3649
    122  OE1       12.5620   -3.6690   11.5640 O.co2 136  GLU136     -0.2457
    123  OE2       10.7320   -2.5670   12.0480 O.co2 136  GLU136     -0.2457
    124  N         17.2100   -2.6510   12.8060 N.am  137  ASN137     -0.1974
    125  CA        18.3500   -2.7870   13.7110 C.3   137  ASN137      0.1688
    126  C         19.6870   -2.9460   13.0040 C.2   137  ASN137      0.2292
    127  O         20.7040   -3.1530   13.6560 O.2   137  ASN137     -0.2864
    128  CB        18.1220   -4.0610   14.5870 C.3   137  ASN137      0.1181
    129  CG        17.0500   -3.8600   15.6010 C.2   137  ASN137      0.2629
    130  OD1       16.5270   -4.8170   16.1700 O.2   137  ASN137     -0.2716
    131  ND2       16.7230   -2.5780   15.8620 N.am  137  ASN137     -0.0877
    132  N         22.1310   -1.0590   10.5650 N.3   139  LEU139     -0.1245
    133  CA        22.3850    0.3450   10.2040 C.3   139  LEU139      0.1561
    134  C         23.7600    0.6070    9.5630 C.2   139  LEU139      0.2260
    135  O         24.7070   -0.1300    9.8500 O.2   139  LEU139     -0.2867
    136  CB        22.2830    1.1770   11.4990 C.3   139  LEU139      0.0270
    137  CG        20.9540    1.6640   12.0760 C.3   139  LEU139      0.0019
    138  CD1       19.6740    1.0550   11.5400 C.3   139  LEU139      0.0001
    139  CD2       20.9650    1.8450   13.6080 C.3   139  LEU139      0.0001
    140  N         22.4860   -3.1010   16.0560 N.3   152  THR152     -0.1203
    141  CA        22.2090   -2.4520   17.3230 C.3   152  THR152      0.1994
    142  C         20.9400   -3.0140   17.9810 C.2   152  THR152      0.2617
    143  O         20.3080   -3.9610   17.4620 O.2   152  THR152     -0.2717
    144  CB        22.1100   -0.8640   17.1770 C.3   152  THR152      0.1784
    145  OG1       22.2830   -0.2770   18.4640 O.3   152  THR152     -0.2211
    146  CG2       20.7690   -0.4640   16.5780 C.3   152  THR152      0.0376
    147  N         20.6340   -2.4390   19.1410 N.am  153  ASP153     -0.1973
    148  CA        19.3970   -2.6260   19.9240 C.3   153  ASP153      0.1709
    149  C         19.3900   -3.9230   20.7220 C.2   153  ASP153      0.2293
    150  O         18.8990   -4.9490   20.2340 O.2   153  ASP153     -0.2864
    151  CB        18.1330   -2.5560   19.0450 C.3   153  ASP153      0.1436
    152  CG        16.8540   -2.5400   19.8580 C.2   153  ASP153      0.3671
    153  OD1       15.7860   -2.3660   19.2620 O.co2 153  ASP153     -0.2456
    154  OD2       16.8980   -2.6990   21.0860 O.co2 153  ASP153     -0.2456
@<TRIPOS>BOND
     1   109   108    2
     2   108   107    1
     3   107   110    1
     4   107   106    1
     5   110   111    1
     6    96    95    2
     7   106   104   am
     8   104   105    2
     9   104   103    1
    10   102   103    1
    11   114   112   ar
    12    95    94    1
    13   111   112    1
    14    98    97    1
    15    98    99    1
    16   112   113   ar
    17   101    99   ar
    18   134   135    2
    19   134   133    1
    20    97    94    1
    21    99   100   ar
    22    94    93    1
    23   133   132    1
    24   133   136    1
    25    93    87   am
    26    88    87    2
    27   115   116    1
    28    87    86    1
    29    40    39    1
    30   136   137    1
    31   138   137    1
    32   122   121   ar
    33   116   117    1
    34   116   119    1
    35   121   120    1
    36   121   123   ar
    37   120   119    1
    38    92    91    1
    39   137   139    1
    40    86    89    1
    41    86    85    1
    42   117   124   am
    43   117   118    2
    44    39    38    1
    45    89    90    1
    46   124   125    1
    47   126   127    2
    48   126   125    1
    49    82    81    2
    50    38    37    1
    51    91    90    1
    52    85    81   am
    53     4     3    2
    54    84    83    1
    55   125   128    1
    56    81    80    1
    57     8     6    1
    58     3     2    1
    59     3     9   am
    60     2     5    1
    61     2     1    1
    62   128   129    1
    63    83    80    1
    64    37    36    1
    65    36    33    1
    66    78    76   ar
    67     5     6    1
    68    80    79    1
    69     6     7    1
    70     9    10    1
    71   129   131   am
    72   129   130    2
    73    61    59    1
    74    10    11    1
    75    76    77   ar
    76    76    75    1
    77    79    72   am
    78   140   141    1
    79    33    32    1
    80    33    34    1
    81    19    18    1
    82    35    34    2
    83    75    74    1
    84   146   144    1
    85    72    73    2
    86    72    71    1
    87    74    71    1
    88    55    56    1
    89    11    13   am
    90    11    12    2
    91    13    14    1
    92    59    56    1
    93    59    60    1
    94    56    57    1
    95   144   141    1
    96   144   145    1
    97   141   142    1
    98   143   142    2
    99    71    70    1
   100    18    17    1
   101    18    20    1
   102    17    14    1
   103    16    15    2
   104   142   147   am
   105    14    15    1
   106    45    42    1
   107    28    27    2
   108    30    29    1
   109    15    21   am
   110    57    58    2
   111    70    64   am
   112    29    31    1
   113    29    26    1
   114    41    42    1
   115    42    43    1
   116   151   152    1
   117   151   148    1
   118   147   148    1
   119    27    26    1
   120   153   152   ar
   121    65    64    2
   122    64    63    1
   123    26    25    1
   124    21    22    1
   125    67    68    1
   126    67    66    1
   127   152   154   ar
   128   148   149    1
   129   150   149    2
   130    68    69    1
   131    66    63    1
   132    22    23    1
   133    43    44    2
   134    63    62    1
   135    23    24    2
   136    54    53    1
   137    53    52    1
   138    52    51    1
   139    46    47    1
   140    50    51    1
   141    50    47    1
   142    47    48    1
   143    48    49    2
