@<TRIPOS>MOLECULE
tmp/3fxxA01.pdb
 151 141 0 0 0
SMALL
GASTEIGER

@<TRIPOS>ATOM
      1  N        -14.9230    0.1640   52.2010 N.3    22  VAL22      -0.1231
      2  CA       -13.4910   -0.0930   52.3370 C.3    22  VAL22       0.1692
      3  C        -12.8980    0.4730   53.6270 C.2    22  VAL22       0.2593
      4  O        -11.7080    0.2990   53.8870 O.2    22  VAL22      -0.2718
      5  CB       -12.6850    0.4490   51.1190 C.3    22  VAL22       0.0266
      6  CG1      -13.2190   -0.1580   49.8170 C.3    22  VAL22       0.0020
      7  CG2      -12.7160    1.9800   51.0690 C.3    22  VAL22       0.0020
      8  N        -13.7090    1.1420   54.4390 N.am   23  GLY23      -0.1942
      9  CA       -13.2110    1.7330   55.6680 C.3    23  GLY23       0.2014
     10  C        -14.2730    2.4710   56.4500 C.2    23  GLY23       0.2639
     11  O        -15.4490    2.5090   56.0620 O.2    23  GLY23      -0.2714
     12  N        -13.8510    3.0510   57.5650 N.am   24  ALA24      -0.1963
     13  CA       -14.7460    3.7950   58.4320 C.3    24  ALA24       0.1728
     14  C        -13.9420    4.9160   59.0430 C.2    24  ALA24       0.2617
     15  O        -12.7700    4.7290   59.3710 O.2    24  ALA24      -0.2715
     16  CB       -15.3120    2.8870   59.5170 C.3    24  ALA24       0.0334
     17  N        -14.5620    6.0830   59.1790 N.am   25  GLY25      -0.1940
     18  CA       -13.8950    7.2290   59.7690 C.3    25  GLY25       0.2014
     19  C        -14.6530    7.8040   60.9390 C.2    25  GLY25       0.2638
     20  O        -15.6680    7.2550   61.3820 O.2    25  GLY25      -0.2714
     21  N        -14.1500    8.9290   61.4340 N.am   26  GLU26      -0.1977
     22  CA       -14.8230    9.6970   62.4800 C.3    26  GLU26       0.1602
     23  C        -16.2730   10.0200   62.1120 C.2    26  GLU26       0.2287
     24  O        -17.1480   10.0220   62.9830 O.2    26  GLU26      -0.2864
     25  CB       -14.0600   11.0100   62.7330 C.3    26  GLU26       0.0415
     26  CG       -14.4800   11.7560   63.9980 C.3    26  GLU26       0.1163
     27  CD       -14.0560   13.2260   63.9970 C.2    26  GLU26       0.3649
     28  OE1      -12.9730   13.5460   63.4470 O.co2  26  GLU26      -0.2457
     29  OE2      -14.8160   14.0580   64.5500 O.co2  26  GLU26      -0.2457
     30  N        -16.5270    4.7600   54.5480 N.3    30  VAL30      -0.1245
     31  CA       -15.7980    5.0650   53.3160 C.3    30  VAL30       0.1561
     32  C        -16.0400    3.9140   52.3420 C.2    30  VAL30       0.2260
     33  O        -15.9160    2.7470   52.7140 O.2    30  VAL30      -0.2867
     34  CB       -14.2770    5.2210   53.5660 C.3    30  VAL30       0.0252
     35  CG1      -13.5500    5.5730   52.2520 C.3    30  VAL30       0.0019
     36  CG2      -14.0120    6.2710   54.6400 C.3    30  VAL30       0.0019
     37  N        -13.1760    7.2030   45.8100 N.3    46  ALA46      -0.1245
     38  CA       -13.5670    6.9020   47.1790 C.3    46  ALA46       0.1562
     39  C        -14.7040    7.8480   47.5280 C.2    46  ALA46       0.2260
     40  O        -14.6940    9.0460   47.1320 O.2    46  ALA46      -0.2867
     41  CB       -12.4050    7.0820   48.1500 C.3    46  ALA46       0.0290
     42  N        -16.9040    9.1510   50.8390 N.3    48  LYS48      -0.1245
     43  CA       -17.0870    9.2620   52.2740 C.3    48  LYS48       0.1561
     44  C        -18.4580    9.8750   52.5360 C.2    48  LYS48       0.2260
     45  O        -18.8060   10.8960   51.9370 O.2    48  LYS48      -0.2867
     46  CB       -16.0010   10.1420   52.8860 C.3    48  LYS48       0.0271
     47  CG       -14.6390    9.4790   52.9450 C.3    48  LYS48       0.0035
     48  CD       -13.5660   10.4510   53.4100 C.3    48  LYS48       0.0206
     49  CE       -13.7800   10.9710   54.8210 C.3    48  LYS48       0.1093
     50  NZ       -12.6360   11.8340   55.2260 N.3    48  LYS48      -0.1314
     51  N         -4.2310   14.3440   47.7480 N.3    78  ILE78      -0.1245
     52  CA        -5.4510   13.6270   47.3510 C.3    78  ILE78       0.1561
     53  C         -6.3990   14.5960   46.6460 C.2    78  ILE78       0.2260
     54  O         -6.6770   15.6910   47.1620 O.2    78  ILE78      -0.2867
     55  CB        -6.1710   12.9500   48.5310 C.3    78  ILE78       0.0252
     56  CG1       -5.3720   11.7400   48.9840 C.3    78  ILE78       0.0019
     57  CG2       -7.5840   12.4910   48.0980 C.3    78  ILE78       0.0019
     58  CD1       -5.3650   10.5610   47.9670 C.3    78  ILE78       0.0001
     59  N        -13.4460   11.5780   46.3620 N.3    94  THR94      -0.1203
     60  CA       -12.0300   11.8080   46.1080 C.3    94  THR94       0.1994
     61  C        -11.4880   10.7370   45.1620 C.2    94  THR94       0.2618
     62  O        -12.1320    9.7110   44.9550 O.2    94  THR94      -0.2717
     63  CB       -11.1860   11.7590   47.4190 C.3    94  THR94       0.1784
     64  OG1      -11.3490   10.4820   48.0430 O.3    94  THR94      -0.2211
     65  CG2      -11.5870   12.8730   48.4050 C.3    94  THR94       0.0376
     66  N        -10.2930   10.9570   44.6090 N.am   95  GLU95      -0.1965
     67  CA        -9.6590    9.9400   43.7610 C.3    95  GLU95       0.1733
     68  C         -9.4730    8.6430   44.5440 C.2    95  GLU95       0.2616
     69  O         -9.2100    8.6890   45.7370 O.2    95  GLU95      -0.2715
     70  CB        -8.3150   10.4300   43.2190 C.3    95  GLU95       0.0429
     71  CG        -7.2510   10.6110   44.2410 C.3    95  GLU95       0.1163
     72  CD        -5.9560   11.1480   43.6230 C.2    95  GLU95       0.3649
     73  OE1       -5.4280   10.5080   42.6700 O.co2  95  GLU95      -0.2457
     74  OE2       -5.4800   12.1900   44.1000 O.co2  95  GLU95      -0.2457
     75  N         -9.6230    7.5060   43.8700 N.am   96  TYR96      -0.1960
     76  CA        -9.4580    6.1980   44.5110 C.3    96  TYR96       0.1771
     77  C         -7.9820    5.8320   44.5850 C.2    96  TYR96       0.2619
     78  O         -7.2480    6.0030   43.6070 O.2    96  TYR96      -0.2715
     79  CB       -10.2170    5.1060   43.7500 C.3    96  TYR96       0.0574
     80  CG       -10.2830    3.7950   44.5020 C.ar   96  TYR96      -0.0198
     81  CD1      -10.8310    3.7480   45.7740 C.ar   96  TYR96      -0.0009
     82  CD2       -9.8230    2.6190   43.9450 C.ar   96  TYR96      -0.0009
     83  CE1      -10.9020    2.5630   46.4980 C.ar   96  TYR96       0.0417
     84  CE2       -9.8950    1.4090   44.6690 C.ar   96  TYR96       0.0417
     85  CZ       -10.4390    1.4010   45.9390 C.ar   96  TYR96       0.1957
     86  OH       -10.5290    0.2220   46.6850 O.3    96  TYR96      -0.2866
     87  N         -7.5810    5.3270   45.7440 N.am   97  MET97      -0.1977
     88  CA        -6.1970    4.9470   46.0260 C.3    97  MET97       0.1605
     89  C         -6.2260    3.4750   46.4070 C.2    97  MET97       0.2287
     90  O         -6.4790    3.1260   47.5520 O.2    97  MET97      -0.2864
     91  CB        -5.6290    5.8100   47.1400 C.3    97  MET97       0.0413
     92  CG        -5.7030    7.3260   46.8320 C.3    97  MET97       0.0598
     93  SD        -4.5770    7.8080   45.5030 S.3    97  MET97      -0.1393
     94  CE        -3.0060    7.7670   46.3560 C.3    97  MET97       0.0692
     95  N         -4.6570    1.8690   49.6430 N.3   100  GLY100     -0.1210
     96  CA        -5.0720    2.3480   50.9560 C.3   100  GLY100      0.1956
     97  C         -4.0320    3.1630   51.7130 C.2   100  GLY100      0.2612
     98  O         -3.2060    3.8680   51.0950 O.2   100  GLY100     -0.2717
     99  N         -4.0470    3.0460   53.0390 N.am  101  SER101     -0.1952
    100  CA        -3.1760    3.8430   53.9100 C.3   101  SER101      0.1924
    101  C         -1.7520    3.2840   53.9090 C.2   101  SER101      0.2314
    102  O         -1.5450    2.0680   54.0430 O.2   101  SER101     -0.2863
    103  CB        -3.7340    3.9040   55.3370 C.3   101  SER101      0.2116
    104  OG        -5.0370    4.4740   55.3520 O.3   101  SER101     -0.2180
    105  N         -0.3230    0.8110   56.7900 N.3   104  SER104     -0.1217
    106  CA        -0.8890   -0.5480   56.7320 C.3   104  SER104      0.1889
    107  C         -0.4600   -1.3080   55.4710 C.2   104  SER104      0.2288
    108  O         -0.3180   -2.5350   55.4970 O.2   104  SER104     -0.2866
    109  CB        -2.4190   -0.5280   56.8600 C.3   104  SER104      0.2089
    110  OG        -3.0310    0.3300   55.9120 O.3   104  SER104     -0.2183
    111  N          0.0550    6.9510   58.2750 N.3   145  ARG145     -0.1231
    112  CA        -1.3740    6.6320   58.2900 C.3   145  ARG145      0.1694
    113  C         -2.2100    7.6610   57.5200 C.2   145  ARG145      0.2592
    114  O         -3.3480    7.3690   57.1510 O.2   145  ARG145     -0.2718
    115  CB        -1.8880    6.5090   59.7290 C.3   145  ARG145      0.0321
    116  CG        -1.8870    7.8110   60.5110 C.3   145  ARG145      0.0489
    117  CD        -2.6470    7.7750   61.8480 C.3   145  ARG145      0.2205
    118  NE        -2.4530    9.0750   62.5050 N.pl3 145  ARG145     -0.0865
    119  CZ        -1.3300    9.4120   63.1260 C.cat 145  ARG145      0.5346
    120  NH1       -1.1650   10.6270   63.6560 N.pl3 145  ARG145      0.1354
    121  NH2       -0.3590    8.5360   63.2200 N.pl3 145  ARG145      0.1354
    122  N         -1.6640    8.8640   57.3130 N.am  146  ASN146     -0.1974
    123  CA        -2.3510    9.9260   56.5950 C.3   146  ASN146      0.1688
    124  C         -1.8340   10.1380   55.1680 C.2   146  ASN146      0.2292
    125  O         -2.1220   11.1460   54.5400 O.2   146  ASN146     -0.2864
    126  CB        -2.2940   11.2170   57.3920 C.3   146  ASN146      0.1181
    127  CG        -3.1390   11.1460   58.6550 C.2   146  ASN146      0.2629
    128  OD1       -4.1070   10.3660   58.7250 O.2   146  ASN146     -0.2716
    129  ND2       -2.7990   11.9640   59.6480 N.am  146  ASN146     -0.0877
    130  N         -2.0290    8.1600   51.4740 N.3   148  LEU148     -0.1245
    131  CA        -2.6940    7.0910   50.7180 C.3   148  LEU148      0.1561
    132  C         -1.8080    6.7360   49.5420 C.2   148  LEU148      0.2260
    133  O         -1.0620    7.5660   49.0400 O.2   148  LEU148     -0.2867
    134  CB        -4.0820    7.5200   50.2410 C.3   148  LEU148      0.0270
    135  CG        -5.1750    7.7280   51.3040 C.3   148  LEU148      0.0019
    136  CD1       -6.3520    8.4650   50.6870 C.3   148  LEU148      0.0001
    137  CD2       -5.6380    6.3800   51.9060 C.3   148  LEU148      0.0001
    138  N         -3.0560   13.1040   52.5990 N.3   158  SER158     -0.1202
    139  CA        -4.4830   13.0480   52.9120 C.3   158  SER158      0.2020
    140  C         -4.6980   13.5810   54.3320 C.2   158  SER158      0.2618
    141  O         -3.7560   14.0170   54.9890 O.2   158  SER158     -0.2717
    142  CB        -4.9790   11.5980   52.7960 C.3   158  SER158      0.2103
    143  OG        -6.3790   11.4700   53.0130 O.3   158  SER158     -0.2182
    144  N         -5.9430   13.5180   54.7910 N.am  159  ASP159     -0.1973
    145  CA        -6.3550   13.8290   56.1570 C.3   159  ASP159      0.1709
    146  C         -5.9840   15.2160   56.6600 C.2   159  ASP159      0.2293
    147  O         -5.0740   15.3970   57.4670 O.2   159  ASP159     -0.2864
    148  CB        -5.8930   12.7630   57.1530 C.3   159  ASP159      0.1436
    149  CG        -6.7050   12.7850   58.4320 C.2   159  ASP159      0.3671
    150  OD1       -7.2390   13.8600   58.7800 O.co2 159  ASP159     -0.2456
    151  OD2       -6.8350   11.7220   59.0690 O.co2 159  ASP159     -0.2456
@<TRIPOS>BOND
     1    73    72   ar
     2    70    67    1
     3    70    71    1
     4    78    77    2
     5    72    74   ar
     6    72    71    1
     7    79    80    1
     8    79    76    1
     9    67    68    1
    10    67    66    1
    11    75    76    1
    12    75    68   am
    13    82    80   ar
    14    82    84   ar
    15    80    81   ar
    16    76    77    1
    17    68    69    2
    18    77    87   am
    19    66    61   am
    20    84    85   ar
    21    62    61    2
    22    61    60    1
    23    93    94    1
    24    93    92    1
    25    87    88    1
    26    81    83   ar
    27    37    38    1
    28    85    83   ar
    29    85    86    1
    30    88    89    1
    31    88    91    1
    32    60    59    1
    33    60    63    1
    34    89    90    2
    35    53    54    2
    36    53    52    1
    37    92    91    1
    38    40    39    2
    39    38    39    1
    40    38    41    1
    41    52    51    1
    42    52    55    1
    43    63    64    1
    44    63    65    1
    45    58    56    1
    46    57    55    1
    47    55    56    1
    48   133   132    2
    49   132   131    1
    50    95    96    1
    51     6     5    1
    52   134   131    1
    53   134   135    1
    54   136   135    1
    55   131   130    1
    56    42    43    1
    57    96    97    1
    58     7     5    1
    59    98    97    2
    60     5     2    1
    61   135   137    1
    62    97    99   am
    63    45    44    2
    64     1     2    1
    65    35    34    1
    66    43    44    1
    67    43    46    1
    68     2     3    1
    69    32    33    2
    70    32    31    1
    71   138   139    1
    72   142   139    1
    73   142   143    1
    74    46    47    1
    75   139   140    1
    76    47    48    1
    77    99   100    1
    78    31    34    1
    79    31    30    1
    80    48    49    1
    81    34    36    1
    82     3     4    2
    83     3     8   am
    84   101   100    1
    85   101   102    2
    86   100   103    1
    87   140   144   am
    88   140   141    2
    89     8     9    1
    90   125   124    2
    91   144   145    1
    92    49    50    1
    93   124   123    1
    94   103   104    1
    95   107   108    2
    96   107   106    1
    97     9    10    1
    98   110   109    1
    99    11    10    2
   100   145   146    1
   101   145   148    1
   102    10    12   am
   103   123   122    1
   104   123   126    1
   105   146   147    2
   106   106   105    1
   107   106   109    1
   108   114   113    2
   109   148   149    1
   110   122   113   am
   111   126   127    1
   112   113   112    1
   113    12    13    1
   114   111   112    1
   115   112   115    1
   116   149   150   ar
   117   149   151   ar
   118    13    14    1
   119    13    16    1
   120   127   128    2
   121   127   129   am
   122    14    17   am
   123    14    15    2
   124    17    18    1
   125   115   116    1
   126    18    19    1
   127   116   117    1
   128    19    20    2
   129    19    21   am
   130    21    22    1
   131   117   118    1
   132    23    22    1
   133    23    24    2
   134    22    25    1
   135   118   119    2
   136    25    26    1
   137   119   121    1
   138   119   120    1
   139    28    27   ar
   140    27    26    1
   141    27    29   ar
