@<TRIPOS>MOLECULE
tmp/3fy0A00.pdb
 105 97 0 0 0
SMALL
GASTEIGER

@<TRIPOS>ATOM
      1  N         11.1820    8.2520   42.1310 N.3    28  ILE28      -0.1245
      2  CA        10.4210    9.4220   41.6960 C.3    28  ILE28       0.1561
      3  C         11.1840   10.3350   40.7210 C.2    28  ILE28       0.2260
      4  O         10.5710   11.1210   40.0090 O.2    28  ILE28      -0.2867
      5  CB         9.8270   10.2410   42.9040 C.3    28  ILE28       0.0252
      6  CG1       10.9320   10.7820   43.8170 C.3    28  ILE28       0.0019
      7  CG2        8.8310    9.3870   43.7050 C.3    28  ILE28       0.0019
      8  CD1       10.4900   11.9080   44.7440 C.3    28  ILE28       0.0001
      9  N         16.2070    9.5860   42.7770 N.3    36  VAL36      -0.1245
     10  CA        15.4610   10.0170   43.9560 C.3    36  VAL36       0.1561
     11  C         14.3310    9.0280   44.2400 C.2    36  VAL36       0.2260
     12  O         13.7080    8.5130   43.3150 O.2    36  VAL36      -0.2867
     13  CB        14.9340   11.4430   43.7790 C.3    36  VAL36       0.0252
     14  CG1       14.2470   11.9270   45.0390 C.3    36  VAL36       0.0019
     15  CG2       16.0760   12.3700   43.4320 C.3    36  VAL36       0.0019
     16  N         12.1780   11.5090   51.5200 N.3    49  ALA49      -0.1245
     17  CA        12.7860   11.5570   50.1880 C.3    49  ALA49       0.1562
     18  C         14.2400   11.1350   50.3170 C.2    49  ALA49       0.2260
     19  O         14.9620   11.6880   51.1320 O.2    49  ALA49      -0.2867
     20  CB        12.6970   12.9820   49.6180 C.3    49  ALA49       0.0290
     21  N         17.9670   10.5050   48.2790 N.3    51  ARG51      -0.1245
     22  CA        18.8090   10.6910   47.1050 C.3    51  ARG51       0.1563
     23  C         19.8450    9.5850   47.1000 C.2    51  ARG51       0.2260
     24  O         20.5520    9.3870   48.0900 O.2    51  ARG51      -0.2867
     25  CB        19.5610   12.0260   47.1890 C.3    51  ARG51       0.0307
     26  CG        18.7260   13.2820   46.9690 C.3    51  ARG51       0.0489
     27  CD        19.6230   14.4620   46.5560 C.3    51  ARG51       0.2205
     28  NE        20.1600   15.1900   47.7080 N.pl3  51  ARG51      -0.0865
     29  CZ        21.1310   16.1050   47.6410 C.cat  51  ARG51       0.5346
     30  NH1       21.6930   16.4170   46.4810 N.pl3  51  ARG51       0.1354
     31  NH2       21.5430   16.7190   48.7430 N.pl3  51  ARG51       0.1354
     32  N         13.3200   22.2880   53.9780 N.3    80  VAL80      -0.1245
     33  CA        13.1490   20.8520   53.8060 C.3    80  VAL80       0.1561
     34  C         14.3840   20.2390   54.4810 C.2    80  VAL80       0.2260
     35  O         15.4550   20.2020   53.8730 O.2    80  VAL80      -0.2867
     36  CB        13.0720   20.4420   52.2910 C.3    80  VAL80       0.0252
     37  CG1       12.7980   18.9400   52.1450 C.3    80  VAL80       0.0019
     38  CG2       12.0100   21.1960   51.5770 C.3    80  VAL80       0.0019
     39  N         15.9350   12.9470   53.2050 N.3    96  MET96      -0.1230
     40  CA        15.3420   14.2600   53.3770 C.3    96  MET96       0.1702
     41  C         13.8650   14.1480   53.7170 C.2    96  MET96       0.2592
     42  O         13.2170   13.1240   53.4610 O.2    96  MET96      -0.2718
     43  CB        15.4710   15.0970   52.0890 C.3    96  MET96       0.0401
     44  CG        16.8880   15.3230   51.5580 C.3    96  MET96       0.0596
     45  SD        17.9950   16.1880   52.6860 S.3    96  MET96      -0.1393
     46  CE        17.3080   17.8620   52.5190 C.3    96  MET96       0.0692
     47  N         13.3430   15.2330   54.2790 N.am   97  GLU97      -0.1966
     48  CA        11.9190   15.4020   54.4410 C.3    97  GLU97       0.1733
     49  C         11.3100   15.4300   53.0490 C.2    97  GLU97       0.2616
     50  O         11.9260   15.9010   52.1040 O.2    97  GLU97      -0.2715
     51  CB        11.6190   16.7040   55.1840 C.3    97  GLU97       0.0429
     52  CG        12.4320   16.9020   56.4700 C.3    97  GLU97       0.1163
     53  CD        12.0260   18.1560   57.2570 C.2    97  GLU97       0.3649
     54  OE1       11.5500   19.1470   56.6410 O.co2  97  GLU97      -0.2457
     55  OE2       12.1900   18.1450   58.5000 O.co2  97  GLU97      -0.2457
     56  N         10.1110   14.8850   52.9310 N.am   98  TYR98      -0.1960
     57  CA         9.4100   14.8280   51.6670 C.3    98  TYR98       0.1771
     58  C          8.1270   15.6580   51.7340 C.2    98  TYR98       0.2619
     59  O          7.3610   15.5590   52.6960 O.2    98  TYR98      -0.2715
     60  CB         9.0940   13.3700   51.2760 C.3    98  TYR98       0.0574
     61  CG         8.1900   13.2730   50.0680 C.ar   98  TYR98      -0.0198
     62  CD1        8.6020   13.7630   48.8210 C.ar   98  TYR98      -0.0009
     63  CD2        6.9210   12.7070   50.1610 C.ar   98  TYR98      -0.0009
     64  CE1        7.7780   13.6930   47.6930 C.ar   98  TYR98       0.0417
     65  CE2        6.0810   12.6290   49.0350 C.ar   98  TYR98       0.0417
     66  CZ         6.5240   13.1210   47.8070 C.ar   98  TYR98       0.1957
     67  OH         5.7120   13.0570   46.6920 O.3    98  TYR98      -0.2866
     68  N          7.9150   16.4810   50.7120 N.am   99  LEU99      -0.1963
     69  CA         6.6980   17.3020   50.6120 C.3    99  LEU99       0.1728
     70  C          5.9340   16.8920   49.3680 C.2    99  LEU99       0.2616
     71  O          6.4950   16.8680   48.2730 O.2    99  LEU99      -0.2715
     72  CB         7.0400   18.7890   50.5960 C.3    99  LEU99       0.0311
     73  CG         7.4900   19.3800   51.9390 C.3    99  LEU99       0.0022
     74  CD1        7.9360   20.8140   51.7230 C.3    99  LEU99       0.0001
     75  CD2        6.3890   19.3400   53.0210 C.3    99  LEU99       0.0001
     76  N          4.6610   16.5440   49.5450 N.am  100  ALA100     -0.1977
     77  CA         3.9060   15.8620   48.4940 C.3   100  ALA100      0.1597
     78  C          3.2640   16.8150   47.4930 C.2   100  ALA100      0.2287
     79  O          2.7800   16.3690   46.4500 O.2   100  ALA100     -0.2864
     80  CB         2.8520   14.9370   49.1020 C.3   100  ALA100      0.0319
     81  N          4.4820   19.2550   45.4880 N.3   102  GLY102     -0.1210
     82  CA         5.3220   19.8120   44.4250 C.3   102  GLY102      0.1956
     83  C          5.9850   21.1550   44.6910 C.2   102  GLY102      0.2612
     84  O          5.9800   21.6600   45.8040 O.2   102  GLY102     -0.2717
     85  N          6.5790   21.7170   43.6410 N.am  103  SER103     -0.1952
     86  CA         7.2930   22.9750   43.6990 C.3   103  SER103      0.1924
     87  C          6.3800   24.1630   43.4480 C.2   103  SER103      0.2314
     88  O          5.3120   24.0190   42.8790 O.2   103  SER103     -0.2863
     89  CB         8.4260   22.9790   42.6720 C.3   103  SER103      0.2116
     90  OG         7.9000   22.9740   41.3590 O.3   103  SER103     -0.2180
     91  N          9.4880   23.9860   47.9550 N.3   148  LEU148     -0.1245
     92  CA         8.5820   22.8500   47.9530 C.3   148  LEU148      0.1561
     93  C          7.4000   23.1000   48.8540 C.2   148  LEU148      0.2260
     94  O          7.5330   23.7240   49.8940 O.2   148  LEU148     -0.2867
     95  CB         9.2670   21.5530   48.3690 C.3   148  LEU148      0.0270
     96  CG        10.4570   21.0640   47.5670 C.3   148  LEU148      0.0019
     97  CD1       10.6450   19.5860   47.8650 C.3   148  LEU148      0.0001
     98  CD2       10.2860   21.3000   46.1030 C.3   148  LEU148      0.0001
     99  N         14.4370   24.4310   49.6520 N.3   158  THR158     -0.1218
    100  CA        15.2620   23.2700   49.4340 C.3   158  THR158      0.1862
    101  C         16.4510   23.5920   48.5330 C.2   158  THR158      0.2287
    102  O         16.7740   24.7790   48.3120 O.2   158  THR158     -0.2866
    103  CB        14.4430   22.0490   48.9460 C.3   158  THR158      0.1770
    104  OG1       15.2460   20.8620   49.0540 O.3   158  THR158     -0.2211
    105  CG2       13.9100   22.2350   47.5060 C.3   158  THR158      0.0375
@<TRIPOS>BOND
     1     4     3    2
     2     3     2    1
     3    90    89    1
     4     2     1    1
     5     2     5    1
     6    89    86    1
     7     9    10    1
     8    88    87    2
     9     5     7    1
    10     5     6    1
    11    12    11    2
    12    15    13    1
    13    87    86    1
    14    85    86    1
    15    85    83   am
    16    13    10    1
    17    13    14    1
    18     6     8    1
    19    10    11    1
    20    82    83    1
    21    82    81    1
    22    83    84    2
    23    98    96    1
    24    79    78    2
    25    30    29    1
    26    27    26    1
    27    27    28    1
    28    67    66    1
    29    26    25    1
    30    23    22    1
    31    23    24    2
    32    22    25    1
    33    22    21    1
    34    78    77    1
    35   105   103    1
    36    96    97    1
    37    96    95    1
    38    29    28    2
    39    29    31    1
    40    64    66   ar
    41    64    62   ar
    42    66    65   ar
    43    92    91    1
    44    92    95    1
    45    92    93    1
    46    71    70    2
    47   102   101    2
    48    77    80    1
    49    77    76    1
    50   101   100    1
    51    62    61   ar
    52    93    94    2
    53   103   104    1
    54   103   100    1
    55    65    63   ar
    56    70    76   am
    57    70    69    1
    58   100    99    1
    59    20    17    1
    60    61    63   ar
    61    61    60    1
    62    17    18    1
    63    17    16    1
    64    18    19    2
    65    72    69    1
    66    72    73    1
    67    69    68    1
    68    68    58   am
    69    60    57    1
    70    44    43    1
    71    44    45    1
    72    38    36    1
    73    57    58    1
    74    57    56    1
    75    74    73    1
    76    58    59    2
    77    73    75    1
    78    43    40    1
    79    50    49    2
    80    37    36    1
    81    36    33    1
    82    46    45    1
    83    56    49   am
    84    49    48    1
    85    39    40    1
    86    40    41    1
    87    42    41    2
    88    41    47   am
    89    33    32    1
    90    33    34    1
    91    35    34    2
    92    47    48    1
    93    48    51    1
    94    51    52    1
    95    52    53    1
    96    54    53   ar
    97    53    55   ar
