@<TRIPOS>MOLECULE
tmp/3fy1A01.pdb
 136 135 0 0 0
SMALL
GASTEIGER

@<TRIPOS>ATOM
      1  N          7.1520   55.1990   62.6960 N.3    10  TRP10      -0.1241
      2  CA         6.2180   55.8150   61.7470 C.3    10  TRP10       0.1605
      3  C          5.6950   57.1790   62.2140 C.2    10  TRP10       0.2264
      4  O          5.0380   57.8880   61.4540 O.2    10  TRP10      -0.2867
      5  CB         5.0540   54.8690   61.4150 C.3    10  TRP10       0.0550
      6  CG         4.2300   54.4320   62.6010 C.ar   10  TRP10       0.0003
      7  CD1        3.0960   55.0250   63.0840 C.ar   10  TRP10       0.0946
      8  CD2        4.4720   53.2910   63.4320 C.ar   10  TRP10       0.0152
      9  NE1        2.6180   54.3260   64.1770 N.ar   10  TRP10      -0.2442
     10  CE2        3.4480   53.2590   64.4120 C.ar   10  TRP10       0.0810
     11  CE3        5.4610   52.2950   63.4490 C.ar   10  TRP10       0.0012
     12  CZ2        3.3830   52.2650   65.3970 C.ar   10  TRP10       0.0191
     13  CZ3        5.3960   51.3040   64.4300 C.ar   10  TRP10       0.0001
     14  CH2        4.3620   51.3000   65.3900 C.ar   10  TRP10       0.0015
     15  N          4.0320   62.0240   60.5400 N.3    14  ARG14      -0.1245
     16  CA         2.8800   62.8170   60.9600 C.3    14  ARG14       0.1563
     17  C          3.1030   64.2870   60.6070 C.2    14  ARG14       0.2260
     18  O          4.2380   64.7670   60.6640 O.2    14  ARG14      -0.2867
     19  CB         2.6160   62.6250   62.4570 C.3    14  ARG14       0.0307
     20  CG         2.2530   61.1910   62.7930 C.3    14  ARG14       0.0489
     21  CD         2.0400   60.9450   64.2730 C.3    14  ARG14       0.2205
     22  NE         1.7280   59.5310   64.4710 N.pl3  14  ARG14      -0.0865
     23  CZ         2.0740   58.8080   65.5330 C.cat  14  ARG14       0.5346
     24  NH1        2.7530   59.3530   66.5360 N.pl3  14  ARG14       0.1354
     25  NH2        1.7430   57.5200   65.5810 N.pl3  14  ARG14       0.1354
     26  N          9.3670   49.3560   64.9720 N.3    37  PHE37      -0.1241
     27  CA         9.6240   47.9190   65.1270 C.3    37  PHE37       0.1605
     28  C         10.7370   47.4800   64.1770 C.2    37  PHE37       0.2264
     29  O         10.9760   48.1310   63.1510 O.2    37  PHE37      -0.2867
     30  CB         8.3890   47.1010   64.7190 C.3    37  PHE37       0.0534
     31  CG         7.2830   47.0930   65.7330 C.ar   37  PHE37      -0.0203
     32  CD1        6.0570   47.6900   65.4370 C.ar   37  PHE37      -0.0042
     33  CD2        7.4560   46.4790   66.9730 C.ar   37  PHE37      -0.0042
     34  CE1        5.0140   47.6860   66.3700 C.ar   37  PHE37      -0.0003
     35  CE2        6.4240   46.4650   67.9130 C.ar   37  PHE37      -0.0003
     36  CZ         5.2000   47.0710   67.6120 C.ar   37  PHE37      -0.0000
     37  N          8.4040   42.7230   65.5440 N.3    76  GLY76      -0.1210
     38  CA         7.0580   42.2310   65.2740 C.3    76  GLY76       0.1956
     39  C          5.9940   43.3070   65.2890 C.2    76  GLY76       0.2612
     40  O          6.0200   44.2420   64.4740 O.2    76  GLY76      -0.2717
     41  N          5.0540   43.1710   66.2230 N.am   77  GLY77      -0.1942
     42  CA         3.9000   44.0640   66.3000 C.3    77  GLY77       0.2014
     43  C          2.6330   43.4130   65.7680 C.2    77  GLY77       0.2639
     44  O          2.6830   42.3670   65.1070 O.2    77  GLY77      -0.2714
     45  N          1.4950   44.0450   66.0500 N.am   78  TRP78      -0.1959
     46  CA         0.1940   43.5470   65.5960 C.3    78  TRP78       0.1771
     47  C          0.1470   43.2900   64.0790 C.2    78  TRP78       0.2620
     48  O         -0.2280   42.1990   63.6290 O.2    78  TRP78      -0.2715
     49  CB        -0.9060   44.5300   66.0150 C.3    78  TRP78       0.0590
     50  CG        -2.2760   44.1400   65.5440 C.ar   78  TRP78       0.0006
     51  CD1       -2.9350   44.6280   64.4530 C.ar   78  TRP78       0.0946
     52  CD2       -3.1520   43.1790   66.1460 C.ar   78  TRP78       0.0152
     53  NE1       -4.1680   44.0340   64.3390 N.ar   78  TRP78      -0.2442
     54  CE2       -4.3290   43.1410   65.3650 C.ar   78  TRP78       0.0810
     55  CE3       -3.0630   42.3530   67.2760 C.ar   78  TRP78       0.0012
     56  CZ2       -5.4100   42.3060   65.6720 C.ar   78  TRP78       0.0191
     57  CZ3       -4.1360   41.5150   67.5770 C.ar   78  TRP78       0.0001
     58  CH2       -5.2950   41.5020   66.7790 C.ar   78  TRP78       0.0015
     59  N          0.5490   44.2860   63.2960 N.am   79  ASN79      -0.1958
     60  CA         0.4670   44.2020   61.8310 C.3    79  ASN79       0.1819
     61  C          1.4570   43.2090   61.2140 C.2    79  ASN79       0.2621
     62  O          1.3160   42.8240   60.0530 O.2    79  ASN79      -0.2715
     63  CB         0.6590   45.5850   61.1980 C.3    79  ASN79       0.1195
     64  CG        -0.5200   46.5180   61.4420 C.2    79  ASN79       0.2630
     65  OD1       -1.6010   46.0870   61.8650 O.2    79  ASN79      -0.2716
     66  ND2       -0.3200   47.8060   61.1610 N.am   79  ASN79      -0.0877
     67  N          2.4600   42.8070   61.9890 N.am   80  PHE80      -0.1974
     68  CA         3.4660   41.8630   61.5160 C.3    80  PHE80       0.1639
     69  C          2.8590   40.4680   61.3660 C.2    80  PHE80       0.2290
     70  O          3.2960   39.6770   60.5360 O.2    80  PHE80      -0.2864
     71  CB         4.6400   41.8400   62.4920 C.3    80  PHE80       0.0560
     72  CG         5.8310   41.0390   62.0260 C.ar   80  PHE80      -0.0200
     73  CD1        6.7400   41.5750   61.1160 C.ar   80  PHE80      -0.0042
     74  CD2        6.0690   39.7640   62.5370 C.ar   80  PHE80      -0.0042
     75  CE1        7.8540   40.8420   60.7060 C.ar   80  PHE80      -0.0003
     76  CE2        7.1790   39.0190   62.1300 C.ar   80  PHE80      -0.0003
     77  CZ         8.0720   39.5620   61.2140 C.ar   80  PHE80      -0.0000
     78  N         -6.3980   48.2750   74.7520 N.3   192  ASP192     -0.1239
     79  CA        -7.2790   47.7620   73.6850 C.3   192  ASP192      0.1674
     80  C         -8.2600   46.7280   74.2420 C.2   192  ASP192      0.2266
     81  O         -8.6340   45.7660   73.5610 O.2   192  ASP192     -0.2867
     82  CB        -6.4800   47.1710   72.5130 C.3   192  ASP192      0.1410
     83  CG        -5.4300   48.1260   71.9780 C.2   192  ASP192      0.3668
     84  OD1       -5.7450   49.3210   71.7590 O.co2 192  ASP192     -0.2456
     85  OD2       -4.2860   47.6720   71.7740 O.co2 192  ASP192     -0.2456
     86  N         -3.0680   56.8810   74.3550 N.3   246  TYR246     -0.1241
     87  CA        -4.0470   57.0450   73.2860 C.3   246  TYR246      0.1605
     88  C         -5.3790   56.4700   73.7450 C.2   246  TYR246      0.2264
     89  O         -5.4290   55.6990   74.7060 O.2   246  TYR246     -0.2867
     90  CB        -3.5940   56.3220   72.0080 C.3   246  TYR246      0.0534
     91  CG        -3.5960   54.8070   72.1380 C.ar  246  TYR246     -0.0201
     92  CD1       -4.7200   54.0520   71.7820 C.ar  246  TYR246     -0.0009
     93  CD2       -2.4760   54.1340   72.6270 C.ar  246  TYR246     -0.0009
     94  CE1       -4.7220   52.6560   71.9140 C.ar  246  TYR246      0.0417
     95  CE2       -2.4690   52.7610   72.7670 C.ar  246  TYR246      0.0417
     96  CZ        -3.5890   52.0280   72.4110 C.ar  246  TYR246      0.1957
     97  OH        -3.5650   50.6690   72.5440 O.3   246  TYR246     -0.2866
     98  N         -5.1160   57.5390   62.4600 N.3   276  GLU276     -0.1245
     99  CA        -5.4470   56.1590   62.7700 C.3   276  GLU276      0.1567
    100  C         -6.9310   56.0260   63.0540 C.2   276  GLU276      0.2260
    101  O         -7.4380   56.5600   64.0470 O.2   276  GLU276     -0.2867
    102  CB        -4.6170   55.6640   63.9620 C.3   276  GLU276      0.0388
    103  CG        -3.1060   55.7750   63.7290 C.3   276  GLU276      0.1160
    104  CD        -2.2600   55.3160   64.9030 C.2   276  GLU276      0.3649
    105  OE1       -2.6950   54.4190   65.6580 O.co2 276  GLU276     -0.2457
    106  OE2       -1.1430   55.8560   65.0640 O.co2 276  GLU276     -0.2457
    107  N         -8.7870   55.6070   66.6130 N.3   279  ILE279     -0.1245
    108  CA        -7.7440   55.8700   67.6090 C.3   279  ILE279      0.1561
    109  C         -7.4260   57.3630   67.6400 C.2   279  ILE279      0.2260
    110  O         -7.2390   57.9750   66.5850 O.2   279  ILE279     -0.2867
    111  CB        -6.4190   55.1000   67.2690 C.3   279  ILE279      0.0252
    112  CG1       -6.6200   53.5750   67.2790 C.3   279  ILE279      0.0019
    113  CG2       -5.2670   55.5200   68.1940 C.3   279  ILE279      0.0019
    114  CD1       -6.8450   52.9810   68.6390 C.3   279  ILE279      0.0001
    115  N          2.7700   52.8630   75.7650 N.3   339  TRP339     -0.1241
    116  CA         2.5820   52.9230   74.3300 C.3   339  TRP339      0.1605
    117  C          1.7220   54.1490   74.0200 C.2   339  TRP339      0.2264
    118  O          0.5430   54.1490   74.3560 O.2   339  TRP339     -0.2867
    119  CB         1.8920   51.6550   73.7970 C.3   339  TRP339      0.0550
    120  CG         1.8620   51.6640   72.3050 C.ar  339  TRP339      0.0003
    121  CD1        0.9610   52.3060   71.4970 C.ar  339  TRP339      0.0946
    122  CD2        2.8160   51.0550   71.4350 C.ar  339  TRP339      0.0152
    123  NE1        1.2880   52.1130   70.1750 N.ar  339  TRP339     -0.2442
    124  CE2        2.4220   51.3490   70.1090 C.ar  339  TRP339      0.0810
    125  CE3        3.9540   50.2680   71.6450 C.ar  339  TRP339      0.0012
    126  CZ2        3.1320   50.8870   68.9960 C.ar  339  TRP339      0.0191
    127  CZ3        4.6620   49.8090   70.5380 C.ar  339  TRP339      0.0001
    128  CH2        4.2430   50.1170   69.2310 C.ar  339  TRP339      0.0015
    129  N          2.8160   59.5920   71.3090 N.3   343  LEU343     -0.1245
    130  CA         1.3690   59.8520   71.3910 C.3   343  LEU343      0.1561
    131  C          0.9800   60.7080   72.6120 C.2   343  LEU343      0.2260
    132  O         -0.1300   61.2540   72.6730 O.2   343  LEU343     -0.2867
    133  CB         0.5730   58.5420   71.3540 C.3   343  LEU343      0.0270
    134  CG         0.7520   57.6560   70.1050 C.3   343  LEU343      0.0019
    135  CD1        0.1090   56.2940   70.3150 C.3   343  LEU343      0.0001
    136  CD2        0.1900   58.3210   68.8460 C.3   343  LEU343      0.0001
@<TRIPOS>BOND
     1    62    61    2
     2    70    69    2
     3    15    16    1
     4    17    18    2
     5    17    16    1
     6    75    73   ar
     7    75    77   ar
     8    16    19    1
     9    73    72   ar
    10    66    64   am
    11    63    64    1
    12    63    60    1
    13    61    60    1
    14    61    67   am
    15    77    76   ar
    16    69    68    1
    17     5     2    1
    18     5     6    1
    19    64    65    2
    20     4     3    2
    21    68    67    1
    22    68    71    1
    23     2     3    1
    24     2     1    1
    25    60    59    1
    26    72    71    1
    27    72    74   ar
    28    76    74   ar
    29    19    20    1
    30    98    99    1
    31     6     7   ar
    32     6     8   ar
    33    99   100    1
    34    99   102    1
    35    20    21    1
    36   100   101    2
    37     7     9   ar
    38    29    28    2
    39    59    47   am
    40     8    11   ar
    41     8    10   ar
    42    11    13   ar
    43    48    47    2
    44   103   102    1
    45   103   104    1
    46    47    46    1
    47     9    10   ar
    48    28    27    1
    49    21    22    1
    50    53    51   ar
    51    53    54   ar
    52    10    12   ar
    53    13    14   ar
    54    51    50   ar
    55    22    23    2
    56    40    39    2
    57    30    27    1
    58    30    31    1
    59   104   106   ar
    60   104   105   ar
    61    26    27    1
    62    44    43    2
    63    38    39    1
    64    38    37    1
    65    39    41   am
    66    54    56   ar
    67    54    52   ar
    68    14    12   ar
    69    32    31   ar
    70    32    34   ar
    71    23    25    1
    72    23    24    1
    73    50    49    1
    74    50    52   ar
    75    46    49    1
    76    46    45    1
    77    56    58   ar
    78    31    33   ar
    79    43    45   am
    80    43    42    1
    81    52    55   ar
    82    41    42    1
    83    34    36   ar
    84   110   109    2
    85   107   108    1
    86    58    57   ar
    87    33    35   ar
    88   111   112    1
    89   111   108    1
    90   111   113    1
    91    55    57   ar
    92   112   114    1
    93   108   109    1
    94    36    35   ar
    95   136   134    1
    96   126   128   ar
    97   126   124   ar
    98   128   127   ar
    99   134   135    1
   100   134   133    1
   101   124   123   ar
   102   124   122   ar
   103   123   121   ar
   104   127   125   ar
   105   129   130    1
   106   133   130    1
   107   130   131    1
   108   122   125   ar
   109   122   120   ar
   110   121   120   ar
   111    84    83   ar
   112    85    83   ar
   113    92    94   ar
   114    92    91   ar
   115    94    96   ar
   116    83    82    1
   117    90    91    1
   118    90    87    1
   119    91    93   ar
   120   120   119    1
   121    96    97    1
   122    96    95   ar
   123    82    79    1
   124   131   132    2
   125    93    95   ar
   126    87    88    1
   127    87    86    1
   128    81    80    2
   129    79    80    1
   130    79    78    1
   131    88    89    2
   132   119   116    1
   133   117   116    1
   134   117   118    2
   135   116   115    1
