@<TRIPOS>MOLECULE
tmp/3fy1A00.pdb
 99 97 0 0 0
SMALL
GASTEIGER

@<TRIPOS>ATOM
      1  N          8.6370   54.0480   64.7750 N.3     9  ASN9       -0.1225
      2  CA         9.3420   54.5800   63.5970 C.3     9  ASN9        0.1785
      3  C          8.4610   55.1340   62.4620 C.2     9  ASN9        0.2597
      4  O          8.9720   55.4800   61.3930 O.2     9  ASN9       -0.2718
      5  CB        10.3960   53.5880   63.0690 C.3     9  ASN9        0.1169
      6  CG         9.7920   52.3020   62.5150 C.2     9  ASN9        0.2627
      7  OD1        8.5780   52.0960   62.5440 O.2     9  ASN9       -0.2716
      8  ND2       10.6560   51.4220   62.0040 N.am    9  ASN9       -0.0877
      9  N          7.1520   55.1990   62.6960 N.am   10  TRP10      -0.1976
     10  CA         6.2180   55.8150   61.7470 C.3    10  TRP10       0.1640
     11  C          5.6950   57.1790   62.2140 C.2    10  TRP10       0.2290
     12  O          5.0380   57.8880   61.4540 O.2    10  TRP10      -0.2864
     13  CB         5.0540   54.8690   61.4150 C.3    10  TRP10       0.0576
     14  CG         4.2300   54.4320   62.6010 C.ar   10  TRP10       0.0006
     15  CD1        3.0960   55.0250   63.0840 C.ar   10  TRP10       0.0946
     16  CD2        4.4720   53.2910   63.4320 C.ar   10  TRP10       0.0152
     17  NE1        2.6180   54.3260   64.1770 N.ar   10  TRP10      -0.2442
     18  CE2        3.4480   53.2590   64.4120 C.ar   10  TRP10       0.0810
     19  CE3        5.4610   52.2950   63.4490 C.ar   10  TRP10       0.0012
     20  CZ2        3.3830   52.2650   65.3970 C.ar   10  TRP10       0.0191
     21  CZ3        5.3960   51.3040   64.4300 C.ar   10  TRP10       0.0001
     22  CH2        4.3620   51.3000   65.3900 C.ar   10  TRP10       0.0015
     23  N          6.2550   60.4840   60.1320 N.3    13  TYR13      -0.1241
     24  CA         5.4550   60.8600   58.9590 C.3    13  TYR13       0.1605
     25  C          4.2430   61.7310   59.2610 C.2    13  TYR13       0.2264
     26  O          3.5230   62.1380   58.3440 O.2    13  TYR13      -0.2867
     27  CB         5.0290   59.6160   58.1710 C.3    13  TYR13       0.0534
     28  CG         6.2030   58.7880   57.7160 C.ar   13  TYR13      -0.0201
     29  CD1        7.1910   59.3460   56.9050 C.ar   13  TYR13      -0.0009
     30  CD2        6.3380   57.4560   58.1030 C.ar   13  TYR13      -0.0009
     31  CE1        8.2790   58.6070   56.4870 C.ar   13  TYR13       0.0417
     32  CE2        7.4260   56.6970   57.6820 C.ar   13  TYR13       0.0417
     33  CZ         8.3930   57.2790   56.8760 C.ar   13  TYR13       0.1957
     34  OH         9.4730   56.5490   56.4500 O.3    13  TYR13      -0.2866
     35  N          9.3670   49.3560   64.9720 N.3    37  PHE37      -0.1241
     36  CA         9.6240   47.9190   65.1270 C.3    37  PHE37       0.1605
     37  C         10.7370   47.4800   64.1770 C.2    37  PHE37       0.2264
     38  O         10.9760   48.1310   63.1510 O.2    37  PHE37      -0.2867
     39  CB         8.3890   47.1010   64.7190 C.3    37  PHE37       0.0534
     40  CG         7.2830   47.0930   65.7330 C.ar   37  PHE37      -0.0203
     41  CD1        6.0570   47.6900   65.4370 C.ar   37  PHE37      -0.0042
     42  CD2        7.4560   46.4790   66.9730 C.ar   37  PHE37      -0.0042
     43  CE1        5.0140   47.6860   66.3700 C.ar   37  PHE37      -0.0003
     44  CE2        6.4240   46.4650   67.9130 C.ar   37  PHE37      -0.0003
     45  CZ         5.2000   47.0710   67.6120 C.ar   37  PHE37      -0.0000
     46  N         12.7800   47.9940   58.9050 N.3    48  ILE48      -0.1231
     47  CA        11.5400   48.0740   58.1170 C.3    48  ILE48       0.1692
     48  C         11.3080   49.4380   57.4430 C.2    48  ILE48       0.2591
     49  O         10.6600   49.5030   56.3970 O.2    48  ILE48      -0.2718
     50  CB        10.2740   47.6220   58.9160 C.3    48  ILE48       0.0266
     51  CG1        9.9790   48.5730   60.0890 C.3    48  ILE48       0.0019
     52  CG2       10.4150   46.1520   59.3650 C.3    48  ILE48       0.0020
     53  CD1        8.6840   48.2470   60.8400 C.3    48  ILE48       0.0001
     54  N         11.8280   50.5120   58.0400 N.am   49  GLU49      -0.1979
     55  CA        11.7740   51.8380   57.4100 C.3    49  GLU49       0.1602
     56  C         13.1160   52.1650   56.7730 C.2    49  GLU49       0.2287
     57  O         14.1700   51.7600   57.2740 O.2    49  GLU49      -0.2864
     58  CB        11.3890   52.9370   58.4080 C.3    49  GLU49       0.0415
     59  CG         9.9640   52.8440   58.9760 C.3    49  GLU49       0.1163
     60  CD         8.8690   53.3230   58.0110 C.2    49  GLU49       0.3649
     61  OE1        7.6780   53.2160   58.3750 O.co2  49  GLU49      -0.2457
     62  OE2        9.1800   53.8000   56.8990 O.co2  49  GLU49      -0.2457
     63  N          0.5490   44.2860   63.2960 N.3    79  ASN79      -0.1240
     64  CA         0.4670   44.2020   61.8310 C.3    79  ASN79       0.1653
     65  C          1.4570   43.2090   61.2140 C.2    79  ASN79       0.2266
     66  O          1.3160   42.8240   60.0530 O.2    79  ASN79      -0.2867
     67  CB         0.6590   45.5850   61.1980 C.3    79  ASN79       0.1155
     68  CG        -0.5200   46.5180   61.4420 C.2    79  ASN79       0.2627
     69  OD1       -1.6010   46.0870   61.8650 O.2    79  ASN79      -0.2716
     70  ND2       -0.3200   47.8060   61.1610 N.am   79  ASN79      -0.0877
     71  N         -2.1960   61.6170   63.9080 N.3   274  ALA274     -0.1231
     72  CA        -1.8050   60.2070   63.8500 C.3   274  ALA274      0.1694
     73  C         -2.4990   59.4700   62.7020 C.2   274  ALA274      0.2592
     74  O         -1.9770   58.4730   62.1890 O.2   274  ALA274     -0.2718
     75  CB        -2.0760   59.5190   65.1860 C.3   274  ALA274      0.0304
     76  N         -3.6800   59.9610   62.3190 N.am  275  LYS275     -0.1966
     77  CA        -4.4430   59.4560   61.1600 C.3   275  LYS275      0.1728
     78  C         -4.7860   57.9570   61.2400 C.2   275  LYS275      0.2616
     79  O         -4.7850   57.2180   60.2380 O.2   275  LYS275     -0.2715
     80  CB        -3.7770   59.8900   59.8410 C.3   275  LYS275      0.0311
     81  CG        -3.7890   61.4320   59.7060 C.3   275  LYS275      0.0038
     82  CD        -3.1170   61.9530   58.4640 C.3   275  LYS275      0.0206
     83  CE        -3.2160   63.4760   58.3850 C.3   275  LYS275      0.1093
     84  NZ        -2.7010   64.0170   57.0980 N.3   275  LYS275     -0.1314
     85  N         -5.1160   57.5390   62.4600 N.am  276  GLU276     -0.1963
     86  CA        -5.4470   56.1590   62.7700 C.3   276  GLU276      0.1733
     87  C         -6.9310   56.0260   63.0540 C.2   276  GLU276      0.2617
     88  O         -7.4380   56.5600   64.0470 O.2   276  GLU276     -0.2715
     89  CB        -4.6170   55.6640   63.9620 C.3   276  GLU276      0.0429
     90  CG        -3.1060   55.7750   63.7290 C.3   276  GLU276      0.1163
     91  CD        -2.2600   55.3160   64.9030 C.2   276  GLU276      0.3649
     92  OE1       -2.6950   54.4190   65.6580 O.co2 276  GLU276     -0.2457
     93  OE2       -1.1430   55.8560   65.0640 O.co2 276  GLU276     -0.2457
     94  N         -7.6240   55.3230   62.1630 N.am  277  SER277     -0.1950
     95  CA        -9.0470   55.0390   62.3280 C.3   277  SER277      0.1924
     96  C         -9.3560   54.4760   63.7210 C.2   277  SER277      0.2314
     97  O         -8.6710   53.5660   64.2020 O.2   277  SER277     -0.2863
     98  CB        -9.5040   54.0790   61.2240 C.3   277  SER277      0.2116
     99  OG       -10.8190   53.6200   61.4390 O.3   277  SER277     -0.2180
@<TRIPOS>BOND
     1    49    48    2
     2    34    33    1
     3    31    33   ar
     4    31    29   ar
     5    56    57    2
     6    56    55    1
     7    33    32   ar
     8    62    60   ar
     9    29    28   ar
    10    84    83    1
    11    55    54    1
    12    55    58    1
    13    48    54   am
    14    48    47    1
    15    32    30   ar
    16    28    30   ar
    17    28    27    1
    18    60    61   ar
    19    60    59    1
    20    47    46    1
    21    47    50    1
    22    27    24    1
    23    26    25    2
    24    83    82    1
    25    58    59    1
    26    82    81    1
    27    50    52    1
    28    50    51    1
    29    24    25    1
    30    24    23    1
    31    81    80    1
    32    80    77    1
    33    66    65    2
    34    51    53    1
    35    79    78    2
    36    77    78    1
    37    77    76    1
    38    70    68   am
    39    67    68    1
    40    67    64    1
    41    65    64    1
    42    98    99    1
    43    98    95    1
    44    78    85   am
    45     4     3    2
    46    13    10    1
    47    13    14    1
    48    68    69    2
    49    12    11    2
    50    10    11    1
    51    10     9    1
    52    64    63    1
    53     8     6   am
    54    94    95    1
    55    94    87   am
    56    74    73    2
    57    76    73   am
    58    95    96    1
    59    85    86    1
    60     3     9   am
    61     3     2    1
    62     6     7    2
    63     6     5    1
    64    14    15   ar
    65    14    16   ar
    66    73    72    1
    67    86    87    1
    68    86    89    1
    69    87    88    2
    70     5     2    1
    71    15    17   ar
    72    38    37    2
    73    16    19   ar
    74    16    18   ar
    75    19    21   ar
    76     2     1    1
    77    96    97    2
    78    90    89    1
    79    90    91    1
    80    72    71    1
    81    72    75    1
    82    37    36    1
    83    17    18   ar
    84    18    20   ar
    85    21    22   ar
    86    39    36    1
    87    39    40    1
    88    91    93   ar
    89    91    92   ar
    90    35    36    1
    91    22    20   ar
    92    41    40   ar
    93    41    43   ar
    94    40    42   ar
    95    43    45   ar
    96    42    44   ar
    97    45    44   ar
