@<TRIPOS>MOLECULE
tmp/3fy1A02.pdb
 155 152 0 0 0
SMALL
GASTEIGER

@<TRIPOS>ATOM
      1  N          7.8060   53.1480   74.6980 N.3     6  TYR6       -0.1241
      2  CA         7.9530   52.7520   73.2960 C.3     6  TYR6        0.1605
      3  C          7.9550   53.9470   72.3550 C.2     6  TYR6        0.2264
      4  O          7.0950   54.8280   72.4550 O.2     6  TYR6       -0.2867
      5  CB         6.8450   51.7820   72.8750 C.3     6  TYR6        0.0534
      6  CG         6.9830   50.3860   73.4400 C.ar    6  TYR6       -0.0201
      7  CD1        7.5890   49.3670   72.6990 C.ar    6  TYR6       -0.0009
      8  CD2        6.4890   50.0760   74.7050 C.ar    6  TYR6       -0.0009
      9  CE1        7.7110   48.0760   73.2140 C.ar    6  TYR6        0.0417
     10  CE2        6.6070   48.7910   75.2320 C.ar    6  TYR6        0.0417
     11  CZ         7.2140   47.7960   74.4800 C.ar    6  TYR6        0.1957
     12  OH         7.3220   46.5340   74.9970 O.3     6  TYR6       -0.2866
     13  N          7.1520   55.1990   62.6960 N.3    10  TRP10      -0.1241
     14  CA         6.2180   55.8150   61.7470 C.3    10  TRP10       0.1605
     15  C          5.6950   57.1790   62.2140 C.2    10  TRP10       0.2264
     16  O          5.0380   57.8880   61.4540 O.2    10  TRP10      -0.2867
     17  CB         5.0540   54.8690   61.4150 C.3    10  TRP10       0.0550
     18  CG         4.2300   54.4320   62.6010 C.ar   10  TRP10       0.0003
     19  CD1        3.0960   55.0250   63.0840 C.ar   10  TRP10       0.0946
     20  CD2        4.4720   53.2910   63.4320 C.ar   10  TRP10       0.0152
     21  NE1        2.6180   54.3260   64.1770 N.ar   10  TRP10      -0.2442
     22  CE2        3.4480   53.2590   64.4120 C.ar   10  TRP10       0.0810
     23  CE3        5.4610   52.2950   63.4490 C.ar   10  TRP10       0.0012
     24  CZ2        3.3830   52.2650   65.3970 C.ar   10  TRP10       0.0191
     25  CZ3        5.3960   51.3040   64.4300 C.ar   10  TRP10       0.0001
     26  CH2        4.3620   51.3000   65.3900 C.ar   10  TRP10       0.0015
     27  N          9.3670   49.3560   64.9720 N.3    37  PHE37      -0.1241
     28  CA         9.6240   47.9190   65.1270 C.3    37  PHE37       0.1605
     29  C         10.7370   47.4800   64.1770 C.2    37  PHE37       0.2264
     30  O         10.9760   48.1310   63.1510 O.2    37  PHE37      -0.2867
     31  CB         8.3890   47.1010   64.7190 C.3    37  PHE37       0.0534
     32  CG         7.2830   47.0930   65.7330 C.ar   37  PHE37      -0.0203
     33  CD1        6.0570   47.6900   65.4370 C.ar   37  PHE37      -0.0042
     34  CD2        7.4560   46.4790   66.9730 C.ar   37  PHE37      -0.0042
     35  CE1        5.0140   47.6860   66.3700 C.ar   37  PHE37      -0.0003
     36  CE2        6.4240   46.4650   67.9130 C.ar   37  PHE37      -0.0003
     37  CZ         5.2000   47.0710   67.6120 C.ar   37  PHE37      -0.0000
     38  N          5.0540   43.1710   66.2230 N.3    77  GLY77      -0.1210
     39  CA         3.9000   44.0640   66.3000 C.3    77  GLY77       0.1956
     40  C          2.6330   43.4130   65.7680 C.2    77  GLY77       0.2612
     41  O          2.6830   42.3670   65.1070 O.2    77  GLY77      -0.2717
     42  N          1.4950   44.0450   66.0500 N.am   78  TRP78      -0.1962
     43  CA         0.1940   43.5470   65.5960 C.3    78  TRP78       0.1771
     44  C          0.1470   43.2900   64.0790 C.2    78  TRP78       0.2619
     45  O         -0.2280   42.1990   63.6290 O.2    78  TRP78      -0.2715
     46  CB        -0.9060   44.5300   66.0150 C.3    78  TRP78       0.0590
     47  CG        -2.2760   44.1400   65.5440 C.ar   78  TRP78       0.0006
     48  CD1       -2.9350   44.6280   64.4530 C.ar   78  TRP78       0.0946
     49  CD2       -3.1520   43.1790   66.1460 C.ar   78  TRP78       0.0152
     50  NE1       -4.1680   44.0340   64.3390 N.ar   78  TRP78      -0.2442
     51  CE2       -4.3290   43.1410   65.3650 C.ar   78  TRP78       0.0810
     52  CE3       -3.0630   42.3530   67.2760 C.ar   78  TRP78       0.0012
     53  CZ2       -5.4100   42.3060   65.6720 C.ar   78  TRP78       0.0191
     54  CZ3       -4.1360   41.5150   67.5770 C.ar   78  TRP78       0.0001
     55  CH2       -5.2950   41.5020   66.7790 C.ar   78  TRP78       0.0015
     56  N          0.5490   44.2860   63.2960 N.am   79  ASN79      -0.1972
     57  CA         0.4670   44.2020   61.8310 C.3    79  ASN79       0.1688
     58  C          1.4570   43.2090   61.2140 C.2    79  ASN79       0.2292
     59  O          1.3160   42.8240   60.0530 O.2    79  ASN79      -0.2864
     60  CB         0.6590   45.5850   61.1980 C.3    79  ASN79       0.1181
     61  CG        -0.5200   46.5180   61.4420 C.2    79  ASN79       0.2629
     62  OD1       -1.6010   46.0870   61.8650 O.2    79  ASN79      -0.2716
     63  ND2       -0.3200   47.8060   61.1610 N.am   79  ASN79      -0.0877
     64  N         13.0780   43.0900   72.5100 N.3   115  ASP115     -0.1239
     65  CA        11.7140   42.9420   73.0100 C.3   115  ASP115      0.1674
     66  C         10.9330   42.1420   71.9620 C.2   115  ASP115      0.2266
     67  O         10.7150   42.6210   70.8440 O.2   115  ASP115     -0.2867
     68  CB        11.0980   44.3340   73.2240 C.3   115  ASP115      0.1410
     69  CG         9.7240   44.2960   73.8970 C.2   115  ASP115      0.3668
     70  OD1        9.5370   43.5390   74.8760 O.co2 115  ASP115     -0.2456
     71  OD2        8.8380   45.0510   73.4410 O.co2 115  ASP115     -0.2456
     72  N          7.7510   40.9980   70.2330 N.3   117  ASP117     -0.1239
     73  CA         6.3530   41.3860   70.1170 C.3   117  ASP117      0.1674
     74  C          5.6400   40.5060   69.0920 C.2   117  ASP117      0.2266
     75  O          5.1360   40.9780   68.0690 O.2   117  ASP117     -0.2867
     76  CB         6.2060   42.8730   69.7860 C.3   117  ASP117      0.1410
     77  CG         4.7730   43.3430   69.8820 C.2   117  ASP117      0.3668
     78  OD1        3.9420   42.5920   70.4500 O.co2 117  ASP117     -0.2456
     79  OD2        4.4810   44.4520   69.3930 O.co2 117  ASP117     -0.2456
     80  N          2.5680   38.6060   68.1080 N.3   119  GLU119     -0.1245
     81  CA         1.1590   38.6970   68.4580 C.3   119  GLU119      0.1567
     82  C          0.3290   37.7240   67.6060 C.2   119  GLU119      0.2260
     83  O         -0.0920   38.0780   66.5050 O.2   119  GLU119     -0.2867
     84  CB         0.6650   40.1500   68.3210 C.3   119  GLU119      0.0388
     85  CG         1.4860   41.1300   69.1760 C.3   119  GLU119      0.1160
     86  CD         0.8970   42.5320   69.2840 C.2   119  GLU119      0.3649
     87  OE1       -0.2130   42.7850   68.7780 O.co2 119  GLU119     -0.2457
     88  OE2        1.5660   43.3980   69.8910 O.co2 119  GLU119     -0.2457
     89  N          6.5700   41.6010   74.8910 N.3   162  ALA162     -0.1245
     90  CA         5.2400   42.1890   75.0010 C.3   162  ALA162      0.1562
     91  C          4.2290   41.0580   74.8460 C.2   162  ALA162      0.2260
     92  O          4.3190   40.2610   73.9070 O.2   162  ALA162     -0.2867
     93  CB         5.0280   43.2580   73.9420 C.3   162  ALA162      0.0290
     94  N          0.3150   43.9610   77.7300 N.3   189  MET189     -0.1245
     95  CA        -0.4160   44.9490   76.9430 C.3   189  MET189      0.1570
     96  C         -1.8440   45.1310   77.4500 C.2   189  MET189      0.2261
     97  O         -2.8190   44.7530   76.7910 O.2   189  MET189     -0.2867
     98  CB        -0.3500   44.5950   75.4540 C.3   189  MET189      0.0387
     99  CG         1.0880   44.6260   74.9150 C.3   189  MET189      0.0595
    100  SD         1.2230   44.3600   73.1400 S.3   189  MET189     -0.1393
    101  CE         1.0160   42.5790   73.0580 C.3   189  MET189      0.0692
    102  N         -4.2830   47.1040   77.4910 N.3   191  TYR191     -0.1227
    103  CA        -5.0720   48.1210   76.7990 C.3   191  TYR191      0.1736
    104  C         -5.7080   47.4770   75.5690 C.2   191  TYR191      0.2595
    105  O         -5.5710   46.2680   75.3720 O.2   191  TYR191     -0.2718
    106  CB        -4.2310   49.3590   76.4460 C.3   191  TYR191      0.0548
    107  CG        -2.8250   49.0630   75.9670 C.ar  191  TYR191     -0.0200
    108  CD1       -2.6080   48.4140   74.7520 C.ar  191  TYR191     -0.0009
    109  CD2       -1.7120   49.4360   76.7280 C.ar  191  TYR191     -0.0009
    110  CE1       -1.3210   48.1430   74.3030 C.ar  191  TYR191      0.0417
    111  CE2       -0.4160   49.1640   76.2890 C.ar  191  TYR191      0.0417
    112  CZ        -0.2350   48.5150   75.0770 C.ar  191  TYR191      0.1957
    113  OH         1.0300   48.2460   74.6200 O.3   191  TYR191     -0.2866
    114  N         -6.3980   48.2750   74.7520 N.am  192  ASP192     -0.1974
    115  CA        -7.2790   47.7620   73.6850 C.3   192  ASP192      0.1709
    116  C         -8.2600   46.7280   74.2420 C.2   192  ASP192      0.2293
    117  O         -8.6340   45.7660   73.5610 O.2   192  ASP192     -0.2864
    118  CB        -6.4800   47.1710   72.5130 C.3   192  ASP192      0.1436
    119  CG        -5.4300   48.1260   71.9780 C.2   192  ASP192      0.3671
    120  OD1       -5.7450   49.3210   71.7590 O.co2 192  ASP192     -0.2456
    121  OD2       -4.2860   47.6720   71.7740 O.co2 192  ASP192     -0.2456
    122  N         -3.0680   56.8810   74.3550 N.3   246  TYR246     -0.1241
    123  CA        -4.0470   57.0450   73.2860 C.3   246  TYR246      0.1605
    124  C         -5.3790   56.4700   73.7450 C.2   246  TYR246      0.2264
    125  O         -5.4290   55.6990   74.7060 O.2   246  TYR246     -0.2867
    126  CB        -3.5940   56.3220   72.0080 C.3   246  TYR246      0.0534
    127  CG        -3.5960   54.8070   72.1380 C.ar  246  TYR246     -0.0201
    128  CD1       -4.7200   54.0520   71.7820 C.ar  246  TYR246     -0.0009
    129  CD2       -2.4760   54.1340   72.6270 C.ar  246  TYR246     -0.0009
    130  CE1       -4.7220   52.6560   71.9140 C.ar  246  TYR246      0.0417
    131  CE2       -2.4690   52.7610   72.7670 C.ar  246  TYR246      0.0417
    132  CZ        -3.5890   52.0280   72.4110 C.ar  246  TYR246      0.1957
    133  OH        -3.5650   50.6690   72.5440 O.3   246  TYR246     -0.2866
    134  N          5.0730   50.2790   81.4860 N.3   337  MET337     -0.1245
    135  CA         5.4830   50.5710   80.1100 C.3   337  MET337      0.1570
    136  C          4.4130   51.4230   79.4470 C.2   337  MET337      0.2261
    137  O          3.2470   51.3920   79.8530 O.2   337  MET337     -0.2867
    138  CB         5.8340   49.3110   79.2980 C.3   337  MET337      0.0387
    139  CG         4.6980   48.3260   79.0440 C.3   337  MET337      0.0595
    140  SD         3.6760   48.7600   77.6210 S.3   337  MET337     -0.1393
    141  CE         2.8360   47.1960   77.3460 C.3   337  MET337      0.0692
    142  N          2.7700   52.8630   75.7650 N.3   339  TRP339     -0.1241
    143  CA         2.5820   52.9230   74.3300 C.3   339  TRP339      0.1605
    144  C          1.7220   54.1490   74.0200 C.2   339  TRP339      0.2264
    145  O          0.5430   54.1490   74.3560 O.2   339  TRP339     -0.2867
    146  CB         1.8920   51.6550   73.7970 C.3   339  TRP339      0.0550
    147  CG         1.8620   51.6640   72.3050 C.ar  339  TRP339      0.0003
    148  CD1        0.9610   52.3060   71.4970 C.ar  339  TRP339      0.0946
    149  CD2        2.8160   51.0550   71.4350 C.ar  339  TRP339      0.0152
    150  NE1        1.2880   52.1130   70.1750 N.ar  339  TRP339     -0.2442
    151  CE2        2.4220   51.3490   70.1090 C.ar  339  TRP339      0.0810
    152  CE3        3.9540   50.2680   71.6450 C.ar  339  TRP339      0.0012
    153  CZ2        3.1320   50.8870   68.9960 C.ar  339  TRP339      0.0191
    154  CZ3        4.6620   49.8090   70.5380 C.ar  339  TRP339      0.0001
    155  CH2        4.2430   50.1170   69.2310 C.ar  339  TRP339      0.0015
@<TRIPOS>BOND
     1    59    58    2
     2    63    61   am
     3    60    61    1
     4    60    57    1
     5    58    57    1
     6    17    14    1
     7    17    18    1
     8    61    62    2
     9    16    15    2
    10    14    15    1
    11    14    13    1
    12    57    56    1
    13    18    19   ar
    14    18    20   ar
    15    19    21   ar
    16    30    29    2
    17    56    44   am
    18    20    23   ar
    19    20    22   ar
    20    23    25   ar
    21    45    44    2
    22    44    43    1
    23    29    28    1
    24    21    22   ar
    25    50    48   ar
    26    50    51   ar
    27    22    24   ar
    28    25    26   ar
    29    48    47   ar
    30    31    28    1
    31    31    32    1
    32    27    28    1
    33    41    40    2
    34    51    53   ar
    35    51    49   ar
    36    26    24   ar
    37    33    32   ar
    38    33    35   ar
    39    47    46    1
    40    47    49   ar
    41    43    46    1
    42    43    42    1
    43    53    55   ar
    44    32    34   ar
    45    40    42   am
    46    40    39    1
    47    49    52   ar
    48    38    39    1
    49    35    37   ar
    50    83    82    2
    51    55    54   ar
    52    34    36   ar
    53    52    54   ar
    54    82    81    1
    55    37    36   ar
    56    75    74    2
    57    80    81    1
    58    84    81    1
    59    84    85    1
    60    87    86   ar
    61   153   155   ar
    62   153   151   ar
    63    74    73    1
    64    85    86    1
    65   155   154   ar
    66    86    88   ar
    67    79    77   ar
    68    76    77    1
    69    76    73    1
    70    77    78   ar
    71   151   150   ar
    72   151   149   ar
    73    73    72    1
    74   150   148   ar
    75   154   152   ar
    76    67    66    2
    77   149   152   ar
    78   149   147   ar
    79   148   147   ar
    80   120   119   ar
    81   121   119   ar
    82   128   130   ar
    83   128   127   ar
    84   130   132   ar
    85    66    65    1
    86   119   118    1
    87   126   127    1
    88   126   123    1
    89   127   129   ar
    90   147   146    1
    91     3     4    2
    92     3     2    1
    93   132   133    1
    94   132   131   ar
    95    64    65    1
    96   118   115    1
    97   129   131   ar
    98     7     9   ar
    99     7     6   ar
   100     5     2    1
   101     5     6    1
   102    65    68    1
   103   101   100    1
   104   100    99    1
   105     9    11   ar
   106    68    69    1
   107   123   124    1
   108   123   122    1
   109     2     1    1
   110     6     8   ar
   111    71    69   ar
   112   117   116    2
   113   115   116    1
   114   115   114    1
   115   124   125    2
   116   146   143    1
   117    69    70   ar
   118    92    91    2
   119    93    90    1
   120   144   143    1
   121   144   145    2
   122   110   108   ar
   123   110   112   ar
   124   143   142    1
   125    11    12    1
   126    11    10   ar
   127   113   112    1
   128     8    10   ar
   129   114   104   am
   130   108   107   ar
   131    91    90    1
   132    89    90    1
   133    99    98    1
   134   112   111   ar
   135   105   104    2
   136    98    95    1
   137   104   103    1
   138   107   106    1
   139   107   109   ar
   140   111   109   ar
   141   106   103    1
   142    97    96    2
   143   103   102    1
   144    95    96    1
   145    95    94    1
   146   141   140    1
   147   140   139    1
   148   139   138    1
   149   138   135    1
   150   136   137    2
   151   136   135    1
   152   135   134    1
