@<TRIPOS>MOLECULE
tmp/3fy2A00.pdb
 157 150 0 0 0
SMALL
GASTEIGER

@<TRIPOS>ATOM
      1  N         -0.1970   16.8240   60.8640 N.3   140  ASP140     -0.1239
      2  CA        -0.4750   15.4000   61.0500 C.3   140  ASP140      0.1674
      3  C          0.2730   14.4600   60.0970 C.2   140  ASP140      0.2266
      4  O         -0.1460   13.3180   59.8710 O.2   140  ASP140     -0.2867
      5  CB        -1.9750   15.1610   61.1870 C.3   140  ASP140      0.1410
      6  CG        -2.3460   13.8250   61.8570 C.2   140  ASP140      0.3668
      7  OD1       -1.4650   13.1540   62.4720 O.co2 140  ASP140     -0.2456
      8  OD2       -3.5360   13.4500   61.7290 O.co2 140  ASP140     -0.2456
      9  N          0.3410    6.8990   58.0700 N.3   144  ARG144     -0.1231
     10  CA        -1.0650    6.5310   58.0620 C.3   144  ARG144      0.1694
     11  C         -1.9070    7.5420   57.2910 C.2   144  ARG144      0.2592
     12  O         -3.0310    7.2190   56.8810 O.2   144  ARG144     -0.2718
     13  CB        -1.6080    6.3990   59.4970 C.3   144  ARG144      0.0321
     14  CG        -1.5470    7.7060   60.2730 C.3   144  ARG144      0.0489
     15  CD        -2.3260    7.7160   61.6090 C.3   144  ARG144      0.2205
     16  NE        -2.1330    9.0230   62.2650 N.pl3 144  ARG144     -0.0865
     17  CZ        -1.0220    9.3450   62.9210 C.cat 144  ARG144      0.5346
     18  NH1       -0.0560    8.4680   63.0300 N.pl3 144  ARG144      0.1354
     19  NH2       -0.8530   10.5440   63.4680 N.pl3 144  ARG144      0.1354
     20  N         -1.3800    8.7570   57.1050 N.am  145  ASN145     -0.1974
     21  CA        -2.0650    9.7950   56.3580 C.3   145  ASN145      0.1688
     22  C         -1.5250   10.0230   54.9410 C.2   145  ASN145      0.2292
     23  O         -1.8770   11.0130   54.2880 O.2   145  ASN145     -0.2864
     24  CB        -2.0360   11.0980   57.1410 C.3   145  ASN145      0.1181
     25  CG        -2.8720   11.0330   58.3820 C.2   145  ASN145      0.2629
     26  OD1       -3.8470   10.2670   58.4610 O.2   145  ASN145     -0.2716
     27  ND2       -2.4940   11.8270   59.3760 N.am  145  ASN145     -0.0877
     28  N         -5.6890   13.5240   54.5660 N.3   158  ASP158     -0.1239
     29  CA        -6.1080   13.8340   55.9220 C.3   158  ASP158      0.1674
     30  C         -5.7600   15.2300   56.4310 C.2   158  ASP158      0.2266
     31  O         -4.8810   15.4310   57.2710 O.2   158  ASP158     -0.2867
     32  CB        -5.6240   12.8000   56.9210 C.3   158  ASP158      0.1410
     33  CG        -6.5300   12.7360   58.1400 C.2   158  ASP158      0.3668
     34  OD1       -7.0280   13.8210   58.5520 O.co2 158  ASP158     -0.2456
     35  OD2       -6.7640   11.6100   58.6500 O.co2 158  ASP158     -0.2456
     36  N         -6.2750   18.2510   60.7410 N.3   161  LEU161     -0.1245
     37  CA        -5.5140   19.0720   61.6820 C.3   161  LEU161      0.1561
     38  C         -4.8300   20.2410   60.9760 C.2   161  LEU161      0.2260
     39  O         -4.1660   21.0460   61.6230 O.2   161  LEU161     -0.2867
     40  CB        -4.4620   18.2140   62.4100 C.3   161  LEU161      0.0270
     41  CG        -4.9030   17.2230   63.5130 C.3   161  LEU161      0.0019
     42  CD1       -3.6910   16.6640   64.2740 C.3   161  LEU161      0.0001
     43  CD2       -5.8900   17.8960   64.4870 C.3   161  LEU161      0.0001
     44  N         -7.1180   19.8060   69.2860 N.3   168  GLY168     -0.1210
     45  CA        -6.7120   19.5930   70.6800 C.3   168  GLY168      0.1956
     46  C         -5.6010   18.5630   70.8560 C.2   168  GLY168      0.2612
     47  O         -4.4570   18.9310   71.1130 O.2   168  GLY168     -0.2717
     48  N         -5.9370   17.2770   70.7400 N.am  169  LYS169     -0.1965
     49  CA        -4.9480   16.1980   70.8990 C.3   169  LYS169      0.1728
     50  C         -3.9550   16.1980   69.7360 C.2   169  LYS169      0.2616
     51  O         -4.3580   16.3160   68.5820 O.2   169  LYS169     -0.2715
     52  CB        -5.6270   14.8310   70.9610 C.3   169  LYS169      0.0311
     53  CG        -6.4890   14.6120   72.1960 C.3   169  LYS169      0.0038
     54  CD        -6.9570   13.1710   72.3050 C.3   169  LYS169      0.0206
     55  CE        -7.9300   12.9980   73.4790 C.3   169  LYS169      0.1093
     56  NZ        -8.4070   11.5930   73.6060 N.3   169  LYS169     -0.1314
     57  N         -2.6710   16.0390   70.0310 N.am  170  ILE170     -0.1964
     58  CA        -1.6570   16.0620   68.9830 C.3   170  ILE170      0.1712
     59  C         -1.0230   14.6890   68.7290 C.2   170  ILE170      0.2458
     60  O         -0.9640   13.8440   69.6370 O.2   170  ILE170     -0.2730
     61  CB        -0.5440   17.0990   69.2560 C.3   170  ILE170      0.0289
     62  CG1        0.1640   16.8250   70.5890 C.3   170  ILE170      0.0022
     63  CG2       -1.1110   18.5380   69.1740 C.3   170  ILE170      0.0023
     64  CD1        1.4660   17.5930   70.7470 C.3   170  ILE170      0.0001
     65  N         -0.5480   14.4670   67.4920 N.am  171  PRO171     -0.2716
     66  CA         0.1230   13.2150   67.1510 C.3   171  PRO171      0.1536
     67  C          1.5390   13.2740   67.6880 C.2   171  PRO171      0.2598
     68  O          2.4870   13.6000   66.9510 O.2   171  PRO171     -0.2715
     69  CB         0.0870   13.2050   65.6110 C.3   171  PRO171      0.0310
     70  CG         0.1390   14.6190   65.2380 C.3   171  PRO171      0.0237
     71  CD        -0.6000   15.3760   66.3250 C.3   171  PRO171      0.0939
     72  N          1.6890   12.9860   68.9800 N.am  172  ILE172     -0.1964
     73  CA         2.9530   13.2790   69.6750 C.3   172  ILE172      0.1727
     74  C          4.1830   12.6860   68.9960 C.2   172  ILE172      0.2616
     75  O          5.1620   13.3890   68.8180 O.2   172  ILE172     -0.2715
     76  CB         2.9010   12.8650   71.1720 C.3   172  ILE172      0.0290
     77  CG1        1.9850   13.8220   71.9380 C.3   172  ILE172      0.0022
     78  CG2        4.2950   12.9130   71.8170 C.3   172  ILE172      0.0023
     79  CD1        1.4610   13.2350   73.2480 C.3   172  ILE172      0.0001
     80  N          4.1270   11.4090   68.6080 N.am  173  ARG173     -0.1963
     81  CA         5.2680   10.7400   67.9750 C.3   173  ARG173      0.1729
     82  C          5.7290   11.3650   66.6490 C.2   173  ARG173      0.2616
     83  O          6.8570   11.1280   66.2230 O.2   173  ARG173     -0.2715
     84  CB         4.9350    9.2740   67.7130 C.3   173  ARG173      0.0348
     85  CG         4.9210    8.4510   68.9530 C.3   173  ARG173      0.0492
     86  CD         4.1380    7.1680   68.7780 C.3   173  ARG173      0.2205
     87  NE         4.7450    6.1580   69.6150 N.pl3 173  ARG173     -0.0865
     88  CZ         4.7250    6.1630   70.9480 C.cat 173  ARG173      0.5346
     89  NH1        4.0400    7.0690   71.6440 N.pl3 173  ARG173      0.1354
     90  NH2        5.3800    5.2290   71.5890 N.pl3 173  ARG173      0.1354
     91  N          4.8580   12.1450   66.0150 N.am  174  TRP174     -0.1974
     92  CA         5.1550   12.7470   64.7110 C.3   174  TRP174      0.1640
     93  C          5.4690   14.2300   64.8210 C.2   174  TRP174      0.2290
     94  O          5.8770   14.8520   63.8560 O.2   174  TRP174     -0.2864
     95  CB         3.9820   12.5160   63.7570 C.3   174  TRP174      0.0576
     96  CG         3.9240   11.1120   63.2960 C.ar  174  TRP174      0.0006
     97  CD1        4.4700   10.5930   62.1570 C.ar  174  TRP174      0.0946
     98  CD2        3.3190   10.0140   63.9910 C.ar  174  TRP174      0.0152
     99  NE1        4.2290    9.2420   62.0920 N.ar  174  TRP174     -0.2442
    100  CE2        3.5210    8.8590   63.2030 C.ar  174  TRP174      0.0810
    101  CE3        2.6150    9.9010   65.1990 C.ar  174  TRP174      0.0012
    102  CZ2        3.0600    7.6030   63.5840 C.ar  174  TRP174      0.0191
    103  CZ3        2.1530    8.6560   65.5810 C.ar  174  TRP174      0.0001
    104  CH2        2.3820    7.5150   64.7840 C.ar  174  TRP174      0.0015
    105  N          5.4630   20.4390   70.2650 N.3   180  ILE180     -0.1245
    106  CA         5.0780   19.8630   71.5790 C.3   180  ILE180      0.1561
    107  C          5.2450   20.8470   72.7350 C.2   180  ILE180      0.2260
    108  O          4.3650   20.9390   73.5980 O.2   180  ILE180     -0.2867
    109  CB         5.8970   18.5840   71.8910 C.3   180  ILE180      0.0252
    110  CG1        5.4900   17.4650   70.9280 C.3   180  ILE180      0.0019
    111  CG2        5.6990   18.1310   73.3310 C.3   180  ILE180      0.0019
    112  CD1        6.5340   16.3290   70.8550 C.3   180  ILE180      0.0001
    113  N          6.0230    1.2390   64.0840 N.3   207  ARG207     -0.1245
    114  CA         5.5690    2.4020   64.8450 C.3   207  ARG207      0.1563
    115  C          6.7460    3.2570   65.3310 C.2   207  ARG207      0.2260
    116  O          7.6390    2.7410   66.0070 O.2   207  ARG207     -0.2867
    117  CB         4.8060    1.9050   66.0600 C.3   207  ARG207      0.0307
    118  CG         4.2600    2.9800   66.9390 C.3   207  ARG207      0.0489
    119  CD         3.3910    2.3430   67.9880 C.3   207  ARG207      0.2205
    120  NE         2.7090    3.3330   68.8060 N.pl3 207  ARG207     -0.0865
    121  CZ         1.6540    4.0320   68.4020 C.cat 207  ARG207      0.5346
    122  NH1        1.1670    3.8690   67.1750 N.pl3 207  ARG207      0.1354
    123  NH2        1.0940    4.9080   69.2250 N.pl3 207  ARG207      0.1354
    124  N          6.2820    1.3800   71.4750 N.3   211  GLU211     -0.1245
    125  CA         5.2280    1.6520   72.4690 C.3   211  GLU211      0.1567
    126  C          5.7270    2.4240   73.6870 C.2   211  GLU211      0.2260
    127  O          5.1350    2.3590   74.7600 O.2   211  GLU211     -0.2867
    128  CB         4.5680    0.3390   72.9280 C.3   211  GLU211      0.0388
    129  CG         3.9140   -0.4760   71.8240 C.3   211  GLU211      0.1160
    130  CD         2.7080    0.2000   71.2340 C.2   211  GLU211      0.3649
    131  OE1        1.8060    0.5990   71.9950 O.co2 211  GLU211     -0.2457
    132  OE2        2.6490    0.3230   69.9990 O.co2 211  GLU211     -0.2457
    133  N          4.2680    8.1950   75.9670 N.3   214  ASN214     -0.1225
    134  CA         4.2810    9.5420   75.3780 C.3   214  ASN214      0.1785
    135  C          5.2270   10.4740   76.1120 C.2   214  ASN214      0.2597
    136  O          5.9300   11.2850   75.4890 O.2   214  ASN214     -0.2718
    137  CB         2.8790   10.1640   75.4130 C.3   214  ASN214      0.1169
    138  CG         1.9330    9.5790   74.3820 C.2   214  ASN214      0.2627
    139  OD1        0.7530    9.3440   74.6880 O.2   214  ASN214     -0.2716
    140  ND2        2.4160    9.3580   73.1650 N.am  214  ASN214     -0.0877
    141  N          5.2310   10.3760   77.4410 N.am  215  GLN215     -0.1979
    142  CA         6.0750   11.2460   78.2760 C.3   215  GLN215      0.1601
    143  C          7.5570   11.0170   77.9980 C.2   215  GLN215      0.2287
    144  O          8.3580   11.9610   77.9860 O.2   215  GLN215     -0.2864
    145  CB         5.7480   11.0420   79.7730 C.3   215  GLN215      0.0394
    146  CG         4.4900   11.8020   80.2210 C.3   215  GLN215      0.0908
    147  CD         4.0070   11.4270   81.6250 C.2   215  GLN215      0.2608
    148  OE1        4.7190   10.7780   82.3960 O.2   215  GLN215     -0.2717
    149  NE2        2.7920   11.8500   81.9610 N.am  215  GLN215     -0.0878
    150  N          8.6060   12.3730   74.5000 N.3   218  ILE218     -0.1245
    151  CA         8.8490   13.8170   74.6100 C.3   218  ILE218      0.1561
    152  C         10.1830   14.1190   75.2830 C.2   218  ILE218      0.2260
    153  O         10.9700   14.9500   74.8100 O.2   218  ILE218     -0.2867
    154  CB         7.7130   14.5190   75.4070 C.3   218  ILE218      0.0252
    155  CG1        6.4010   14.4720   74.6100 C.3   218  ILE218      0.0019
    156  CG2        8.1100   15.9790   75.7280 C.3   218  ILE218      0.0019
    157  CD1        5.1290   14.7420   75.4430 C.3   218  ILE218      0.0001
@<TRIPOS>BOND
     1    23    22    2
     2    28    29    1
     3    22    21    1
     4    29    30    1
     5    29    32    1
     6    21    20    1
     7    21    24    1
     8    30    31    2
     9    12    11    2
    10    32    33    1
    11    20    11   am
    12    24    25    1
    13    11    10    1
    14    10     9    1
    15    10    13    1
    16    33    34   ar
    17    33    35   ar
    18    25    26    2
    19    25    27   am
    20    13    14    1
    21     4     3    2
    22     3     2    1
    23    14    15    1
    24    36    37    1
    25     1     2    1
    26    38    39    2
    27    38    37    1
    28     2     5    1
    29     5     6    1
    30    15    16    1
    31    37    40    1
    32     8     6   ar
    33     6     7   ar
    34    99    97   ar
    35    99   100   ar
    36    97    96   ar
    37    16    17    2
    38    40    41    1
    39    17    18    1
    40    17    19    1
    41   100   102   ar
    42   100    98   ar
    43    96    95    1
    44    96    98   ar
    45    41    42    1
    46    41    43    1
    47   102   104   ar
    48    95    92    1
    49    94    93    2
    50    98   101   ar
    51   113   114    1
    52    92    93    1
    53    92    91    1
    54   104   103   ar
    55   114   115    1
    56   114   117    1
    57   101   103   ar
    58    70    69    1
    59    70    71    1
    60   115   116    2
    61    69    66    1
    62    91    82   am
    63   117   118    1
    64    83    82    2
    65    71    65    1
    66    82    81    1
    67   118   119    1
    68    68    67    2
    69    66    65    1
    70    66    67    1
    71   122   121    1
    72    65    59   am
    73    67    72   am
    74    84    81    1
    75    84    85    1
    76    81    80    1
    77   119   120    1
    78   121   120    2
    79   121   123    1
    80    51    50    2
    81    80    74   am
    82    59    58    1
    83    59    60    2
    84    86    85    1
    85    86    87    1
    86    75    74    2
    87    72    73    1
    88    58    61    1
    89    58    57    1
    90    74    73    1
    91    63    61    1
    92    61    62    1
    93    44    45    1
    94    87    88    2
    95    73    76    1
    96    50    57   am
    97    50    49    1
    98   132   130   ar
    99   105   106    1
   100    62    64    1
   101    45    46    1
   102    48    46   am
   103    48    49    1
   104   112   110    1
   105    46    47    2
   106    49    52    1
   107   110   109    1
   108    88    90    1
   109    88    89    1
   110    52    53    1
   111    76    78    1
   112    76    77    1
   113   130   129    1
   114   130   131   ar
   115   124   125    1
   116   106   109    1
   117   106   107    1
   118   129   128    1
   119   109   111    1
   120    77    79    1
   121    53    54    1
   122    54    55    1
   123   125   128    1
   124   125   126    1
   125   107   108    2
   126   140   138   am
   127    55    56    1
   128   126   127    2
   129   138   139    2
   130   138   137    1
   131   150   151    1
   132   151   152    1
   133   151   154    1
   134   155   154    1
   135   155   157    1
   136   153   152    2
   137   134   137    1
   138   134   133    1
   139   134   135    1
   140   154   156    1
   141   136   135    2
   142   135   141   am
   143   141   142    1
   144   144   143    2
   145   143   142    1
   146   142   145    1
   147   145   146    1
   148   146   147    1
   149   147   149   am
   150   147   148    2
