@<TRIPOS>MOLECULE
tmp/3fy4A00.pdb
 114 114 0 0 0
SMALL
GASTEIGER

@<TRIPOS>ATOM
      1  N         51.0680   18.5580   25.4450 N.3   241  LYS241     -0.1231
      2  CA        49.8080   18.5360   26.1960 C.3   241  LYS241      0.1678
      3  C         49.8610   18.2350   27.6970 C.2   241  LYS241      0.2434
      4  O         49.2870   18.9710   28.4970 O.2   241  LYS241     -0.2733
      5  CB        48.8370   17.5640   25.5330 C.3   241  LYS241      0.0284
      6  CG        47.5630   18.2050   25.0850 C.3   241  LYS241      0.0035
      7  CD        46.7170   18.6460   26.2570 C.3   241  LYS241      0.0206
      8  CE        45.4900   19.4010   25.7740 C.3   241  LYS241      0.1093
      9  NZ        44.7670   18.6650   24.7040 N.3   241  LYS241     -0.1314
     10  N         50.5270   17.1410   28.0960 N.am  242  PRO242     -0.2729
     11  CA        50.6050   16.8060   29.5250 C.3   242  PRO242      0.1401
     12  C         51.3000   17.8480   30.4040 C.2   242  PRO242      0.2269
     13  O         51.0720   17.9190   31.6140 O.2   242  PRO242     -0.2865
     14  CB        51.3430   15.4730   29.5230 C.3   242  PRO242      0.0296
     15  CG        50.9260   14.8760   28.2180 C.3   242  PRO242      0.0237
     16  CD        51.0350   16.0320   27.2700 C.3   242  PRO242      0.0939
     17  N         51.8820   11.3710   20.7540 N.3   289  PRO289     -0.2102
     18  CA        50.5720   11.9500   21.0640 C.3   289  PRO289      0.1504
     19  C         50.5630   13.3820   21.6340 C.2   289  PRO289      0.2575
     20  O         49.6200   14.1410   21.3970 O.2   289  PRO289     -0.2718
     21  CB        49.9870   10.9290   22.0390 C.3   289  PRO289      0.0282
     22  CG        51.1910   10.4980   22.8090 C.3   289  PRO289      0.0208
     23  CD        52.2340   10.3160   21.7250 C.3   289  PRO289      0.0893
     24  N         51.6150   13.7620   22.3500 N.am  290  VAL290     -0.1980
     25  CA        51.6550   15.0750   22.9870 C.3   290  VAL290      0.1595
     26  C         51.6740   16.3470   22.1380 C.2   290  VAL290      0.2287
     27  O         51.4060   17.4270   22.6560 O.2   290  VAL290     -0.2864
     28  CB        52.8360   15.1550   23.9850 C.3   290  VAL290      0.0276
     29  CG1       52.9370   13.8500   24.7690 C.3   290  VAL290      0.0022
     30  CG2       54.1340   15.4590   23.2490 C.3   290  VAL290      0.0022
     31  N         46.9670   16.4640   18.9650 N.3   295  GLN295     -0.1245
     32  CA        45.6770   16.6740   19.6060 C.3   295  GLN295      0.1566
     33  C         44.5360   16.5720   18.6050 C.2   295  GLN295      0.2260
     34  O         43.4560   16.1150   18.9550 O.2   295  GLN295     -0.2867
     35  CB        45.6480   18.0350   20.3120 C.3   295  GLN295      0.0367
     36  CG        46.7620   18.1970   21.3410 C.3   295  GLN295      0.0905
     37  CD        46.9200   16.9590   22.2130 C.2   295  GLN295      0.2608
     38  OE1       46.0340   16.6200   23.0030 O.2   295  GLN295     -0.2717
     39  NE2       48.0470   16.2690   22.0610 N.am  295  GLN295     -0.0878
     40  N         43.6990   13.1050   18.4350 N.3   298  TRP298     -0.1241
     41  CA        42.9180   12.4770   19.4840 C.3   298  TRP298      0.1605
     42  C         41.4500   12.6200   19.0770 C.2   298  TRP298      0.2264
     43  O         40.6320   11.7210   19.3030 O.2   298  TRP298     -0.2867
     44  CB        43.1720   13.1490   20.8360 C.3   298  TRP298      0.0550
     45  CG        44.4020   12.6340   21.5130 C.ar  298  TRP298      0.0003
     46  CD1       45.6120   13.2660   21.6240 C.ar  298  TRP298      0.0946
     47  CD2       44.5630   11.3470   22.1280 C.ar  298  TRP298      0.0152
     48  NE1       46.5110   12.4460   22.2660 N.ar  298  TRP298     -0.2442
     49  CE2       45.8940   11.2650   22.5840 C.ar  298  TRP298      0.0810
     50  CE3       43.7090   10.2570   22.3360 C.ar  298  TRP298      0.0012
     51  CZ2       46.3920   10.1330   23.2340 C.ar  298  TRP298      0.0191
     52  CZ3       44.2050    9.1300   22.9850 C.ar  298  TRP298      0.0001
     53  CH2       45.5350    9.0780   23.4240 C.ar  298  TRP298      0.0015
     54  N         38.8210    9.2910   18.6600 N.3   302  PHE302     -0.1241
     55  CA        37.5250    9.0840   19.3000 C.3   302  PHE302      0.1605
     56  C         36.3770    9.0470   18.2990 C.2   302  PHE302      0.2264
     57  O         35.4470    8.2570   18.4380 O.2   302  PHE302     -0.2867
     58  CB        37.2740   10.1600   20.3560 C.3   302  PHE302      0.0534
     59  CG        38.1100    9.9930   21.5850 C.ar  302  PHE302     -0.0203
     60  CD1       39.1330   10.8920   21.8810 C.ar  302  PHE302     -0.0042
     61  CD2       37.8870    8.9290   22.4470 C.ar  302  PHE302     -0.0042
     62  CE1       39.9180   10.7300   23.0230 C.ar  302  PHE302     -0.0003
     63  CE2       38.6740    8.7620   23.5930 C.ar  302  PHE302     -0.0003
     64  CZ        39.6870    9.6650   23.8770 C.ar  302  PHE302     -0.0000
     65  N         42.3030   20.5680   29.7300 N.3   361  HIS361     -0.1241
     66  CA        42.1790   19.1170   29.7300 C.3   361  HIS361      0.1621
     67  C         42.4070   18.4550   31.1100 C.2   361  HIS361      0.2264
     68  O         41.6110   17.6200   31.5610 O.2   361  HIS361     -0.2867
     69  CB        43.1510   18.5360   28.7130 C.3   361  HIS361      0.0745
     70  CG        42.9590   17.0750   28.4590 C.ar  361  HIS361      0.0817
     71  ND1       41.7990   16.5610   27.9180 N.ar  361  HIS361     -0.2268
     72  CD2       43.7920   16.0220   28.6360 C.ar  361  HIS361      0.1154
     73  CE1       41.9290   15.2550   27.7700 C.ar  361  HIS361      0.1986
     74  NE2       43.1290   14.9020   28.1970 N.ar  361  HIS361     -0.2212
     75  N         40.0720   16.3410   33.6620 N.3   365  HIS365     -0.1241
     76  CA        40.5140   15.0560   34.1920 C.3   365  HIS365      0.1621
     77  C         40.1350   14.8840   35.6680 C.2   365  HIS365      0.2264
     78  O         39.4610   13.9240   36.0420 O.2   365  HIS365     -0.2867
     79  CB        42.0390   14.9180   34.0710 C.3   365  HIS365      0.0745
     80  CG        42.4850   14.0610   32.9290 C.ar  365  HIS365      0.0817
     81  ND1       43.3790   13.0250   33.0860 N.ar  365  HIS365     -0.2268
     82  CD2       42.1920   14.1090   31.6090 C.ar  365  HIS365      0.1154
     83  CE1       43.6200   12.4720   31.9130 C.ar  365  HIS365      0.1986
     84  NE2       42.9120   13.1110   31.0010 N.ar  365  HIS365     -0.2212
     85  N         36.0420   10.3480   26.2650 N.3   402  ASN402     -0.1240
     86  CA        36.8340   10.7880   27.4060 C.3   402  ASN402      0.1653
     87  C         36.2610   10.4080   28.7630 C.2   402  ASN402      0.2266
     88  O         37.0100   10.1480   29.7060 O.2   402  ASN402     -0.2867
     89  CB        37.0590   12.2930   27.3400 C.3   402  ASN402      0.1155
     90  CG        38.2950   12.6550   26.5600 C.2   402  ASN402      0.2627
     91  OD1       39.4140   12.4450   27.0220 O.2   402  ASN402     -0.2716
     92  ND2       38.1040   13.1910   25.3670 N.am  402  ASN402     -0.0877
     93  N         37.1810    7.0240   29.3710 N.3   405  TRP405     -0.1227
     94  CA        38.6110    6.9490   29.6280 C.3   405  TRP405      0.1737
     95  C         38.8860    7.3050   31.0820 C.2   405  TRP405      0.2595
     96  O         39.5280    6.5360   31.7970 O.2   405  TRP405     -0.2718
     97  CB        39.3610    7.9010   28.6810 C.3   405  TRP405      0.0564
     98  CG        40.8600    7.8430   28.7800 C.ar  405  TRP405      0.0003
     99  CD1       41.6190    8.1060   29.8820 C.ar  405  TRP405      0.0946
    100  CD2       41.7790    7.5370   27.7260 C.ar  405  TRP405      0.0152
    101  NE1       42.9530    7.9880   29.5830 N.ar  405  TRP405     -0.2442
    102  CE2       43.0830    7.6400   28.2660 C.ar  405  TRP405      0.0810
    103  CE3       41.6300    7.1890   26.3790 C.ar  405  TRP405      0.0012
    104  CZ2       44.2340    7.4060   27.5050 C.ar  405  TRP405      0.0191
    105  CZ3       42.7720    6.9550   25.6200 C.ar  405  TRP405      0.0001
    106  CH2       44.0620    7.0660   26.1900 C.ar  405  TRP405      0.0015
    107  N         38.3890    8.4580   31.5200 N.am  406  LEU406     -0.1980
    108  CA        38.6070    8.9030   32.8950 C.3   406  LEU406      0.1596
    109  C         37.9190    8.0360   33.9480 C.2   406  LEU406      0.2287
    110  O         38.2640    8.0980   35.1260 O.2   406  LEU406     -0.2864
    111  CB        38.1750   10.3650   33.0580 C.3   406  LEU406      0.0297
    112  CG        39.2050   11.4170   32.6260 C.3   406  LEU406      0.0022
    113  CD1       40.3480   11.4720   33.6520 C.3   406  LEU406      0.0001
    114  CD2       39.7220   11.0900   31.2220 C.3   406  LEU406      0.0001
@<TRIPOS>BOND
     1    56    57    2
     2    56    55    1
     3    40    41    1
     4    33    34    2
     5    33    32    1
     6    54    55    1
     7    31    32    1
     8    42    43    2
     9    42    41    1
    10    55    58    1
    11    41    44    1
    12    32    35    1
    13    35    36    1
    14    58    59    1
    15    17    18    1
    16    17    23    1
    17    44    45    1
    18    18    19    1
    19    18    21    1
    20    36    37    1
    21    20    19    2
    22    45    46   ar
    23    45    47   ar
    24    59    60   ar
    25    59    61   ar
    26    46    48   ar
    27    19    24   am
    28    23    22    1
    29    60    62   ar
    30    21    22    1
    31    39    37   am
    32    47    50   ar
    33    47    49   ar
    34    26    27    2
    35    26    25    1
    36    37    38    2
    37    48    49   ar
    38    50    52   ar
    39    24    25    1
    40    61    63   ar
    41    49    51   ar
    42    52    53   ar
    43    25    28    1
    44    62    64   ar
    45    51    53   ar
    46    30    28    1
    47    63    64   ar
    48    28    29    1
    49     9     8    1
    50     6     5    1
    51     6     7    1
    52    92    90   am
    53     1     2    1
    54     5     2    1
    55   105   106   ar
    56   105   103   ar
    57     8     7    1
    58   106   104   ar
    59     2     3    1
    60    85    86    1
    61   103   100   ar
    62    90    91    2
    63    90    89    1
    64    16    10    1
    65    16    15    1
    66    89    86    1
    67    86    87    1
    68   104   102   ar
    69     3    10   am
    70     3     4    2
    71   100   102   ar
    72   100    98   ar
    73    73    71   ar
    74    73    74   ar
    75    71    70   ar
    76    10    11    1
    77    74    72   ar
    78    15    14    1
    79   102   101   ar
    80    70    72   ar
    81    70    69    1
    82    97    98    1
    83    97    94    1
    84    69    66    1
    85    87    88    2
    86    98    99   ar
    87    93    94    1
    88    14    11    1
    89    11    12    1
    90   101    99   ar
    91    94    95    1
    92    65    66    1
    93    66    67    1
    94    12    13    2
    95    84    82   ar
    96    84    83   ar
    97    95   107   am
    98    95    96    2
    99    67    68    2
   100   114   112    1
   101   107   108    1
   102    82    80   ar
   103    83    81   ar
   104   112   111    1
   105   112   113    1
   106   108   111    1
   107   108   109    1
   108    80    81   ar
   109    80    79    1
   110    75    76    1
   111   109   110    2
   112    79    76    1
   113    76    77    1
   114    77    78    2
