@<TRIPOS>MOLECULE
tmp/3fy9A01.pdb
 145 137 0 0 0
SMALL
GASTEIGER

@<TRIPOS>ATOM
      1  N         23.1240   10.4290   35.9340 N.3     5  LEU5       -0.1231
      2  CA        23.9980    9.5290   36.6760 C.3     5  LEU5        0.1693
      3  C         23.9710    9.9350   38.1420 C.2     5  LEU5        0.2592
      4  O         24.3360   11.0570   38.4790 O.2     5  LEU5       -0.2718
      5  CB        25.4210    9.6420   36.1330 C.3     5  LEU5        0.0284
      6  CG        26.5000    8.6360   36.5700 C.3     5  LEU5        0.0019
      7  CD1       26.1060    7.2210   36.1930 C.3     5  LEU5        0.0001
      8  CD2       27.8350    9.0110   35.9280 C.3     5  LEU5        0.0001
      9  N         23.5290    9.0230   39.0050 N.am    6  VAL6       -0.1966
     10  CA        23.2700    9.3260   40.4120 C.3     6  VAL6        0.1727
     11  C         23.3790    8.0410   41.2610 C.2     6  VAL6        0.2616
     12  O         23.0300    6.9370   40.8230 O.2     6  VAL6       -0.2715
     13  CB        21.8680    9.9770   40.6090 C.3     6  VAL6        0.0290
     14  CG1       20.7740    8.9020   40.6500 C.3     6  VAL6        0.0023
     15  CG2       21.8400   10.8060   41.8640 C.3     6  VAL6        0.0023
     16  N         23.8730    8.2020   42.4840 N.am    7  ALA7       -0.1977
     17  CA        23.6620    7.2090   43.5280 C.3     7  ALA7        0.1597
     18  C         22.7280    7.7930   44.5800 C.2     7  ALA7        0.2287
     19  O         22.9640    8.9020   45.0850 O.2     7  ALA7       -0.2864
     20  CB        24.9870    6.8050   44.1510 C.3     7  ALA7        0.0319
     21  N         20.9470   11.6950   48.4840 N.3    14  ILE14      -0.1245
     22  CA        22.1180   11.7630   47.6160 C.3    14  ILE14       0.1561
     23  C         23.3200   12.4370   48.3110 C.2    14  ILE14       0.2260
     24  O         24.4670   12.2800   47.8860 O.2    14  ILE14      -0.2867
     25  CB        21.7680   12.4510   46.2420 C.3    14  ILE14       0.0252
     26  CG1       21.3920   13.9330   46.3990 C.3    14  ILE14       0.0019
     27  CG2       20.6440   11.7000   45.5410 C.3    14  ILE14       0.0019
     28  CD1       21.4230   14.7050   45.0860 C.3    14  ILE14       0.0001
     29  N         27.2060   18.5910   51.3230 N.3    18  ASN18      -0.1225
     30  CA        27.9260   18.8100   50.0750 C.3    18  ASN18       0.1785
     31  C         28.9640   17.7030   49.8370 C.2    18  ASN18       0.2597
     32  O         29.9780   17.9280   49.1890 O.2    18  ASN18      -0.2718
     33  CB        28.6050   20.1930   50.0900 C.3    18  ASN18       0.1169
     34  CG        27.6360   21.3280   49.7580 C.2    18  ASN18       0.2627
     35  OD1       26.6380   21.1240   49.0590 O.2    18  ASN18      -0.2716
     36  ND2       27.9270   22.5280   50.2590 N.am   18  ASN18      -0.0877
     37  N         28.6850   16.5070   50.3640 N.am   19  GLN19      -0.1965
     38  CA        29.4600   15.3060   50.0550 C.3    19  GLN19       0.1733
     39  C         28.5950   14.0650   49.9140 C.2    19  GLN19       0.2616
     40  O         27.4270   14.0340   50.3150 O.2    19  GLN19      -0.2715
     41  CB        30.4680   15.0440   51.1530 C.3    19  GLN19       0.0408
     42  CG        31.4210   16.1790   51.3920 C.3    19  GLN19       0.0908
     43  CD        32.5340   15.7680   52.3160 C.2    19  GLN19       0.2608
     44  OE1       33.2740   14.8250   52.0270 O.2    19  GLN19      -0.2717
     45  NE2       32.6680   16.4710   53.4370 N.am   19  GLN19      -0.0878
     46  N         29.1880   13.0210   49.3570 N.am   20  LEU20      -0.1977
     47  CA        28.5560   11.7130   49.3720 C.3    20  LEU20       0.1596
     48  C         28.4470   11.2840   50.8210 C.2    20  LEU20       0.2287
     49  O         29.3630   11.5230   51.5980 O.2    20  LEU20      -0.2864
     50  CB        29.3780   10.7120   48.5580 C.3    20  LEU20       0.0297
     51  CG        29.4670   10.9780   47.0440 C.3    20  LEU20       0.0022
     52  CD1       30.3350    9.9330   46.3750 C.3    20  LEU20       0.0001
     53  CD2       28.0850   11.0500   46.3780 C.3    20  LEU20       0.0001
     54  N         31.2880    2.3320   43.2200 N.3    27  ASP27      -0.1225
     55  CA        30.3400    3.1820   42.5040 C.3    27  ASP27       0.1805
     56  C         31.0690    4.3230   41.8150 C.2    27  ASP27       0.2597
     57  O         30.6610    4.7730   40.7490 O.2    27  ASP27      -0.2718
     58  CB        29.2740    3.7420   43.4430 C.3    27  ASP27       0.1424
     59  CG        28.1900    4.5180   42.6990 C.2    27  ASP27       0.3668
     60  OD1       27.9240    5.7030   43.0380 O.co2  27  ASP27      -0.2456
     61  OD2       27.6110    3.9320   41.7620 O.co2  27  ASP27      -0.2456
     62  N         32.1610    4.7790   42.4120 N.am   28  LEU28      -0.1979
     63  CA        32.9320    5.8510   41.8040 C.3    28  LEU28       0.1596
     64  C         33.6650    5.3230   40.5720 C.2    28  LEU28       0.2287
     65  O         33.8010    6.0250   39.5710 O.2    28  LEU28      -0.2864
     66  CB        33.9410    6.4410   42.7900 C.3    28  LEU28       0.0297
     67  CG        33.4560    7.0480   44.1150 C.3    28  LEU28       0.0022
     68  CD1       34.6930    7.4300   44.9450 C.3    28  LEU28       0.0001
     69  CD2       32.5190    8.2450   43.9050 C.3    28  LEU28       0.0001
     70  N         32.3360    2.8010   38.8170 N.3    30  HIS30      -0.1226
     71  CA        31.1760    2.7940   37.9240 C.3    30  HIS30       0.1752
     72  C         31.0320    4.1330   37.2010 C.2    30  HIS30       0.2595
     73  O         30.7820    4.1740   35.9970 O.2    30  HIS30      -0.2718
     74  CB        29.9170    2.4700   38.7330 C.3    30  HIS30       0.0759
     75  CG        28.7000    2.1930   37.9040 C.ar   30  HIS30       0.0818
     76  ND1       27.5040    2.8560   38.0950 N.ar   30  HIS30      -0.2268
     77  CD2       28.4850    1.3210   36.8930 C.ar   30  HIS30       0.1154
     78  CE1       26.6040    2.3970   37.2430 C.ar   30  HIS30       0.1986
     79  NE2       27.1740    1.4660   36.5010 N.ar   30  HIS30      -0.2212
     80  N         31.2130    5.2240   37.9360 N.am   31  VAL31      -0.1980
     81  CA        31.1320    6.5690   37.3690 C.3    31  VAL31       0.1595
     82  C         32.1910    6.7860   36.2840 C.2    31  VAL31       0.2287
     83  O         31.8910    7.2820   35.1980 O.2    31  VAL31      -0.2864
     84  CB        31.3030    7.6530   38.4760 C.3    31  VAL31       0.0276
     85  CG1       31.8130    8.9690   37.8750 C.3    31  VAL31       0.0022
     86  CG2       29.9990    7.8830   39.2170 C.3    31  VAL31       0.0022
     87  N         28.1100   20.9930   43.1360 N.3    46  THR46      -0.1218
     88  CA        28.7100   19.6750   42.9330 C.3    46  THR46       0.1862
     89  C         30.1700   19.8150   42.4490 C.2    46  THR46       0.2287
     90  O         31.0300   19.0520   42.8830 O.2    46  THR46      -0.2866
     91  CB        27.8800   18.7850   41.9390 C.3    46  THR46       0.1770
     92  OG1       26.6560   18.3840   42.5520 O.3    46  THR46      -0.2211
     93  CG2       28.6330   17.5210   41.5500 C.3    46  THR46       0.0375
     94  N         32.3410   20.4710   45.3200 N.3    49  SER49      -0.1202
     95  CA        32.5410   19.1110   45.8300 C.3    49  SER49       0.2020
     96  C         33.7110   18.3760   45.1650 C.2    49  SER49       0.2618
     97  O         34.6330   17.9390   45.8450 O.2    49  SER49      -0.2717
     98  CB        31.2630   18.2770   45.6620 C.3    49  SER49       0.2103
     99  OG        30.3080   18.5740   46.6700 O.3    49  SER49      -0.2182
    100  N         33.6730   18.1880   43.8500 N.am   50  ILE50      -0.1979
    101  CA        34.7170   17.3760   43.2280 C.3    50  ILE50       0.1595
    102  C         36.0210   18.1560   43.2670 C.2    50  ILE50       0.2287
    103  O         37.0800   17.5970   43.5470 O.2    50  ILE50      -0.2864
    104  CB        34.3750   16.8970   41.7720 C.3    50  ILE50       0.0276
    105  CG1       34.2190   18.0770   40.8130 C.3    50  ILE50       0.0022
    106  CG2       33.0910   16.0640   41.7670 C.3    50  ILE50       0.0022
    107  CD1       34.0630   17.6580   39.3250 C.3    50  ILE50       0.0001
    108  N         37.0520   16.3610   36.1620 N.3    54  LEU54      -0.1245
    109  CA        37.4590   14.9670   36.0660 C.3    54  LEU54       0.1561
    110  C         38.1230   14.7240   34.7220 C.2    54  LEU54       0.2260
    111  O         37.5880   15.1100   33.6820 O.2    54  LEU54      -0.2867
    112  CB        36.2530   14.0470   36.2290 C.3    54  LEU54       0.0270
    113  CG        35.6630   14.0680   37.6390 C.3    54  LEU54       0.0019
    114  CD1       34.3570   13.3250   37.6810 C.3    54  LEU54       0.0001
    115  CD2       36.6670   13.4640   38.6310 C.3    54  LEU54       0.0001
    116  N         25.3120   15.1140   36.3020 N.3    92  PHE92      -0.1241
    117  CA        26.2920   14.5690   37.2260 C.3    92  PHE92       0.1605
    118  C         25.9340   14.8980   38.6770 C.2    92  PHE92       0.2264
    119  O         26.5160   14.3460   39.6070 O.2    92  PHE92      -0.2867
    120  CB        27.6610   15.1570   36.8990 C.3    92  PHE92       0.0534
    121  CG        28.7910   14.3860   37.4650 C.ar   92  PHE92      -0.0203
    122  CD1       29.7840   15.0240   38.1970 C.ar   92  PHE92      -0.0042
    123  CD2       28.8720   13.0130   37.2690 C.ar   92  PHE92      -0.0042
    124  CE1       30.8370   14.2980   38.7180 C.ar   92  PHE92      -0.0003
    125  CE2       29.9220   12.2860   37.7900 C.ar   92  PHE92      -0.0003
    126  CZ        30.9060   12.9190   38.5070 C.ar   92  PHE92      -0.0000
    127  N         19.1260   17.5300   39.1580 N.3    98  TYR98      -0.1241
    128  CA        18.2890   16.3480   38.9780 C.3    98  TYR98       0.1605
    129  C         16.8030   16.7440   38.9180 C.2    98  TYR98       0.2264
    130  O         16.0400   16.2810   38.0640 O.2    98  TYR98      -0.2867
    131  CB        18.5410   15.3620   40.1110 C.3    98  TYR98       0.0534
    132  CG        19.9380   14.7420   40.1270 C.ar   98  TYR98      -0.0201
    133  CD1       20.5200   14.2110   38.9690 C.ar   98  TYR98      -0.0009
    134  CD2       20.6590   14.6650   41.3140 C.ar   98  TYR98      -0.0009
    135  CE1       21.7970   13.6200   38.9990 C.ar   98  TYR98       0.0417
    136  CE2       21.9150   14.1000   41.3600 C.ar   98  TYR98       0.0417
    137  CZ        22.4840   13.5730   40.2020 C.ar   98  TYR98       0.1957
    138  OH        23.7340   13.0020   40.2970 O.3    98  TYR98      -0.2866
    139  N         22.6780    4.1970   40.8550 N.3   111  THR111     -0.1218
    140  CA        23.0820    3.2470   41.8870 C.3   111  THR111      0.1862
    141  C         22.2210    3.3840   43.1390 C.2   111  THR111      0.2287
    142  O         22.1640    4.4530   43.7650 O.2   111  THR111     -0.2866
    143  CB        24.5370    3.5050   42.2860 C.3   111  THR111      0.1770
    144  OG1       25.3400    3.5820   41.1060 O.3   111  THR111     -0.2211
    145  CG2       25.0530    2.4120   43.2230 C.3   111  THR111      0.0375
@<TRIPOS>BOND
     1   111   110    2
     2   110   109    1
     3    83    82    2
     4     8     6    1
     5     1     2    1
     6    73    72    2
     7   109   108    1
     8   109   112    1
     9     5     6    1
    10     5     2    1
    11     7     6    1
    12   112   113    1
    13    82    81    1
    14   116   117    1
    15    79    77   ar
    16    79    78   ar
    17     2     3    1
    18    77    75   ar
    19   120   117    1
    20   120   121    1
    21    72    71    1
    22    72    80   am
    23   117   118    1
    24    78    76   ar
    25   123   121   ar
    26   123   125   ar
    27    81    80    1
    28    81    84    1
    29   121   122   ar
    30   113   114    1
    31   113   115    1
    32   125   126   ar
    33    85    84    1
    34    75    76   ar
    35    75    74    1
    36    71    74    1
    37    71    70    1
    38   130   129    2
    39     3     4    2
    40     3     9   am
    41   122   124   ar
    42    84    86    1
    43   126   124   ar
    44   118   119    2
    45   129   128    1
    46   133   135   ar
    47   133   132   ar
    48   128   127    1
    49   128   131    1
    50   135   137   ar
    51     9    10    1
    52   107   105    1
    53    65    64    2
    54   131   132    1
    55   132   134   ar
    56   137   138    1
    57   137   136   ar
    58    10    13    1
    59    10    11    1
    60    64    63    1
    61    13    14    1
    62    13    15    1
    63    57    56    2
    64   105   104    1
    65    12    11    2
    66   139   140    1
    67   144   143    1
    68    11    16   am
    69   134   136   ar
    70    93    91    1
    71    61    59   ar
    72   106   104    1
    73   104   101    1
    74    63    62    1
    75    63    66    1
    76    56    62   am
    77    56    55    1
    78   140   143    1
    79   140   141    1
    80    91    92    1
    81    91    88    1
    82   143   145    1
    83    89    90    2
    84    89    88    1
    85    16    17    1
    86    55    54    1
    87    55    58    1
    88    59    60   ar
    89    59    58    1
    90    66    67    1
    91    88    87    1
    92   141   142    2
    93   101   102    1
    94   101   100    1
    95   102   103    2
    96    17    20    1
    97    17    18    1
    98   100    96   am
    99    69    67    1
   100    67    68    1
   101    18    19    2
   102    28    26    1
   103    96    95    1
   104    96    97    2
   105    94    95    1
   106    27    25    1
   107    98    95    1
   108    98    99    1
   109    25    26    1
   110    25    22    1
   111    52    51    1
   112    53    51    1
   113    51    50    1
   114    22    23    1
   115    22    21    1
   116    24    23    2
   117    50    47    1
   118    35    34    2
   119    32    31    2
   120    46    47    1
   121    46    39   am
   122    47    48    1
   123    34    33    1
   124    34    36   am
   125    31    30    1
   126    31    37   am
   127    39    38    1
   128    39    40    2
   129    38    37    1
   130    38    41    1
   131    30    33    1
   132    30    29    1
   133    48    49    2
   134    41    42    1
   135    42    43    1
   136    44    43    2
   137    43    45   am
