@<TRIPOS>MOLECULE
tmp/3fyeA06.pdb
 156 148 0 0 0
SMALL
GASTEIGER

@<TRIPOS>ATOM
      1  N        -15.3450   -3.3940    0.6200 N.3     4  TRP4       -0.1241
      2  CA       -15.4930   -4.4230    1.6450 C.3     4  TRP4        0.1605
      3  C        -14.2610   -4.4670    2.5190 C.2     4  TRP4        0.2264
      4  O        -14.3440   -4.5880    3.7500 O.2     4  TRP4       -0.2867
      5  CB       -15.6880   -5.7910    0.9870 C.3     4  TRP4        0.0550
      6  CG       -17.0880   -6.2430    1.0870 C.ar    4  TRP4        0.0003
      7  CD1      -18.0630   -6.1110    0.1410 C.ar    4  TRP4        0.0946
      8  CD2      -17.7040   -6.8670    2.2230 C.ar    4  TRP4        0.0152
      9  NE1      -19.2520   -6.6290    0.6100 N.ar    4  TRP4       -0.2442
     10  CE2      -19.0620   -7.0980    1.8870 C.ar    4  TRP4        0.0810
     11  CE3      -17.2420   -7.2560    3.4920 C.ar    4  TRP4        0.0012
     12  CZ2      -19.9640   -7.7100    2.7720 C.ar    4  TRP4        0.0191
     13  CZ3      -18.1360   -7.8620    4.3700 C.ar    4  TRP4        0.0001
     14  CH2      -19.4850   -8.0800    4.0060 C.ar    4  TRP4        0.0015
     15  N        -19.0490   -6.2590   11.8650 N.3    11  LYS11      -0.1231
     16  CA       -19.8440   -7.2120   11.0810 C.3    11  LYS11       0.1693
     17  C        -19.1910   -7.5200    9.7430 C.2    11  LYS11       0.2592
     18  O        -19.1370   -8.6830    9.3390 O.2    11  LYS11      -0.2718
     19  CB       -21.2890   -6.7250   10.8720 C.3    11  LYS11       0.0285
     20  CG       -22.1110   -6.6020   12.1780 C.3    11  LYS11       0.0035
     21  CD       -23.5560   -6.1260   11.9270 C.3    11  LYS11       0.0206
     22  CE       -23.6030   -4.6480   11.5070 C.3    11  LYS11       0.1093
     23  NZ       -23.2000   -3.7300   12.6500 N.3    11  LYS11      -0.1314
     24  N        -18.6940   -6.4830    9.0680 N.am   12  ASP12      -0.1974
     25  CA       -17.9950   -6.6520    7.7920 C.3    12  ASP12       0.1709
     26  C        -16.6570   -7.3830    7.9430 C.2    12  ASP12       0.2293
     27  O        -16.3050   -8.2030    7.0970 O.2    12  ASP12      -0.2864
     28  CB       -17.7540   -5.3030    7.1200 C.3    12  ASP12       0.1436
     29  CG       -19.0480   -4.5800    6.7830 C.2    12  ASP12       0.3671
     30  OD1      -20.0610   -5.2510    6.4710 O.co2  12  ASP12      -0.2456
     31  OD2      -19.0450   -3.3400    6.8230 O.co2  12  ASP12      -0.2456
     32  N        -17.3520  -11.0950    8.5550 N.3    15  VAL15      -0.1245
     33  CA       -17.6940  -11.7890    7.3170 C.3    15  VAL15       0.1561
     34  C        -16.4300  -12.0510    6.4870 C.2    15  VAL15       0.2260
     35  O        -16.2820  -13.1240    5.9060 O.2    15  VAL15      -0.2867
     36  CB       -18.7900  -11.0260    6.4940 C.3    15  VAL15       0.0252
     37  CG1      -18.9030  -11.5510    5.0660 C.3    15  VAL15       0.0019
     38  CG2      -20.1520  -11.1150    7.1980 C.3    15  VAL15       0.0019
     39  N        -14.6040  -14.9720    7.9700 N.3    18  LEU18      -0.1231
     40  CA       -15.2870  -16.2400    7.7550 C.3    18  LEU18       0.1693
     41  C        -15.0350  -16.7480    6.3410 C.2    18  LEU18       0.2592
     42  O        -14.7040  -17.9240    6.1620 O.2    18  LEU18      -0.2718
     43  CB       -16.7970  -16.1450    8.0250 C.3    18  LEU18       0.0284
     44  CG       -17.2940  -16.1900    9.4650 C.3    18  LEU18       0.0019
     45  CD1      -18.7780  -15.7720    9.5000 C.3    18  LEU18       0.0001
     46  CD2      -17.1050  -17.5890   10.0980 C.3    18  LEU18       0.0001
     47  N        -15.1770  -15.8640    5.3480 N.am   19  PHE19      -0.1976
     48  CA       -14.9450  -16.2590    3.9580 C.3    19  PHE19       0.1639
     49  C        -13.4910  -16.6280    3.7060 C.2    19  PHE19       0.2290
     50  O        -13.2110  -17.5190    2.8960 O.2    19  PHE19      -0.2864
     51  CB       -15.3290  -15.1600    2.9750 C.3    19  PHE19       0.0560
     52  CG       -16.7660  -15.1770    2.5740 C.ar   19  PHE19      -0.0200
     53  CD1      -17.2770  -16.2180    1.8030 C.ar   19  PHE19      -0.0042
     54  CD2      -17.6090  -14.1270    2.9370 C.ar   19  PHE19      -0.0042
     55  CE1      -18.6220  -16.2320    1.4270 C.ar   19  PHE19      -0.0003
     56  CE2      -18.9540  -14.1220    2.5480 C.ar   19  PHE19      -0.0003
     57  CZ       -19.4630  -15.1760    1.7930 C.ar   19  PHE19      -0.0000
     58  N        -12.6300  -19.8530    5.4190 N.3    22  GLY22      -0.1225
     59  CA       -13.2400  -20.8770    4.5640 C.3    22  GLY22       0.1811
     60  C        -12.4260  -21.2140    3.3240 C.2    22  GLY22       0.2280
     61  O        -12.3050  -22.3910    2.9470 O.2    22  GLY22      -0.2866
     62  N        -18.1300  -10.6640   14.5170 N.3   106  TYR106     -0.1241
     63  CA       -19.5300  -10.4380   14.1670 C.3   106  TYR106      0.1605
     64  C        -20.4100  -10.3720   15.4160 C.2   106  TYR106      0.2264
     65  O        -21.1380   -9.3950   15.6060 O.2   106  TYR106     -0.2867
     66  CB       -20.0830  -11.4980   13.1890 C.3   106  TYR106      0.0534
     67  CG       -21.3090  -11.0140   12.4250 C.ar  106  TYR106     -0.0201
     68  CD1      -22.5700  -10.9390   13.0410 C.ar  106  TYR106     -0.0009
     69  CD2      -21.2010  -10.6160   11.1010 C.ar  106  TYR106     -0.0009
     70  CE1      -23.6940  -10.4790   12.3390 C.ar  106  TYR106      0.0417
     71  CE2      -22.2960  -10.1760   10.3990 C.ar  106  TYR106      0.0417
     72  CZ       -23.5390  -10.0980   11.0240 C.ar  106  TYR106      0.1957
     73  OH       -24.6060   -9.6380   10.2990 O.3   106  TYR106     -0.2866
     74  N        -22.3240  -21.5350   11.4360 N.3   420  ILE420     -0.1245
     75  CA       -22.7010  -21.1210   10.1130 C.3   420  ILE420      0.1561
     76  C        -24.2020  -21.3940    9.8630 C.2   420  ILE420      0.2260
     77  O        -24.9100  -20.5220    9.3930 O.2   420  ILE420     -0.2867
     78  CB       -21.8140  -21.7940    9.0360 C.3   420  ILE420      0.0252
     79  CG1      -20.4180  -21.1450    9.0030 C.3   420  ILE420      0.0019
     80  CG2      -22.4580  -21.7080    7.6480 C.3   420  ILE420      0.0019
     81  CD1      -19.4240  -21.8820    8.1350 C.3   420  ILE420      0.0001
     82  N        -26.3300  -18.0710    9.5530 N.3   424  ILE424     -0.1245
     83  CA       -26.2850  -17.6170    8.1650 C.3   424  ILE424      0.1561
     84  C        -27.5100  -16.7520    7.7510 C.2   424  ILE424      0.2260
     85  O        -27.3570  -15.7680    7.0200 O.2   424  ILE424     -0.2867
     86  CB       -26.0040  -18.7670    7.1410 C.3   424  ILE424      0.0252
     87  CG1      -25.7400  -18.1790    5.7510 C.3   424  ILE424      0.0019
     88  CG2      -27.1380  -19.8210    7.1440 C.3   424  ILE424      0.0019
     89  CD1      -25.1190  -19.1710    4.7030 C.3   424  ILE424      0.0001
     90  N        -26.9340  -13.3070    9.3370 N.3   427  MET427     -0.1230
     91  CA       -25.8650  -12.5660    8.6960 C.3   427  MET427      0.1702
     92  C        -26.2150  -12.1460    7.2770 C.2   427  MET427      0.2593
     93  O        -25.7970  -11.0780    6.8390 O.2   427  MET427     -0.2718
     94  CB       -24.5630  -13.3830    8.6800 C.3   427  MET427      0.0401
     95  CG       -24.0510  -13.8150   10.0630 C.3   427  MET427      0.0596
     96  SD       -22.4270  -14.6220    9.9980 S.3   427  MET427     -0.1393
     97  CE       -22.9320  -16.2950    9.6260 C.3   427  MET427      0.0692
     98  N        -26.9730  -12.9700    6.5530 N.am  428  SER428     -0.1952
     99  CA       -27.1450  -12.7460    5.1090 C.3   428  SER428      0.1924
    100  C        -28.5510  -12.3110    4.6660 C.2   428  SER428      0.2314
    101  O        -28.7130  -11.8000    3.5610 O.2   428  SER428     -0.2863
    102  CB       -26.7550  -13.9940    4.3230 C.3   428  SER428      0.2116
    103  OG       -27.7710  -14.9870    4.4240 O.3   428  SER428     -0.2180
    104  N        -30.7400  -14.5880    4.1290 N.3   430  ARG430     -0.1245
    105  CA       -31.1570  -15.7720    3.3950 C.3   430  ARG430      0.1563
    106  C        -30.9340  -17.0500    4.1940 C.2   430  ARG430      0.2260
    107  O        -29.9260  -17.1950    4.8890 O.2   430  ARG430     -0.2867
    108  CB       -30.4190  -15.8630    2.0660 C.3   430  ARG430      0.0307
    109  CG       -30.8150  -14.7690    1.0660 C.3   430  ARG430      0.0489
    110  CD       -30.4480  -15.1960   -0.3140 C.3   430  ARG430      0.2205
    111  NE       -30.7560  -14.1990   -1.3190 N.pl3 430  ARG430     -0.0865
    112  CZ       -31.8470  -14.2140   -2.0730 C.cat 430  ARG430      0.5346
    113  NH1      -32.7560  -15.1780   -1.9290 N.pl3 430  ARG430      0.1354
    114  NH2      -32.0340  -13.2550   -2.9740 N.pl3 430  ARG430      0.1354
    115  N        -21.1860  -28.8790    0.8960 N.3   495  PHE495     -0.1227
    116  CA       -21.3090  -27.6900    1.7560 C.3   495  PHE495      0.1736
    117  C        -21.0890  -26.3650    1.0330 C.2   495  PHE495      0.2595
    118  O        -21.8820  -25.4380    1.1900 O.2   495  PHE495     -0.2718
    119  CB       -20.3580  -27.7840    2.9510 C.3   495  PHE495      0.0547
    120  CG       -20.1940  -26.4930    3.7150 C.ar  495  PHE495     -0.0202
    121  CD1      -21.1890  -26.0480    4.5770 C.ar  495  PHE495     -0.0042
    122  CD2      -19.0310  -25.7240    3.5700 C.ar  495  PHE495     -0.0042
    123  CE1      -21.0330  -24.8710    5.3040 C.ar  495  PHE495     -0.0003
    124  CE2      -18.8680  -24.5310    4.2750 C.ar  495  PHE495     -0.0003
    125  CZ       -19.8600  -24.1070    5.1490 C.ar  495  PHE495     -0.0000
    126  N        -20.0100  -26.2710    0.2560 N.am  496  LEU496     -0.1980
    127  CA       -19.7020  -25.0490   -0.4770 C.3   496  LEU496      0.1596
    128  C        -20.8190  -24.7730   -1.4870 C.2   496  LEU496      0.2287
    129  O        -21.2010  -23.6250   -1.6650 O.2   496  LEU496     -0.2864
    130  CB       -18.3250  -25.1220   -1.1660 C.3   496  LEU496      0.0297
    131  CG       -17.0740  -25.1720   -0.2600 C.3   496  LEU496      0.0022
    132  CD1      -15.7710  -25.3400   -1.0840 C.3   496  LEU496      0.0001
    133  CD2      -16.9880  -23.9290    0.6210 C.3   496  LEU496      0.0001
    134  N        -23.7070  -23.3500    0.5410 N.3   499  ILE499     -0.1245
    135  CA       -23.4720  -21.9530    0.8720 C.3   499  ILE499      0.1561
    136  C        -23.7000  -21.0500   -0.3540 C.2   499  ILE499      0.2260
    137  O        -24.3050  -19.9780   -0.2430 O.2   499  ILE499     -0.2867
    138  CB       -22.0650  -21.7310    1.4820 C.3   499  ILE499      0.0252
    139  CG1      -21.9040  -22.5080    2.7970 C.3   499  ILE499      0.0019
    140  CG2      -21.8030  -20.2570    1.7260 C.3   499  ILE499      0.0019
    141  CD1      -22.7390  -21.9720    3.9690 C.3   499  ILE499      0.0001
    142  N        -26.6640  -18.1950   -0.4320 N.3   503  LEU503     -0.1245
    143  CA       -26.3650  -16.7730   -0.5650 C.3   503  LEU503      0.1561
    144  C        -26.8940  -16.1650   -1.8590 C.2   503  LEU503      0.2260
    145  O        -27.1100  -14.9560   -1.9210 O.2   503  LEU503     -0.2867
    146  CB       -24.8610  -16.5070   -0.4090 C.3   503  LEU503      0.0270
    147  CG       -24.2190  -16.8340    0.9450 C.3   503  LEU503      0.0019
    148  CD1      -22.7120  -16.5360    0.8940 C.3   503  LEU503      0.0001
    149  CD2      -24.8780  -16.0710    2.0910 C.3   503  LEU503      0.0001
    150  N        -30.4060   -9.1620    7.6120 N.3   529  PRO529     -0.2116
    151  CA       -29.2620   -8.8650    8.4830 C.3   529  PRO529      0.1372
    152  C        -29.5160   -7.6770    9.4220 C.2   529  PRO529      0.2244
    153  O        -30.4390   -6.8970    9.1670 O.2   529  PRO529     -0.2868
    154  CB       -28.1470   -8.5290    7.4890 C.3   529  PRO529      0.0268
    155  CG       -28.8490   -8.0330    6.2910 C.3   529  PRO529      0.0207
    156  CD       -30.1340   -8.8050    6.2080 C.3   529  PRO529      0.0892
@<TRIPOS>BOND
     1   114   112    1
     2   112   113    1
     3   112   111    2
     4   145   144    2
     5   144   143    1
     6   129   128    2
     7   128   127    1
     8   111   110    1
     9   130   127    1
    10   130   131    1
    11   132   131    1
    12   143   142    1
    13   143   146    1
    14   127   126    1
    15   146   147    1
    16   136   137    2
    17   136   135    1
    18   110   109    1
    19   131   133    1
    20     7     9   ar
    21     7     6   ar
    22   126   117   am
    23   134   135    1
    24     9    10   ar
    25     1     2    1
    26   135   138    1
    27   148   147    1
    28   115   116    1
    29   147   149    1
    30     5     6    1
    31     5     2    1
    32   117   118    2
    33   117   116    1
    34   109   108    1
    35     6     8   ar
    36    55    57   ar
    37    55    53   ar
    38   138   140    1
    39   138   139    1
    40     2     3    1
    41   116   119    1
    42    57    56   ar
    43    53    52   ar
    44    10     8   ar
    45    10    12   ar
    46   108   105    1
    47     8    11   ar
    48     3     4    2
    49    56    54   ar
    50    52    54   ar
    51    52    51    1
    52    12    14   ar
    53   139   141    1
    54    50    49    2
    55    61    60    2
    56   119   120    1
    57    51    48    1
    58    60    59    1
    59   105   104    1
    60   105   106    1
    61    11    13   ar
    62   101   100    2
    63   122   120   ar
    64   122   124   ar
    65    49    48    1
    66   120   121   ar
    67    48    47    1
    68    14    13   ar
    69   106   107    2
    70   124   125   ar
    71   102   103    1
    72   102    99    1
    73    59    58    1
    74   121   123   ar
    75   100    99    1
    76    89    87    1
    77    37    36    1
    78    99    98    1
    79   125   123   ar
    80    47    41   am
    81    87    86    1
    82    35    34    2
    83    42    41    2
    84   156   155    1
    85   156   150    1
    86   155   154    1
    87    41    40    1
    88    30    29   ar
    89    34    33    1
    90    36    38    1
    91    36    33    1
    92    98    92   am
    93    29    31   ar
    94    29    28    1
    95    93    92    2
    96    85    84    2
    97    27    26    2
    98    28    25    1
    99    86    88    1
   100    86    83    1
   101    92    91    1
   102    33    32    1
   103   154   151    1
   104   150   151    1
   105    80    78    1
   106    84    83    1
   107    40    39    1
   108    40    43    1
   109    25    26    1
   110    25    24    1
   111    43    44    1
   112    81    79    1
   113    83    82    1
   114   151   152    1
   115    94    91    1
   116    94    95    1
   117    91    90    1
   118    79    78    1
   119    78    75    1
   120    24    17   am
   121   153   152    2
   122    18    17    2
   123    77    76    2
   124    44    45    1
   125    44    46    1
   126    97    96    1
   127    17    16    1
   128    76    75    1
   129    96    95    1
   130    75    74    1
   131    73    72    1
   132    71    72   ar
   133    71    69   ar
   134    19    16    1
   135    19    20    1
   136    72    70   ar
   137    16    15    1
   138    69    67   ar
   139    22    21    1
   140    22    23    1
   141    21    20    1
   142    70    68   ar
   143    67    68   ar
   144    67    66    1
   145    66    63    1
   146    63    62    1
   147    63    64    1
   148    64    65    2
