@<TRIPOS>MOLECULE
tmp/3fyjA00.pdb
 175 162 0 0 0
SMALL
GASTEIGER

@<TRIPOS>ATOM
      1  N         78.5270  266.5430  113.7950 N.3    26  LEU26      -0.1231
      2  CA        78.4780  265.3480  112.9690 C.3    26  LEU26       0.1693
      3  C         79.3080  264.2690  113.6420 C.2    26  LEU26       0.2593
      4  O         78.8820  263.6590  114.6200 O.2    26  LEU26      -0.2718
      5  CB        79.0380  265.6230  111.5700 C.3    26  LEU26       0.0284
      6  CG        78.2220  266.4800  110.6040 C.3    26  LEU26       0.0019
      7  CD1       79.1000  266.9500  109.4550 C.3    26  LEU26       0.0001
      8  CD2       77.0160  265.7170  110.0890 C.3    26  LEU26       0.0001
      9  N         80.4980  264.0360  113.1060 N.am   27  GLY27      -0.1942
     10  CA        81.4130  263.0880  113.6980 C.3    27  GLY27       0.2014
     11  C         81.9520  263.6720  114.9790 C.2    27  GLY27       0.2639
     12  O         82.1450  264.8830  115.0890 O.2    27  GLY27      -0.2714
     13  N         82.1670  262.8060  115.9570 N.am   28  LEU28      -0.1963
     14  CA        82.7990  263.2000  117.1950 C.3    28  LEU28       0.1728
     15  C         84.0780  262.3940  117.2830 C.2    28  LEU28       0.2617
     16  O         84.4820  261.9690  118.3630 O.2    28  LEU28      -0.2715
     17  CB        81.8830  262.9060  118.3880 C.3    28  LEU28       0.0311
     18  CG        80.3790  263.2160  118.2400 C.3    28  LEU28       0.0022
     19  CD1       79.5770  262.0180  117.7020 C.3    28  LEU28       0.0001
     20  CD2       79.7600  263.7040  119.5510 C.3    28  LEU28       0.0001
     21  N         84.7130  262.1960  116.1250 N.am   29  GLY29      -0.1940
     22  CA        85.9670  261.4490  116.0030 C.3    29  GLY29       0.2014
     23  C         87.1820  262.0700  116.6790 C.2    29  GLY29       0.2638
     24  O         87.0650  263.0850  117.3620 O.2    29  GLY29      -0.2714
     25  N         88.3440  261.4460  116.4800 N.am   30  ILE30      -0.1977
     26  CA        89.6020  261.7570  117.1970 C.3    30  ILE30       0.1596
     27  C         89.7120  263.0970  117.9500 C.2    30  ILE30       0.2287
     28  O         89.2110  263.2310  119.0740 O.2    30  ILE30      -0.2864
     29  CB        90.8380  261.5780  116.2780 C.3    30  ILE30       0.0276
     30  CG1       90.6180  262.2820  114.9300 C.3    30  ILE30       0.0022
     31  CG2       91.1330  260.1080  116.1040 C.3    30  ILE30       0.0022
     32  CD1       91.9030  262.7370  114.2480 C.3    30  ILE30       0.0001
     33  N         83.2560  267.0170  114.3030 N.3    34  VAL34      -0.1245
     34  CA        83.0450  267.3140  112.8870 C.3    34  VAL34       0.1561
     35  C         81.8130  268.1980  112.7500 C.2    34  VAL34       0.2260
     36  O         80.7560  267.8560  113.2550 O.2    34  VAL34      -0.2867
     37  CB        82.8470  266.0430  112.0610 C.3    34  VAL34       0.0252
     38  CG1       82.7490  266.3920  110.5690 C.3    34  VAL34       0.0019
     39  CG2       83.9980  265.0910  112.2940 C.3    34  VAL34       0.0019
     40  N         79.0020  270.6370  110.6110 N.3    36  GLN36      -0.1245
     41  CA        78.4050  271.0600  109.3840 C.3    36  GLN36       0.1566
     42  C         79.0150  272.4260  109.0920 C.2    36  GLN36       0.2260
     43  O         79.1880  273.2520  109.9810 O.2    36  GLN36      -0.2867
     44  CB        76.8920  271.1290  109.5490 C.3    36  GLN36       0.0367
     45  CG        76.1260  271.4120  108.2810 C.3    36  GLN36       0.0905
     46  CD        74.6180  271.2920  108.4880 C.2    36  GLN36       0.2608
     47  OE1       74.0380  271.9670  109.3470 O.2    36  GLN36      -0.2717
     48  NE2       73.9750  270.4230  107.6970 N.am   36  GLN36      -0.0878
     49  N         77.4130  272.0880  101.8240 N.3    45  LYS45      -0.1245
     50  CA        77.6990  271.6560  103.2000 C.3    45  LYS45       0.1561
     51  C         78.9600  270.8060  103.3360 C.2    45  LYS45       0.2260
     52  O         79.3170  270.0510  102.4380 O.2    45  LYS45      -0.2867
     53  CB        76.4750  270.9780  103.8490 C.3    45  LYS45       0.0271
     54  CG        76.1810  269.5300  103.4400 C.3    45  LYS45       0.0035
     55  CD        75.7020  269.3800  101.9950 C.3    45  LYS45       0.0206
     56  CE        76.7870  268.8100  101.0900 C.3    45  LYS45       0.1093
     57  NZ        76.3580  268.6570   99.6810 N.3    45  LYS45      -0.1314
     58  N         82.3370  268.9220  105.8830 N.3    47  ALA47      -0.1245
     59  CA        82.9760  268.4390  107.0860 C.3    47  ALA47       0.1562
     60  C         84.0480  269.4070  107.4960 C.2    47  ALA47       0.2260
     61  O         84.7670  269.9240  106.6550 O.2    47  ALA47      -0.2867
     62  CB        83.5910  267.0900  106.8480 C.3    47  ALA47       0.0290
     63  N         87.1530  269.2350  110.4070 N.3    49  LYS49      -0.1245
     64  CA        87.8950  268.5980  111.4850 C.3    49  LYS49       0.1561
     65  C         88.7000  269.7450  112.1340 C.2    49  LYS49       0.2260
     66  O         89.3160  270.5550  111.4380 O.2    49  LYS49      -0.2867
     67  CB        88.7910  267.5080  110.8530 C.3    49  LYS49       0.0271
     68  CG        89.4010  266.3640  111.7090 C.3    49  LYS49       0.0035
     69  CD        89.9010  265.2040  110.7610 C.3    49  LYS49       0.0206
     70  CE        91.1140  264.3710  111.2590 C.3    49  LYS49       0.1093
     71  NZ        91.8430  263.6240  110.1390 N.3    49  LYS49      -0.1314
     72  N         88.4680  259.8830  101.1700 N.3    74  VAL74      -0.1245
     73  CA        87.8580  261.1760  101.4270 C.3    74  VAL74       0.1561
     74  C         88.7910  262.3100  101.0270 C.2    74  VAL74       0.2260
     75  O         89.9780  262.2810  101.3600 O.2    74  VAL74      -0.2867
     76  CB        87.5270  261.3600  102.9090 C.3    74  VAL74       0.0252
     77  CG1       88.8210  261.5880  103.7420 C.3    74  VAL74       0.0019
     78  CG2       86.5600  262.5210  103.0630 C.3    74  VAL74       0.0019
     79  N         86.7440  269.2510  104.5680 N.3    94  MET94      -0.1230
     80  CA        86.6180  268.2330  103.5560 C.3    94  MET94       0.1702
     81  C         85.1950  267.9160  103.2340 C.2    94  MET94       0.2592
     82  O         84.2780  268.2200  103.9870 O.2    94  MET94      -0.2718
     83  CB        87.3170  266.9670  103.9970 C.3    94  MET94       0.0401
     84  CG        86.7580  266.4210  105.2740 C.3    94  MET94       0.0596
     85  SD        88.0640  265.5960  106.1660 S.3    94  MET94      -0.1393
     86  CE        87.5720  265.8760  107.8520 C.3    94  MET94       0.0692
     87  N         85.0420  267.2590  102.0990 N.am   95  GLU95      -0.1966
     88  CA        83.7530  266.8810  101.6260 C.3    95  GLU95       0.1733
     89  C         83.0980  266.1430  102.7380 C.2    95  GLU95       0.2616
     90  O         83.6480  265.2020  103.2700 O.2    95  GLU95      -0.2715
     91  CB        83.8700  265.9940  100.4040 C.3    95  GLU95       0.0429
     92  CG        84.8340  264.8330  100.5420 C.3    95  GLU95       0.1163
     93  CD        84.6570  263.8310   99.4240 C.2    95  GLU95       0.3649
     94  OE1       85.6770  263.4060   98.8450 O.co2  95  GLU95      -0.2457
     95  OE2       83.4990  263.4670   99.1040 O.co2  95  GLU95      -0.2457
     96  N         81.9350  266.6090  103.1330 N.am   96  CYS96      -0.1954
     97  CA        81.1610  265.8710  104.0910 C.3    96  CYS96       0.1843
     98  C         80.7040  264.6010  103.3800 C.2    96  CYS96       0.2625
     99  O         80.8030  264.5200  102.1610 O.2    96  CYS96      -0.2714
    100  CB        79.9830  266.7080  104.5470 C.3    96  CYS96       0.0997
    101  SG        78.7510  266.8110  103.3040 S.3    96  CYS96      -0.0797
    102  N         80.2430  263.5990  104.1310 N.am   97  LEU97      -0.1963
    103  CA        79.8830  262.2920  103.5610 C.3    97  LEU97       0.1728
    104  C         78.7570  261.6040  104.3300 C.2    97  LEU97       0.2616
    105  O         79.0130  260.9670  105.3470 O.2    97  LEU97      -0.2715
    106  CB        81.0820  261.3470  103.5970 C.3    97  LEU97       0.0311
    107  CG        82.2820  261.5560  102.6740 C.3    97  LEU97       0.0022
    108  CD1       83.4790  260.7710  103.1850 C.3    97  LEU97       0.0001
    109  CD2       81.9530  261.2160  101.2220 C.3    97  LEU97       0.0001
    110  N         77.5200  261.7280  103.8530 N.am   98  ASP98      -0.1971
    111  CA        76.3720  261.1260  104.5470 C.3    98  ASP98       0.1709
    112  C         75.8810  259.8120  103.9450 C.2    98  ASP98       0.2293
    113  O         74.8060  259.7410  103.3520 O.2    98  ASP98      -0.2864
    114  CB        75.2040  262.1190  104.6810 C.3    98  ASP98       0.1436
    115  CG        74.5920  262.5300  103.3400 C.2    98  ASP98       0.3671
    116  OD1       75.3230  262.6390  102.3290 O.co2  98  ASP98      -0.2456
    117  OD2       73.3620  262.7660  103.3060 O.co2  98  ASP98      -0.2456
    118  N         78.6460  254.4810  108.4110 N.3   101  GLU101     -0.1245
    119  CA        79.6400  253.4400  108.6660 C.3   101  GLU101      0.1567
    120  C         79.2850  252.1750  107.9030 C.2   101  GLU101      0.2260
    121  O         78.5420  251.3230  108.4150 O.2   101  GLU101     -0.2867
    122  CB        79.7220  253.1380  110.1720 C.3   101  GLU101      0.0388
    123  CG        80.1980  254.3170  111.0220 C.3   101  GLU101      0.1160
    124  CD        80.1830  254.0210  112.5130 C.2   101  GLU101      0.3649
    125  OE1       79.2720  253.2840  112.9730 O.co2 101  GLU101     -0.2457
    126  OE2       81.0880  254.5320  113.2210 O.co2 101  GLU101     -0.2457
    127  N         84.3140  252.1200  111.3280 N.3   146  GLU146     -0.1231
    128  CA        83.8460  253.4630  111.6450 C.3   146  GLU146      0.1699
    129  C         84.3420  254.3850  110.5460 C.2   146  GLU146      0.2592
    130  O         83.6250  255.2680  110.0740 O.2   146  GLU146     -0.2718
    131  CB        84.3980  253.9600  112.9770 C.3   146  GLU146      0.0402
    132  CG        84.0660  253.1150  114.1740 C.3   146  GLU146      0.1161
    133  CD        85.0650  252.0110  114.3900 C.2   146  GLU146      0.3649
    134  OE1       85.7210  251.9850  115.4560 O.co2 146  GLU146     -0.2457
    135  OE2       85.1920  251.1590  113.4960 O.co2 146  GLU146     -0.2457
    136  N         85.5820  254.1710  110.1270 N.am  147  ASN147     -0.1974
    137  CA        86.2060  255.0730  109.1670 C.3   147  ASN147      0.1688
    138  C         85.9850  254.7200  107.6990 C.2   147  ASN147      0.2292
    139  O         86.6350  255.2850  106.8150 O.2   147  ASN147     -0.2864
    140  CB        87.6960  255.2370  109.4650 C.3   147  ASN147      0.1181
    141  CG        87.9540  256.1500  110.6440 C.2   147  ASN147      0.2629
    142  OD1       87.3600  257.2160  110.7540 O.2   147  ASN147     -0.2716
    143  ND2       88.8520  255.7390  111.5270 N.am  147  ASN147     -0.0877
    144  N         83.0550  255.1660  105.3940 N.3   149  LEU149     -0.1245
    145  CA        81.7690  255.7850  105.3040 C.3   149  LEU149      0.1561
    146  C         81.3480  255.9140  103.8930 C.2   149  LEU149      0.2260
    147  O         82.1730  255.8470  103.0020 O.2   149  LEU149     -0.2867
    148  CB        81.8130  257.1510  105.9510 C.3   149  LEU149      0.0270
    149  CG        81.7210  256.8780  107.4440 C.3   149  LEU149      0.0019
    150  CD1       82.5620  257.8580  108.2390 C.3   149  LEU149      0.0001
    151  CD2       80.2360  256.8420  107.9090 C.3   149  LEU149      0.0001
    152  N         73.1840  258.5260  100.6020 N.3   153  LYS153     -0.1245
    153  CA        72.3540  257.4020  100.9900 C.3   153  LYS153      0.1561
    154  C         71.7520  256.7230   99.7640 C.2   153  LYS153      0.2260
    155  O         71.1240  255.6730   99.8870 O.2   153  LYS153     -0.2867
    156  CB        71.2830  257.8530  101.9900 C.3   153  LYS153      0.0271
    157  CG        71.8130  257.9100  103.4210 C.3   153  LYS153      0.0035
    158  CD        71.3590  259.1430  104.1850 C.3   153  LYS153      0.0206
    159  CE        72.1710  259.2990  105.4710 C.3   153  LYS153      0.1093
    160  NZ        71.6900  260.4120  106.3450 N.3   153  LYS153     -0.1314
    161  N         88.7690  257.7020  105.7710 N.3   162  THR162     -0.1203
    162  CA        88.9120  258.9910  106.4170 C.3   162  THR162      0.1994
    163  C         89.7520  258.9350  107.6930 C.2   162  THR162      0.2617
    164  O         90.3800  257.9310  107.9690 O.2   162  THR162     -0.2717
    165  CB        87.5210  259.4240  106.8200 C.3   162  THR162      0.1784
    166  OG1       87.3070  259.1190  108.2020 O.3   162  THR162     -0.2211
    167  CG2       86.4930  258.6610  105.9810 C.3   162  THR162      0.0376
    168  N         89.7370  260.0160  108.4710 N.am  163  ASP163     -0.1973
    169  CA        90.4680  260.1090  109.7520 C.3   163  ASP163      0.1709
    170  C         91.9290  259.7200  109.6780 C.2   163  ASP163      0.2293
    171  O         92.3030  258.5860  109.9750 O.2   163  ASP163     -0.2864
    172  CB        89.8060  259.2770  110.8540 C.3   163  ASP163      0.1436
    173  CG        90.4820  259.4620  112.2290 C.2   163  ASP163      0.3671
    174  OD1       91.4590  260.2320  112.3540 O.co2 163  ASP163     -0.2456
    175  OD2       90.0270  258.8230  113.1930 O.co2 163  ASP163     -0.2456
@<TRIPOS>BOND
     1    94    93   ar
     2    95    93   ar
     3    93    92    1
     4    57    56    1
     5   154   155    2
     6   154   153    1
     7    91    92    1
     8    91    88    1
     9   152   153    1
    10   153   156    1
    11    74    75    2
    12    74    73    1
    13    56    55    1
    14    72    73    1
    15   109   107    1
    16    73    76    1
    17    88    87    1
    18    88    89    1
    19    49    50    1
    20   156   157    1
    21    55    54    1
    22    87    81   am
    23    99    98    2
    24   116   115   ar
    25    52    51    2
    26   107   108    1
    27   107   106    1
    28    89    96   am
    29    89    90    2
    30    76    78    1
    31    76    77    1
    32   147   146    2
    33    96    97    1
    34    50    51    1
    35    50    53    1
    36    81    80    1
    37    81    82    2
    38   101   100    1
    39   117   115   ar
    40   115   114    1
    41   113   112    2
    42    98    97    1
    43    98   102   am
    44   157   158    1
    45    54    53    1
    46    80    83    1
    47    80    79    1
    48   103   106    1
    49   103   102    1
    50   103   104    1
    51   110   104   am
    52   110   111    1
    53   146   145    1
    54   112   111    1
    55    83    84    1
    56    97   100    1
    57   158   159    1
    58   104   105    2
    59   111   114    1
    60    84    85    1
    61   145   144    1
    62   145   148    1
    63   159   160    1
    64   161   162    1
    65    58    59    1
    66   148   149    1
    67   167   165    1
    68    85    86    1
    69   162   165    1
    70   162   163    1
    71    61    60    2
    72   139   138    2
    73   165   166    1
    74    62    59    1
    75    59    60    1
    76   149   151    1
    77   149   150    1
    78   163   164    2
    79   163   168   am
    80    48    46   am
    81   138   137    1
    82   120   121    2
    83   120   119    1
    84    45    46    1
    85    45    44    1
    86   118   119    1
    87   168   169    1
    88    46    47    2
    89   119   122    1
    90    42    41    1
    91    42    43    2
    92   137   140    1
    93   137   136    1
    94    41    44    1
    95    41    40    1
    96     7     6    1
    97   140   141    1
    98   170   169    1
    99   170   171    2
   100   169   172    1
   101   130   129    2
   102     8     6    1
   103   136   129   am
   104    71    70    1
   105   122   123    1
   106    63    64    1
   107   129   128    1
   108    38    37    1
   109     6     5    1
   110   141   142    2
   111   141   143   am
   112    69    70    1
   113    69    68    1
   114    67    64    1
   115    67    68    1
   116   172   173    1
   117   123   124    1
   118   127   128    1
   119    66    65    2
   120    64    65    1
   121     5     2    1
   122   128   131    1
   123    37    39    1
   124    37    34    1
   125   173   174   ar
   126   173   175   ar
   127   124   125   ar
   128   124   126   ar
   129    35    34    1
   130    35    36    2
   131    34    33    1
   132     2     3    1
   133     2     1    1
   134   131   132    1
   135     9     3   am
   136     9    10    1
   137   135   133   ar
   138     3     4    2
   139    10    11    1
   140   132   133    1
   141    32    30    1
   142   133   134   ar
   143    30    29    1
   144    11    12    2
   145    11    13   am
   146    13    14    1
   147    22    21    1
   148    22    23    1
   149    31    29    1
   150    21    15   am
   151    29    26    1
   152    25    23   am
   153    25    26    1
   154    23    24    2
   155    14    15    1
   156    14    17    1
   157    26    27    1
   158    15    16    2
   159    19    18    1
   160    27    28    2
   161    18    17    1
   162    18    20    1
