@<TRIPOS>MOLECULE
tmp/3fykA00.pdb
 142 132 0 0 0
SMALL
GASTEIGER

@<TRIPOS>ATOM
      1  N         78.3340  265.2510  113.1700 N.3    26  LEU26      -0.1231
      2  CA        78.0830  264.0820  112.3510 C.3    26  LEU26       0.1693
      3  C         79.0110  262.9950  112.8830 C.2    26  LEU26       0.2593
      4  O         78.6190  262.1660  113.7050 O.2    26  LEU26      -0.2718
      5  CB        78.3570  264.3800  110.8700 C.3    26  LEU26       0.0284
      6  CG        77.9140  265.7340  110.2810 C.3    26  LEU26       0.0019
      7  CD1       78.6730  266.0920  108.9990 C.3    26  LEU26       0.0001
      8  CD2       76.4120  265.8030  110.0450 C.3    26  LEU26       0.0001
      9  N         80.2570  263.0200  112.4380 N.am   27  GLY27      -0.1942
     10  CA        81.2300  262.0530  112.9070 C.3    27  GLY27       0.2014
     11  C         81.7610  262.4090  114.2770 C.2    27  GLY27       0.2639
     12  O         81.6880  263.5640  114.7090 O.2    27  GLY27      -0.2714
     13  N         82.2940  261.3990  114.9620 N.am   28  LEU28      -0.1963
     14  CA        82.9230  261.5760  116.2620 C.3    28  LEU28       0.1728
     15  C         84.2010  260.7370  116.2850 C.2    28  LEU28       0.2616
     16  O         84.3680  259.8660  117.1380 O.2    28  LEU28      -0.2715
     17  CB        81.9740  261.1460  117.3950 C.3    28  LEU28       0.0311
     18  CG        80.4510  261.3640  117.2660 C.3    28  LEU28       0.0022
     19  CD1       79.7230  260.2420  116.4610 C.3    28  LEU28       0.0001
     20  CD2       79.7960  261.5600  118.6400 C.3    28  LEU28       0.0001
     21  N         85.0890  260.9910  115.3250 N.am   29  GLY29      -0.1955
     22  CA        86.4150  260.3430  115.2830 C.3    29  GLY29       0.1869
     23  C         87.4670  260.8720  116.2690 C.2    29  GLY29       0.2309
     24  O         87.1720  261.7510  117.0960 O.2    29  GLY29      -0.2863
     25  N         82.9550  265.8100  113.9520 N.3    34  VAL34      -0.1245
     26  CA        82.9490  266.1830  112.5640 C.3    34  VAL34       0.1561
     27  C         81.6770  266.9630  112.3090 C.2    34  VAL34       0.2260
     28  O         80.5980  266.3910  112.2550 O.2    34  VAL34      -0.2867
     29  CB        83.0090  264.9630  111.6860 C.3    34  VAL34       0.0252
     30  CG1       83.1890  265.3760  110.2650 C.3    34  VAL34       0.0019
     31  CG2       84.1630  264.1070  112.1090 C.3    34  VAL34       0.0019
     32  N         82.2310  268.1710  105.4130 N.3    47  ALA47      -0.1245
     33  CA        82.6340  267.6260  106.6910 C.3    47  ALA47       0.1562
     34  C         83.7680  268.4660  107.2320 C.2    47  ALA47       0.2260
     35  O         84.6700  268.8460  106.4910 O.2    47  ALA47      -0.2867
     36  CB        83.0820  266.2020  106.5210 C.3    47  ALA47       0.0290
     37  N         86.6380  268.2420  110.1440 N.3    49  LYS49      -0.1245
     38  CA        87.4310  267.7390  111.2500 C.3    49  LYS49       0.1561
     39  C         88.2550  268.9060  111.7830 C.2    49  LYS49       0.2260
     40  O         88.5430  269.8560  111.0650 O.2    49  LYS49      -0.2867
     41  CB        88.3400  266.6050  110.7660 C.3    49  LYS49       0.0271
     42  CG        88.8680  265.6510  111.8400 C.3    49  LYS49       0.0035
     43  CD        88.7740  264.2230  111.3150 C.3    49  LYS49       0.0206
     44  CE        89.4110  263.1960  112.2410 C.3    49  LYS49       0.1093
     45  NZ        90.8960  263.1000  112.0680 N.3    49  LYS49      -0.1314
     46  N         96.5710  262.0900  103.8900 N.3    64  HIS64      -0.1241
     47  CA        95.1900  262.1610  103.4440 C.3    64  HIS64       0.1621
     48  C         95.1160  262.9450  102.1530 C.2    64  HIS64       0.2264
     49  O         94.4260  262.5620  101.2180 O.2    64  HIS64      -0.2867
     50  CB        94.3320  262.8630  104.4840 C.3    64  HIS64       0.0745
     51  CG        92.8860  262.4810  104.4300 C.ar   64  HIS64       0.0817
     52  ND1       92.1040  262.3920  105.5610 N.ar   64  HIS64      -0.2268
     53  CD2       92.0790  262.1640  103.3870 C.ar   64  HIS64       0.1154
     54  CE1       90.8760  262.0410  105.2140 C.ar   64  HIS64       0.1986
     55  NE2       90.8340  261.8960  103.9010 N.ar   64  HIS64      -0.2212
     56  N         88.1070  259.0200  100.9070 N.3    74  VAL74      -0.1245
     57  CA        87.4360  260.3070  101.1310 C.3    74  VAL74       0.1561
     58  C         88.3450  261.4960  100.8030 C.2    74  VAL74       0.2260
     59  O         89.4880  261.5590  101.2660 O.2    74  VAL74      -0.2867
     60  CB        86.9470  260.4450  102.5750 C.3    74  VAL74       0.0252
     61  CG1       88.1090  260.7320  103.4900 C.3    74  VAL74       0.0019
     62  CG2       85.9610  261.5580  102.6770 C.3    74  VAL74       0.0019
     63  N         86.3100  268.2940  104.2040 N.3    94  MET94      -0.1230
     64  CA        86.2440  267.2050  103.2540 C.3    94  MET94       0.1702
     65  C         84.8270  266.8980  102.8690 C.2    94  MET94       0.2592
     66  O         83.8940  267.3080  103.5420 O.2    94  MET94      -0.2718
     67  CB        86.9570  265.9570  103.7900 C.3    94  MET94       0.0401
     68  CG        86.4350  265.4310  105.1090 C.3    94  MET94       0.0596
     69  SD        87.7250  264.5430  106.0030 S.3    94  MET94      -0.1393
     70  CE        87.3830  265.0680  107.6800 C.3    94  MET94       0.0692
     71  N         84.6880  266.1830  101.7610 N.am   95  GLU95      -0.1966
     72  CA        83.3990  265.7920  101.2370 C.3    95  GLU95       0.1733
     73  C         82.5780  265.1250  102.3160 C.2    95  GLU95       0.2616
     74  O         82.9780  264.1310  102.9140 O.2    95  GLU95      -0.2715
     75  CB        83.5510  264.8650  100.0280 C.3    95  GLU95       0.0429
     76  CG        84.3880  263.6050  100.2910 C.3    95  GLU95       0.1163
     77  CD        84.3090  262.5630   99.1750 C.2    95  GLU95       0.3649
     78  OE1       85.3870  262.1090   98.7280 O.co2  95  GLU95      -0.2457
     79  OE2       83.1840  262.1920   98.7460 O.co2  95  GLU95      -0.2457
     80  N         81.4310  265.7080  102.5940 N.am   96  CYS96      -0.1954
     81  CA        80.5680  265.1240  103.5690 C.3    96  CYS96       0.1843
     82  C         80.0890  263.8030  102.9840 C.2    96  CYS96       0.2625
     83  O         79.9890  263.6650  101.7720 O.2    96  CYS96      -0.2714
     84  CB        79.4190  266.0720  103.8460 C.3    96  CYS96       0.0997
     85  SG        77.8910  265.2350  104.0610 S.3    96  CYS96      -0.0797
     86  N         79.8330  262.8190  103.8340 N.am   97  LEU97      -0.1977
     87  CA        79.3270  261.5410  103.3590 C.3    97  LEU97       0.1596
     88  C         78.0440  261.1500  104.0690 C.2    97  LEU97       0.2287
     89  O         78.0370  260.8730  105.2760 O.2    97  LEU97      -0.2864
     90  CB        80.3700  260.4580  103.5500 C.3    97  LEU97       0.0297
     91  CG        81.6860  260.7580  102.8470 C.3    97  LEU97       0.0022
     92  CD1       82.7580  259.8130  103.3740 C.3    97  LEU97       0.0001
     93  CD2       81.5440  260.6350  101.3240 C.3    97  LEU97       0.0001
     94  N         77.9630  254.1630  108.2070 N.3   101  GLU101     -0.1245
     95  CA        79.0240  253.1740  108.2900 C.3   101  GLU101      0.1567
     96  C         78.6940  251.8890  107.5350 C.2   101  GLU101      0.2260
     97  O         77.7680  251.1730  107.8990 O.2   101  GLU101     -0.2867
     98  CB        79.3310  252.8840  109.7530 C.3   101  GLU101      0.0388
     99  CG        79.8530  254.1050  110.4830 C.3   101  GLU101      0.1160
    100  CD        79.7860  253.9870  111.9880 C.2   101  GLU101      0.3649
    101  OE1       79.4880  252.8840  112.5000 O.co2 101  GLU101     -0.2457
    102  OE2       80.0200  255.0130  112.6640 O.co2 101  GLU101     -0.2457
    103  N         83.7290  251.3160  111.0740 N.3   146  GLU146     -0.1231
    104  CA        83.1550  252.6520  111.2530 C.3   146  GLU146      0.1699
    105  C         83.7840  253.5750  110.2340 C.2   146  GLU146      0.2592
    106  O         83.1370  254.4740  109.7070 O.2   146  GLU146     -0.2718
    107  CB        83.4490  253.2450  112.6220 C.3   146  GLU146      0.0402
    108  CG        83.2260  252.3360  113.7750 C.3   146  GLU146      0.1161
    109  CD        84.4900  251.6100  114.1570 C.2   146  GLU146      0.3649
    110  OE1       85.0570  251.9190  115.2390 O.co2 146  GLU146     -0.2457
    111  OE2       84.9260  250.7460  113.3580 O.co2 146  GLU146     -0.2457
    112  N         85.0630  253.3550  109.9650 N.am  147  ASN147     -0.1974
    113  CA        85.8030  254.2260  109.0650 C.3   147  ASN147      0.1688
    114  C         85.4800  254.0360  107.5890 C.2   147  ASN147      0.2292
    115  O         86.1780  254.5580  106.7170 O.2   147  ASN147     -0.2864
    116  CB        87.2940  254.1020  109.3240 C.3   147  ASN147      0.1181
    117  CG        87.6940  254.7810  110.5960 C.2   147  ASN147      0.2629
    118  OD1       87.0770  255.7620  110.9920 O.2   147  ASN147     -0.2716
    119  ND2       88.7000  254.2510  111.2660 N.am  147  ASN147     -0.0877
    120  N         82.2550  254.6290  104.9830 N.3   149  LEU149     -0.1245
    121  CA        80.9810  255.3150  104.9060 C.3   149  LEU149      0.1561
    122  C         80.6260  255.5070  103.4590 C.2   149  LEU149      0.2260
    123  O         81.5030  255.5250  102.5980 O.2   149  LEU149     -0.2867
    124  CB        81.0900  256.6790  105.5630 C.3   149  LEU149      0.0270
    125  CG        81.3820  256.6580  107.0580 C.3   149  LEU149      0.0019
    126  CD1       82.4000  257.7140  107.4130 C.3   149  LEU149      0.0001
    127  CD2       80.0950  256.8520  107.8410 C.3   149  LEU149      0.0001
    128  N         87.9650  256.4320  105.6740 N.3   162  THR162     -0.1203
    129  CA        88.2440  257.6550  106.4010 C.3   162  THR162      0.1994
    130  C         89.1150  257.4970  107.6570 C.2   162  THR162      0.2617
    131  O         89.5820  256.4030  107.9900 O.2   162  THR162     -0.2717
    132  CB        86.9340  258.3230  106.8060 C.3   162  THR162      0.1784
    133  OG1       86.6130  257.9800  108.1630 O.3   162  THR162     -0.2211
    134  CG2       85.8280  257.8720  105.8750 C.3   162  THR162      0.0376
    135  N         89.3180  258.6220  108.3410 N.am  163  ASP163     -0.1973
    136  CA        90.1100  258.7120  109.5670 C.3   163  ASP163      0.1709
    137  C         91.5520  258.2650  109.4410 C.2   163  ASP163      0.2293
    138  O         91.8610  257.1040  109.6620 O.2   163  ASP163     -0.2864
    139  CB        89.4660  257.9530  110.7170 C.3   163  ASP163      0.1436
    140  CG        90.0450  258.3630  112.0640 C.2   163  ASP163      0.3671
    141  OD1       90.9460  259.2370  112.1010 O.co2 163  ASP163     -0.2456
    142  OD2       89.5930  257.8170  113.0940 O.co2 163  ASP163     -0.2456
@<TRIPOS>BOND
     1    78    77   ar
     2    79    77   ar
     3    77    76    1
     4    75    76    1
     5    75    72    1
     6    58    57    1
     7    58    59    2
     8    56    57    1
     9    57    60    1
    10    49    48    2
    11    72    71    1
    12    72    73    1
    13    93    91    1
    14    71    65   am
    15    83    82    2
    16    48    47    1
    17    73    80   am
    18    73    74    2
    19    60    62    1
    20    60    61    1
    21    80    81    1
    22   123   122    2
    23    91    92    1
    24    91    90    1
    25    65    64    1
    26    65    66    2
    27    82    81    1
    28    82    86   am
    29    64    67    1
    30    64    63    1
    31    87    90    1
    32    87    86    1
    33    87    88    1
    34    53    55   ar
    35    53    51   ar
    36    47    46    1
    37    47    50    1
    38   122   121    1
    39    81    84    1
    40    67    68    1
    41    84    85    1
    42    55    54   ar
    43    88    89    2
    44    51    50    1
    45    51    52   ar
    46   121   120    1
    47   121   124    1
    48    68    69    1
    49    54    52   ar
    50    32    33    1
    51   124   125    1
    52   128   129    1
    53   134   132    1
    54    69    70    1
    55   129   132    1
    56   129   130    1
    57    35    34    2
    58    36    33    1
    59    33    34    1
    60   115   114    2
    61   132   133    1
    62   125   126    1
    63   125   127    1
    64    96    97    2
    65    96    95    1
    66   114   113    1
    67   130   131    2
    68   130   135   am
    69    94    95    1
    70    95    98    1
    71   135   136    1
    72     7     6    1
    73   113   116    1
    74   113   112    1
    75   116   117    1
    76   137   136    1
    77   137   138    2
    78   136   139    1
    79   106   105    2
    80    98    99    1
    81   112   105   am
    82     8     6    1
    83    37    38    1
    84   105   104    1
    85    30    29    1
    86     6     5    1
    87    99   100    1
    88   117   118    2
    89   117   119   am
    90   139   140    1
    91    41    38    1
    92    41    42    1
    93     5     2    1
    94    40    39    2
    95   103   104    1
    96    38    39    1
    97   104   107    1
    98    43    42    1
    99    43    44    1
   100    29    31    1
   101    29    26    1
   102   100   101   ar
   103   100   102   ar
   104   140   141   ar
   105   140   142   ar
   106    45    44    1
   107    28    27    2
   108    27    26    1
   109     2     3    1
   110     2     1    1
   111     9     3   am
   112     9    10    1
   113    26    25    1
   114   107   108    1
   115     3     4    2
   116    10    11    1
   117   111   109   ar
   118   108   109    1
   119   109   110   ar
   120    11    12    2
   121    11    13   am
   122    13    14    1
   123    22    21    1
   124    22    23    1
   125    21    15   am
   126    14    15    1
   127    14    17    1
   128    23    24    2
   129    15    16    2
   130    19    18    1
   131    18    17    1
   132    18    20    1
