@<TRIPOS>MOLECULE
tmp/3fyoD00.pdb
 131 122 0 0 0
SMALL
GASTEIGER

@<TRIPOS>ATOM
      1  N         37.8310  -18.6230   76.9410 N.3    52  LYS52      -0.1245
      2  CA        36.9350  -17.5250   77.3180 C.3    52  LYS52       0.1561
      3  C         35.5870  -18.0150   77.8220 C.2    52  LYS52       0.2260
      4  O         34.9460  -18.8750   77.2080 O.2    52  LYS52      -0.2867
      5  CB        36.6730  -16.5960   76.1410 C.3    52  LYS52       0.0271
      6  CG        35.8110  -15.3730   76.5080 C.3    52  LYS52       0.0035
      7  CD        34.3200  -15.6390   76.3540 C.3    52  LYS52       0.0206
      8  CE        33.4760  -14.5000   76.8990 C.3    52  LYS52       0.1093
      9  NZ        32.0000  -14.7350   76.7890 N.3    52  LYS52      -0.1314
     10  N         32.1050  -16.1430   80.4470 N.3    54  SER54      -0.1217
     11  CA        31.5930  -15.3130   81.5380 C.3    54  SER54       0.1889
     12  C         31.1070  -16.1600   82.6980 C.2    54  SER54       0.2288
     13  O         30.4610  -17.1900   82.5030 O.2    54  SER54      -0.2866
     14  CB        30.4260  -14.4470   81.0620 C.3    54  SER54       0.2089
     15  OG        30.7240  -13.8130   79.8440 O.3    54  SER54      -0.2183
     16  N         26.0010  -13.3450   83.4760 N.3    57  LYS57      -0.1245
     17  CA        25.3380  -12.5160   82.4720 C.3    57  LYS57       0.1561
     18  C         24.5470  -11.4060   83.1810 C.2    57  LYS57       0.2260
     19  O         23.4210  -11.6230   83.6290 O.2    57  LYS57      -0.2867
     20  CB        24.3690  -13.3430   81.6090 C.3    57  LYS57       0.0271
     21  CG        24.9830  -14.4870   80.8010 C.3    57  LYS57       0.0035
     22  CD        26.3400  -14.1420   80.2030 C.3    57  LYS57       0.0206
     23  CE        26.2160  -13.1910   79.0150 C.3    57  LYS57       0.1093
     24  NZ        27.5140  -13.0430   78.2620 N.3    57  LYS57      -0.1314
     25  N         23.3120   -8.5120   82.3530 N.3    59  ASN59      -0.1240
     26  CA        22.3920   -7.6110   81.6530 C.3    59  ASN59       0.1653
     27  C         21.4990   -8.2820   80.6150 C.2    59  ASN59       0.2266
     28  O         21.2780   -7.7480   79.5210 O.2    59  ASN59      -0.2867
     29  CB        23.1400   -6.4210   81.0320 C.3    59  ASN59       0.1155
     30  CG        24.4060   -6.8260   80.3240 C.2    59  ASN59       0.2627
     31  OD1       25.4510   -6.2090   80.5110 O.2    59  ASN59      -0.2716
     32  ND2       24.3160   -7.8450   79.4750 N.am   59  ASN59      -0.0877
     33  N         35.0150  -11.5190   81.8400 N.3    92  ASP92      -0.1239
     34  CA        34.5840  -10.1420   82.0860 C.3    92  ASP92       0.1674
     35  C         34.1660   -9.8600   83.5300 C.2    92  ASP92       0.2266
     36  O         33.7810  -10.7670   84.2800 O.2    92  ASP92      -0.2867
     37  CB        33.4940   -9.6800   81.1050 C.3    92  ASP92       0.1410
     38  CG        32.2630  -10.5530   81.1010 C.2    92  ASP92       0.3668
     39  OD1       32.3610  -11.7880   81.3150 O.co2  92  ASP92      -0.2456
     40  OD2       31.2120  -10.0220   80.6780 O.co2  92  ASP92      -0.2456
     41  N         38.4970   -8.5250   81.3890 N.3   110  GLN110     -0.1245
     42  CA        37.8300   -7.8550   80.2700 C.3   110  GLN110      0.1566
     43  C         36.8710   -6.7730   80.7330 C.2   110  GLN110      0.2260
     44  O         36.0270   -7.0130   81.5980 O.2   110  GLN110     -0.2867
     45  CB        37.0440   -8.8690   79.4430 C.3   110  GLN110      0.0367
     46  CG        36.0910   -8.2450   78.3790 C.3   110  GLN110      0.0905
     47  CD        35.6350   -9.2850   77.3570 C.2   110  GLN110      0.2608
     48  OE1       36.4690   -9.9320   76.7040 O.2   110  GLN110     -0.2717
     49  NE2       34.3140   -9.4250   77.1880 N.am  110  GLN110     -0.0878
     50  N         33.6600   -4.7300   79.8900 N.3   112  PRO112     -0.2102
     51  CA        32.4890   -4.8170   79.0050 C.3   112  PRO112      0.1504
     52  C         32.2220   -3.5400   78.2090 C.2   112  PRO112      0.2576
     53  O         32.5670   -2.4480   78.6490 O.2   112  PRO112     -0.2718
     54  CB        31.3270   -5.0870   79.9670 C.3   112  PRO112      0.0282
     55  CG        31.9690   -5.6800   81.1700 C.3   112  PRO112      0.0208
     56  CD        33.2930   -4.9690   81.2930 C.3   112  PRO112      0.0893
     57  N         31.6920   -3.7050   77.0010 N.am  113  ALA113     -0.1966
     58  CA        31.4430   -2.5840   76.0910 C.3   113  ALA113      0.1728
     59  C         30.5740   -1.4890   76.7370 C.2   113  ALA113      0.2616
     60  O         30.8670   -0.2970   76.6060 O.2   113  ALA113     -0.2715
     61  CB        30.7830   -3.0880   74.8110 C.3   113  ALA113      0.0334
     62  N         29.5140   -1.8950   77.4340 N.am  114  PHE114     -0.1974
     63  CA        28.6090   -0.9320   78.0740 C.3   114  PHE114      0.1639
     64  C         29.2930   -0.1140   79.1770 C.2   114  PHE114      0.2290
     65  O         28.8250    0.9710   79.5320 O.2   114  PHE114     -0.2864
     66  CB        27.3840   -1.6380   78.6670 C.3   114  PHE114      0.0560
     67  CG        26.4480   -2.2150   77.6420 C.ar  114  PHE114     -0.0200
     68  CD1       26.5540   -1.8690   76.3030 C.ar  114  PHE114     -0.0042
     69  CD2       25.4650   -3.1130   78.0220 C.ar  114  PHE114     -0.0042
     70  CE1       25.6870   -2.4100   75.3650 C.ar  114  PHE114     -0.0003
     71  CE2       24.6110   -3.6680   77.0920 C.ar  114  PHE114     -0.0003
     72  CZ        24.7200   -3.3110   75.7600 C.ar  114  PHE114     -0.0000
     73  N         36.7170   -4.0870   75.4030 N.3   135  LYS135     -0.1245
     74  CA        35.6700   -4.1360   74.3690 C.3   135  LYS135      0.1561
     75  C         35.3250   -2.7180   73.8860 C.2   135  LYS135      0.2260
     76  O         34.8990   -1.8540   74.6700 O.2   135  LYS135     -0.2867
     77  CB        34.4130   -4.8620   74.8780 C.3   135  LYS135      0.0271
     78  CG        34.5660   -6.3490   75.0810 C.3   135  LYS135      0.0035
     79  CD        34.7750   -7.0510   73.7220 C.3   135  LYS135      0.0206
     80  CE        34.4570   -8.5310   73.7760 C.3   135  LYS135      0.1093
     81  NZ        33.0040   -8.8430   73.6610 N.3   135  LYS135     -0.1314
     82  N         34.1020   -4.9860   68.1830 N.3   165  ARG165     -0.1245
     83  CA        32.8680   -5.7640   68.2500 C.3   165  ARG165      0.1563
     84  C         31.6930   -5.1700   67.5020 C.2   165  ARG165      0.2260
     85  O         30.5460   -5.5300   67.7550 O.2   165  ARG165     -0.2867
     86  CB        32.4680   -6.1270   69.6870 C.3   165  ARG165      0.0307
     87  CG        32.3280   -4.9910   70.6800 C.3   165  ARG165      0.0489
     88  CD        30.8840   -4.5250   70.8630 C.3   165  ARG165      0.2205
     89  NE        30.0290   -5.4520   71.6160 N.pl3 165  ARG165     -0.0865
     90  CZ        28.8800   -5.9340   71.1420 C.cat 165  ARG165      0.5346
     91  NH1       28.4920   -5.6310   69.9110 N.pl3 165  ARG165      0.1354
     92  NH2       28.1250   -6.7460   71.8790 N.pl3 165  ARG165      0.1354
     93  N         30.0440  -11.2610   68.4680 N.3   199  HIS199     -0.1241
     94  CA        29.1440  -10.2040   68.8830 C.3   199  HIS199      0.1621
     95  C         28.9250   -9.2290   67.7230 C.2   199  HIS199      0.2264
     96  O         27.8650   -8.5940   67.6290 O.2   199  HIS199     -0.2867
     97  CB        29.6190   -9.5180   70.1780 C.3   199  HIS199      0.0745
     98  CG        29.5970  -10.4270   71.3710 C.ar  199  HIS199      0.0817
     99  ND1       30.7430  -10.9850   71.9000 N.ar  199  HIS199     -0.2268
    100  CD2       28.5620  -11.0120   72.0230 C.ar  199  HIS199      0.1154
    101  CE1       30.4150  -11.8120   72.8780 C.ar  199  HIS199      0.1986
    102  NE2       29.0990  -11.8820   72.9420 N.ar  199  HIS199     -0.2212
    103  N         25.5890   -9.5290   65.6070 N.3   202  GLN202     -0.1245
    104  CA        24.3140   -9.3470   66.3190 C.3   202  GLN202      0.1566
    105  C         23.3240   -8.4480   65.5920 C.2   202  GLN202      0.2260
    106  O         23.6920   -7.3970   65.0590 O.2   202  GLN202     -0.2867
    107  CB        24.5640   -8.7530   67.7050 C.3   202  GLN202      0.0367
    108  CG        25.1440   -9.7300   68.7020 C.3   202  GLN202      0.0905
    109  CD        25.4630   -9.0680   70.0310 C.2   202  GLN202      0.2608
    110  OE1       25.8240   -7.8800   70.0840 O.2   202  GLN202     -0.2717
    111  NE2       25.2900   -9.8170   71.1170 N.am  202  GLN202     -0.0878
    112  N         38.4270  -13.4120   68.3370 N.3   224  PHE224     -0.1241
    113  CA        37.6590  -13.6260   69.5560 C.3   224  PHE224      0.1605
    114  C         36.3330  -14.2180   69.1550 C.2   224  PHE224      0.2264
    115  O         35.6220  -13.6530   68.3380 O.2   224  PHE224     -0.2867
    116  CB        37.4680  -12.2790   70.2610 C.3   224  PHE224      0.0534
    117  CG        36.7390  -12.3470   71.5700 C.ar  224  PHE224     -0.0203
    118  CD1       37.4050  -12.0310   72.7520 C.ar  224  PHE224     -0.0042
    119  CD2       35.3680  -12.5060   71.6040 C.ar  224  PHE224     -0.0042
    120  CE1       36.7220  -11.9420   73.9560 C.ar  224  PHE224     -0.0003
    121  CE2       34.6710  -12.4390   72.8100 C.ar  224  PHE224     -0.0003
    122  CZ        35.3560  -12.1670   73.9920 C.ar  224  PHE224     -0.0000
    123  N         32.8970  -17.2210   70.0720 N.3   226  GLU226     -0.1245
    124  CA        32.1220  -18.1490   70.8880 C.3   226  GLU226      0.1567
    125  C         31.5480  -19.2490   70.0260 C.2   226  GLU226      0.2260
    126  O         31.1930  -19.0270   68.8620 O.2   226  GLU226     -0.2867
    127  CB        30.9810  -17.4140   71.6090 C.3   226  GLU226      0.0388
    128  CG        31.4940  -16.4780   72.6980 C.3   226  GLU226      0.1160
    129  CD        30.4120  -15.6360   73.3410 C.2   226  GLU226      0.3649
    130  OE1       29.2150  -15.9110   73.1310 O.co2 226  GLU226     -0.2457
    131  OE2       30.7720  -14.7140   74.0930 O.co2 226  GLU226     -0.2457
@<TRIPOS>BOND
     1   106   105    2
     2   105   104    1
     3   103   104    1
     4   104   107    1
     5    84    85    2
     6    84    83    1
     7    96    95    2
     8   107   108    1
     9    95    94    1
    10    82    83    1
    11    83    86    1
    12   112   113    1
    13   115   114    2
    14    93    94    1
    15   108   109    1
    16   126   125    2
    17    94    97    1
    18   114   113    1
    19   113   116    1
    20    86    87    1
    21    91    90    1
    22   125   124    1
    23   109   110    2
    24   109   111   am
    25   123   124    1
    26    97    98    1
    27   116   117    1
    28    87    88    1
    29    88    89    1
    30   124   127    1
    31    90    89    2
    32    90    92    1
    33    98    99   ar
    34    98   100   ar
    35   117   119   ar
    36   117   118   ar
    37   119   121   ar
    38   127   128    1
    39    99   101   ar
    40   100   102   ar
    41   128   129    1
    42   118   120   ar
    43   121   122   ar
    44   101   102   ar
    45   130   129   ar
    46   129   131   ar
    47    81    80    1
    48    79    80    1
    49    79    78    1
    50    75    74    1
    51    75    76    2
    52   120   122   ar
    53    74    77    1
    54    74    73    1
    55    61    58    1
    56    77    78    1
    57    70    72   ar
    58    70    68   ar
    59    72    71   ar
    60    58    59    1
    61    58    57    1
    62     5     6    1
    63     5     2    1
    64    68    67   ar
    65     7     6    1
    66     7     8    1
    67    60    59    2
    68    48    47    2
    69    59    62   am
    70     9     8    1
    71     1     2    1
    72    57    52   am
    73    71    69   ar
    74    49    47   am
    75     4     3    2
    76     2     3    1
    77    47    46    1
    78    62    63    1
    79    67    69   ar
    80    67    66    1
    81    63    66    1
    82    63    64    1
    83    52    53    2
    84    52    51    1
    85    24    23    1
    86    46    45    1
    87    51    50    1
    88    51    54    1
    89    23    22    1
    90    64    65    2
    91    45    42    1
    92    32    30   am
    93    28    27    2
    94    15    14    1
    95    50    56    1
    96    54    55    1
    97    22    21    1
    98    42    43    1
    99    42    41    1
   100    30    31    2
   101    30    29    1
   102    10    11    1
   103    27    26    1
   104    40    38   ar
   105    43    44    2
   106    21    20    1
   107    29    26    1
   108    14    11    1
   109    38    37    1
   110    38    39   ar
   111    37    34    1
   112    55    56    1
   113    11    12    1
   114    20    17    1
   115    26    25    1
   116    33    34    1
   117    34    35    1
   118    17    18    1
   119    17    16    1
   120    13    12    2
   121    18    19    2
   122    35    36    2
