@<TRIPOS>MOLECULE
tmp/3fysA00.pdb
 217 206 0 0 0
SMALL
GASTEIGER

@<TRIPOS>ATOM
      1  N          7.1580    1.0800    6.3380 N.3    29  LEU29      -0.1245
      2  CA         8.4980    1.1210    6.8910 C.3    29  LEU29       0.1561
      3  C          9.2740   -0.0870    6.3630 C.2    29  LEU29       0.2260
      4  O          8.7000   -0.9900    5.7490 O.2    29  LEU29      -0.2867
      5  CB         8.4650    1.1570    8.4190 C.3    29  LEU29       0.0270
      6  CG         8.2440    2.5350    9.0450 C.3    29  LEU29       0.0019
      7  CD1        6.8240    3.0230    8.7900 C.3    29  LEU29       0.0001
      8  CD2        8.5380    2.4960   10.5400 C.3    29  LEU29       0.0001
      9  N         15.3870   -2.2860   11.2850 N.3    62  THR62      -0.1203
     10  CA        14.2740   -1.5960   10.6530 C.3    62  THR62       0.1994
     11  C         14.6630   -0.1880   10.2630 C.2    62  THR62       0.2619
     12  O         15.6510    0.3560   10.7560 O.2    62  THR62      -0.2717
     13  CB        13.0190   -1.5500   11.5720 C.3    62  THR62       0.1784
     14  OG1       13.2940   -0.7740   12.7480 O.3    62  THR62      -0.2211
     15  CG2       12.6160   -2.9500   11.9830 C.3    62  THR62       0.0376
     16  N         13.8660    0.3970    9.3800 N.am   63  SER63      -0.1937
     17  CA        14.0860    1.7580    8.9410 C.3    63  SER63       0.2055
     18  C         12.7490    2.4560    8.7410 C.2    63  SER63       0.2642
     19  O         11.7550    1.8220    8.3820 O.2    63  SER63      -0.2714
     20  CB        14.8870    1.7590    7.6370 C.3    63  SER63       0.2130
     21  OG        14.9970    3.0660    7.1100 O.3    63  SER63      -0.2179
     22  N         12.7220    3.7620    8.9860 N.am   64  GLN64      -0.1976
     23  CA        11.5530    4.5630    8.6500 C.3    64  GLN64       0.1601
     24  C         11.4150    4.6610    7.1260 C.2    64  GLN64       0.2287
     25  O         12.3050    4.2440    6.3930 O.2    64  GLN64      -0.2864
     26  CB        11.6910    5.9530    9.2430 C.3    64  GLN64       0.0394
     27  CG        12.8160    6.7200    8.6210 C.3    64  GLN64       0.0908
     28  CD        12.8530    8.1520    9.0750 C.2    64  GLN64       0.2608
     29  OE1       13.3200    8.4510   10.1730 O.2    64  GLN64      -0.2717
     30  NE2       12.3720    9.0560    8.2230 N.am   64  GLN64      -0.0878
     31  N          3.3750    5.9430   14.1010 N.3    89  LEU89      -0.1245
     32  CA         3.8660    5.3370   15.3260 C.3    89  LEU89       0.1561
     33  C          4.5810    6.4040   16.1600 C.2    89  LEU89       0.2260
     34  O          4.9660    7.4490   15.6490 O.2    89  LEU89      -0.2867
     35  CB         4.7790    4.1330   15.0220 C.3    89  LEU89       0.0270
     36  CG         6.1600    4.3520   14.3740 C.3    89  LEU89       0.0019
     37  CD1        6.9700    3.0840   14.4060 C.3    89  LEU89       0.0001
     38  CD2        6.0570    4.8870   12.9520 C.3    89  LEU89       0.0001
     39  N          9.7410    6.3490   19.2930 N.3    93  ILE93      -0.1231
     40  CA        10.3000    5.0870   18.8160 C.3    93  ILE93       0.1692
     41  C         10.7230    5.1130   17.3400 C.2    93  ILE93       0.2593
     42  O         11.3470    4.1690   16.8600 O.2    93  ILE93      -0.2718
     43  CB         9.3470    3.9010   19.0770 C.3    93  ILE93       0.0266
     44  CG1        8.0950    3.9960   18.1970 C.3    93  ILE93       0.0019
     45  CG2        8.9580    3.8570   20.5260 C.3    93  ILE93       0.0020
     46  CD1        7.1720    2.8020   18.3250 C.3    93  ILE93       0.0001
     47  N         10.3900    6.1940   16.6330 N.am   94  SER94      -0.1938
     48  CA        10.7170    6.3170   15.2170 C.3    94  SER94       0.2055
     49  C         10.7610    7.7790   14.7650 C.2    94  SER94       0.2643
     50  O         10.0230    8.6240   15.2780 O.2    94  SER94      -0.2714
     51  CB         9.7180    5.5170   14.3570 C.3    94  SER94       0.2130
     52  OG         9.9920    5.6210   12.9620 O.3    94  SER94      -0.2179
     53  N         11.6370    8.0680   13.8060 N.am   95  GLY95      -0.1954
     54  CA        11.6820    9.3740   13.1660 C.3    95  GLY95       0.1869
     55  C         10.6070    9.5870   12.0950 C.2    95  GLY95       0.2309
     56  O         10.5110   10.6630   11.5150 O.2    95  GLY95      -0.2863
     57  N          2.0980    5.5160   19.8750 N.3   119  ILE119     -0.1231
     58  CA         1.8980    4.0870   20.0250 C.3   119  ILE119      0.1692
     59  C          2.2550    3.4100   18.6980 C.2   119  ILE119      0.2593
     60  O          2.9830    3.9730   17.8860 O.2   119  ILE119     -0.2718
     61  CB         0.4310    3.7970   20.4800 C.3   119  ILE119      0.0266
     62  CG1        0.3410    2.5220   21.3190 C.3   119  ILE119      0.0019
     63  CG2       -0.5640    3.8330   19.3070 C.3   119  ILE119      0.0020
     64  CD1       -0.7270    2.6110   22.3740 C.3   119  ILE119      0.0001
     65  N          1.7580    2.2030   18.4800 N.am  120  SER120     -0.1938
     66  CA         1.9040    1.5690   17.1800 C.3   120  SER120      0.2055
     67  C          0.8880    0.4650   17.0520 C.2   120  SER120      0.2643
     68  O          0.0090    0.3270   17.8990 O.2   120  SER120     -0.2714
     69  CB         3.3210    1.0110   16.9930 C.3   120  SER120      0.2130
     70  OG         3.4670    0.4520   15.7020 O.3   120  SER120     -0.2179
     71  N          1.0180   -0.3220   15.9910 N.am  121  CYS121     -0.1967
     72  CA         0.1190   -1.4470   15.7280 C.3   121  CYS121      0.1712
     73  C         -1.3450   -1.0040   15.5880 C.2   121  CYS121      0.2296
     74  O         -1.6120    0.1480   15.2510 O.2   121  CYS121     -0.2864
     75  CB         0.3150   -2.5500   16.7790 C.3   121  CYS121      0.0983
     76  SG         1.9980   -3.2210   16.7460 S.3   121  CYS121     -0.0798
     77  N         -3.5720   -0.2840   17.6260 N.3   123  ALA123     -0.1245
     78  CA        -3.9440    0.8200   18.5110 C.3   123  ALA123      0.1562
     79  C         -3.7810    2.1240   17.7510 C.2   123  ALA123      0.2260
     80  O         -4.6210    3.0160   17.8580 O.2   123  ALA123     -0.2867
     81  CB        -3.1010    0.8190   19.7860 C.3   123  ALA123      0.0290
     82  N         -2.6960    0.2700   25.9230 N.3   158  ALA158     -0.1231
     83  CA        -2.0300   -0.9140   25.3990 C.3   158  ALA158      0.1694
     84  C         -1.0440   -1.4980   26.4220 C.2   158  ALA158      0.2592
     85  O         -0.2700   -0.7770   27.0450 O.2   158  ALA158     -0.2718
     86  CB        -1.3200   -0.5950   24.0770 C.3   158  ALA158      0.0304
     87  N         -1.0980   -2.8150   26.5880 N.am  159  TYR159     -0.1962
     88  CA        -0.1560   -3.5350   27.4260 C.3   159  TYR159      0.1771
     89  C          0.3210   -4.7420   26.6380 C.2   159  TYR159      0.2619
     90  O         -0.4590   -5.3810   25.9430 O.2   159  TYR159     -0.2715
     91  CB        -0.8150   -3.9380   28.7470 C.3   159  TYR159      0.0574
     92  CG        -1.3440   -2.7400   29.5170 C.ar  159  TYR159     -0.0198
     93  CD1       -2.6480   -2.2780   29.3250 C.ar  159  TYR159     -0.0009
     94  CD2       -0.5310   -2.0530   30.4040 C.ar  159  TYR159     -0.0009
     95  CE1       -3.1200   -1.1820   30.0070 C.ar  159  TYR159      0.0417
     96  CE2       -0.9960   -0.9600   31.0920 C.ar  159  TYR159      0.0417
     97  CZ        -2.2900   -0.5270   30.8910 C.ar  159  TYR159      0.1957
     98  OH        -2.7450    0.5640   31.5890 O.3   159  TYR159     -0.2866
     99  N          1.6170   -5.0180   26.6910 N.am  160  PHE160     -0.1974
    100  CA         2.1730   -6.1170   25.9110 C.3   160  PHE160      0.1639
    101  C          3.3480   -6.8310   26.6050 C.2   160  PHE160      0.2290
    102  O          3.9660   -6.3100   27.5300 O.2   160  PHE160     -0.2864
    103  CB         2.5380   -5.6530   24.4920 C.3   160  PHE160      0.0560
    104  CG         3.4400   -4.4450   24.4470 C.ar  160  PHE160     -0.0200
    105  CD1        2.9390   -3.1700   24.6890 C.ar  160  PHE160     -0.0042
    106  CD2        4.7900   -4.5800   24.1410 C.ar  160  PHE160     -0.0042
    107  CE1        3.7740   -2.0480   24.6340 C.ar  160  PHE160     -0.0003
    108  CE2        5.6270   -3.4690   24.0850 C.ar  160  PHE160     -0.0003
    109  CZ         5.1170   -2.1990   24.3280 C.ar  160  PHE160     -0.0000
    110  N         14.0430   -6.4340   21.8470 N.3   168  LEU168     -0.1245
    111  CA        13.8800   -5.0320   22.2300 C.3   168  LEU168      0.1561
    112  C         15.2210   -4.3980   22.5990 C.2   168  LEU168      0.2260
    113  O         15.5280   -3.2840   22.1700 O.2   168  LEU168     -0.2867
    114  CB        12.9140   -4.8980   23.4060 C.3   168  LEU168      0.0270
    115  CG        11.4540   -4.5720   23.1180 C.3   168  LEU168      0.0019
    116  CD1       10.6830   -4.6290   24.4170 C.3   168  LEU168      0.0001
    117  CD2       11.3290   -3.1990   22.4930 C.3   168  LEU168      0.0001
    118  N         14.9250    0.3790   21.6810 N.3   173  ARG173     -0.1245
    119  CA        13.7250    1.0690   22.1400 C.3   173  ARG173      0.1563
    120  C         13.3950    0.8500   23.6020 C.2   173  ARG173      0.2260
    121  O         12.3190    1.2420   24.0640 O.2   173  ARG173     -0.2867
    122  CB        12.5270    0.7210   21.2700 C.3   173  ARG173      0.0307
    123  CG        12.4300    1.6070   20.0510 C.3   173  ARG173      0.0489
    124  CD        13.6070    1.4060   19.0920 C.3   173  ARG173      0.2205
    125  NE        13.4890    2.3400   17.9820 N.pl3 173  ARG173     -0.0865
    126  CZ        14.2990    2.4110   16.9290 C.cat 173  ARG173      0.5346
    127  NH1       15.3370    1.5880   16.7950 N.pl3 173  ARG173      0.1354
    128  NH2       14.0540    3.3230   15.9970 N.pl3 173  ARG173      0.1354
    129  N          3.3050    2.0650   26.9390 N.3   193  PHE193     -0.1241
    130  CA         3.8620    3.3380   26.5170 C.3   193  PHE193      0.1605
    131  C          3.5700    4.3890   27.5720 C.2   193  PHE193      0.2264
    132  O          2.4550    4.4840   28.0960 O.2   193  PHE193     -0.2867
    133  CB         3.2670    3.7950   25.1800 C.3   193  PHE193      0.0534
    134  CG         3.9170    3.1830   23.9720 C.ar  193  PHE193     -0.0203
    135  CD1        3.5980    1.8970   23.5690 C.ar  193  PHE193     -0.0042
    136  CD2        4.8250    3.9130   23.2130 C.ar  193  PHE193     -0.0042
    137  CE1        4.1900    1.3400   22.4460 C.ar  193  PHE193     -0.0003
    138  CE2        5.4250    3.3570   22.0860 C.ar  193  PHE193     -0.0003
    139  CZ         5.1060    2.0700   21.7020 C.ar  193  PHE193     -0.0000
    140  N          8.6410    3.1960   25.3720 N.3   198  ILE198     -0.1245
    141  CA         8.3480    1.9180   25.9990 C.3   198  ILE198      0.1561
    142  C          9.0090    1.8070   27.3720 C.2   198  ILE198      0.2260
    143  O         10.2170    2.0180   27.5090 O.2   198  ILE198     -0.2867
    144  CB         8.8430    0.7590   25.1100 C.3   198  ILE198      0.0252
    145  CG1        8.2300    0.8770   23.7120 C.3   198  ILE198      0.0019
    146  CG2        8.5450   -0.6110   25.7590 C.3   198  ILE198      0.0019
    147  CD1        8.6140   -0.2310   22.7920 C.3   198  ILE198      0.0001
    148  N         -3.0830   -8.6670   19.8640 N.3   233  ILE233     -0.1245
    149  CA        -2.0140   -8.6590   18.8740 C.3   233  ILE233      0.1561
    150  C         -0.9430   -9.7140   19.2090 C.2   233  ILE233      0.2260
    151  O         -0.4450   -9.7830   20.3350 O.2   233  ILE233     -0.2867
    152  CB        -1.3890   -7.2350   18.7750 C.3   233  ILE233      0.0252
    153  CG1       -2.4960   -6.1700   18.7970 C.3   233  ILE233      0.0019
    154  CG2       -0.4990   -7.1070   17.5610 C.3   233  ILE233      0.0019
    155  CD1       -2.0450   -4.7720   18.4220 C.3   233  ILE233      0.0001
    156  N          1.8090   -8.4710   15.1310 N.3   262  PHE262     -0.1241
    157  CA         3.0180   -7.6640   14.9830 C.3   262  PHE262      0.1605
    158  C          3.6770   -8.0600   13.6540 C.2   262  PHE262      0.2264
    159  O          4.0900   -9.2070   13.4770 O.2   262  PHE262     -0.2867
    160  CB         3.9820   -7.8900   16.1530 C.3   262  PHE262      0.0534
    161  CG         3.3950   -7.5800   17.4950 C.ar  262  PHE262     -0.0203
    162  CD1        3.0760   -8.6040   18.3840 C.ar  262  PHE262     -0.0042
    163  CD2        3.1640   -6.2610   17.8860 C.ar  262  PHE262     -0.0042
    164  CE1        2.5210   -8.3240   19.6390 C.ar  262  PHE262     -0.0003
    165  CE2        2.6100   -5.9730   19.1360 C.ar  262  PHE262     -0.0003
    166  CZ         2.2890   -7.0100   20.0120 C.ar  262  PHE262     -0.0000
    167  N          8.2020   -5.0340   10.8350 N.3   265  VAL265     -0.1231
    168  CA         8.9180   -3.9280   11.4610 C.3   265  VAL265      0.1692
    169  C          8.8100   -3.9570   12.9880 C.2   265  VAL265      0.2591
    170  O          9.8160   -3.7980   13.6950 O.2   265  VAL265     -0.2718
    171  CB         8.4510   -2.5570   10.9260 C.3   265  VAL265      0.0266
    172  CG1        8.8890   -1.4410   11.8640 C.3   265  VAL265      0.0020
    173  CG2        8.9500   -2.3350    9.4940 C.3   265  VAL265      0.0020
    174  N          7.5950   -4.1550   13.4960 N.am  266  ILE266     -0.1980
    175  CA         7.3840   -4.2270   14.9410 C.3   266  ILE266      0.1595
    176  C          7.8720   -5.5470   15.5480 C.2   266  ILE266      0.2287
    177  O          8.5160   -5.5510   16.5930 O.2   266  ILE266     -0.2864
    178  CB         5.9180   -4.0070   15.3190 C.3   266  ILE266      0.0276
    179  CG1        5.4440   -2.6490   14.8050 C.3   266  ILE266      0.0022
    180  CG2        5.7480   -4.1390   16.8310 C.3   266  ILE266      0.0022
    181  CD1        6.2940   -1.4930   15.2580 C.3   266  ILE266      0.0001
    182  N         11.3500   -5.8690   16.5650 N.3   269  HIS269     -0.1226
    183  CA        11.7380   -5.3330   17.8740 C.3   269  HIS269      0.1752
    184  C         11.1640   -6.1250   19.0520 C.2   269  HIS269      0.2595
    185  O         11.8200   -6.2670   20.0760 O.2   269  HIS269     -0.2718
    186  CB        11.3990   -3.8420   17.9940 C.3   269  HIS269      0.0759
    187  CG        12.2060   -2.9630   17.0890 C.ar  269  HIS269      0.0818
    188  ND1       13.3840   -2.3670   17.4850 N.ar  269  HIS269     -0.2268
    189  CD2       12.0100   -2.5880   15.8020 C.ar  269  HIS269      0.1154
    190  CE1       13.8790   -1.6610   16.4830 C.ar  269  HIS269      0.1986
    191  NE2       13.0650   -1.7810   15.4490 N.ar  269  HIS269     -0.2212
    192  N          9.9520   -6.6550   18.9000 N.am  270  LEU270     -0.1980
    193  CA         9.3410   -7.4670   19.9500 C.3   270  LEU270      0.1596
    194  C          9.7900   -8.9370   19.9250 C.2   270  LEU270      0.2287
    195  O          9.9100   -9.5760   20.9810 O.2   270  LEU270     -0.2864
    196  CB         7.8200   -7.3690   19.8730 C.3   270  LEU270      0.0297
    197  CG         7.2720   -5.9650   20.0880 C.3   270  LEU270      0.0022
    198  CD1        5.7880   -6.0230   20.2380 C.3   270  LEU270      0.0001
    199  CD2        7.9050   -5.3210   21.3120 C.3   270  LEU270      0.0001
    200  N          0.0830   -8.8750   23.0100 N.3   276  GLY276     -0.1210
    201  CA        -0.4270   -7.6670   23.6200 C.3   276  GLY276      0.1956
    202  C         -1.9130   -7.5050   23.4050 C.2   276  GLY276      0.2612
    203  O         -2.5140   -8.1510   22.5500 O.2   276  GLY276     -0.2717
    204  N         -2.5070   -6.6320   24.2010 N.am  277  ILE277     -0.1965
    205  CA        -3.9120   -6.2970   24.0810 C.3   277  ILE277      0.1727
    206  C         -4.0280   -4.7930   24.2200 C.2   277  ILE277      0.2616
    207  O         -3.4640   -4.2090   25.1420 O.2   277  ILE277     -0.2715
    208  CB        -4.7480   -6.9670   25.1890 C.3   277  ILE277      0.0290
    209  CG1       -4.5750   -8.4820   25.1480 C.3   277  ILE277      0.0022
    210  CG2       -6.2150   -6.5950   25.0470 C.3   277  ILE277      0.0023
    211  CD1       -5.1020   -9.1820   26.3760 C.3   277  ILE277      0.0001
    212  N         -4.7340   -4.1650   23.2920 N.am  278  CYS278     -0.1968
    213  CA        -4.9880   -2.7300   23.3650 C.3   278  CYS278      0.1712
    214  C         -6.4810   -2.4490   23.2220 C.2   278  CYS278      0.2296
    215  O         -7.2500   -3.3320   22.8610 O.2   278  CYS278     -0.2864
    216  CB        -4.1990   -1.9830   22.2890 C.3   278  CYS278      0.0983
    217  SG        -4.5460   -2.5360   20.6200 S.3   278  CYS278     -0.0798
@<TRIPOS>BOND
     1     4     3    2
     2     1     2    1
     3     3     2    1
     4    25    24    2
     5     2     5    1
     6    21    20    1
     7    24    23    1
     8    20    17    1
     9    30    28   am
    10    19    18    2
    11     5     6    1
    12    27    28    1
    13    27    26    1
    14    23    22    1
    15    23    26    1
    16    18    17    1
    17    18    22   am
    18     7     6    1
    19    17    16    1
    20     6     8    1
    21    28    29    2
    22    16    11   am
    23   173   171    1
    24    11    10    1
    25    11    12    2
    26    10     9    1
    27    10    13    1
    28   167   168    1
    29   171   168    1
    30   171   172    1
    31   168   169    1
    32    56    55    2
    33    13    15    1
    34    13    14    1
    35    55    54    1
    36    38    36    1
    37    52    51    1
    38   169   174   am
    39   169   170    2
    40    54    53    1
    41   159   158    2
    42   174   175    1
    43   158   157    1
    44    53    49   am
    45    31    32    1
    46    51    48    1
    47    36    37    1
    48    36    35    1
    49    49    48    1
    50    49    50    2
    51   179   181    1
    52   179   178    1
    53   175   178    1
    54   175   176    1
    55   157   156    1
    56   157   160    1
    57    35    32    1
    58    48    47    1
    59    74    73    2
    60   178   180    1
    61    32    33    1
    62   191   189   ar
    63   191   190   ar
    64   176   177    2
    65    73    72    1
    66    34    33    2
    67    70    69    1
    68    72    71    1
    69    72    75    1
    70   189   187   ar
    71    71    67   am
    72   128   126    1
    73   160   161    1
    74   190   188   ar
    75   182   183    1
    76    47    41   am
    77    76    75    1
    78   127   126    1
    79    42    41    2
    80   126   125    2
    81    69    66    1
    82    67    66    1
    83    67    68    2
    84   187   188   ar
    85   187   186    1
    86    66    65    1
    87    41    40    1
    88   161   163   ar
    89   161   162   ar
    90   154   152    1
    91    77    78    1
    92    79    80    2
    93    79    78    1
    94   183   186    1
    95   183   184    1
    96   163   165   ar
    97    60    59    2
    98   125   124    1
    99    44    46    1
   100    44    43    1
   101   162   164   ar
   102   155   153    1
   103    65    59   am
   104    78    81    1
   105    59    58    1
   106   152   153    1
   107   152   149    1
   108    40    43    1
   109    40    39    1
   110   149   150    1
   111   149   148    1
   112   192   184   am
   113   192   193    1
   114   184   185    2
   115    43    45    1
   116   124   123    1
   117   165   166   ar
   118   150   151    2
   119    63    61    1
   120   164   166   ar
   121   196   193    1
   122   196   197    1
   123    57    58    1
   124   194   193    1
   125   194   195    2
   126    58    61    1
   127   123   122    1
   128   197   198    1
   129   197   199    1
   130    61    62    1
   131   217   216    1
   132   122   119    1
   133    62    64    1
   134   118   119    1
   135   139   138   ar
   136   139   137   ar
   137   110   111    1
   138   138   136   ar
   139   119   120    1
   140   113   112    2
   141   111   112    1
   142   111   114    1
   143   216   213    1
   144   137   135   ar
   145   117   115    1
   146   203   202    2
   147   147   145    1
   148   215   214    2
   149   200   201    1
   150   115   114    1
   151   115   116    1
   152   136   134   ar
   153   214   213    1
   154   212   213    1
   155   212   206   am
   156   202   201    1
   157   202   204   am
   158   135   134   ar
   159   120   121    2
   160   145   144    1
   161   134   133    1
   162    86    83    1
   163   205   204    1
   164   205   206    1
   165   205   208    1
   166   108   106   ar
   167   108   109   ar
   168   106   104   ar
   169   206   207    2
   170   109   107   ar
   171   104   103    1
   172   104   105   ar
   173   103   100    1
   174   107   105   ar
   175   210   208    1
   176   144   146    1
   177   144   141    1
   178   209   208    1
   179   209   211    1
   180   133   130    1
   181   140   141    1
   182    83    82    1
   183    83    84    1
   184   100   101    1
   185   100    99    1
   186    90    89    2
   187   141   142    1
   188    84    87   am
   189    84    85    2
   190   130   129    1
   191   130   131    1
   192    87    88    1
   193   101   102    2
   194    89    99   am
   195    89    88    1
   196   142   143    2
   197    88    91    1
   198   131   132    2
   199    91    92    1
   200    93    92   ar
   201    93    95   ar
   202    92    94   ar
   203    95    97   ar
   204    94    96   ar
   205    97    96   ar
   206    97    98    1
