@<TRIPOS>MOLECULE
tmp/3fyxA01.pdb
 128 125 0 0 0
SMALL
GASTEIGER

@<TRIPOS>ATOM
      1  N        -81.1970   20.0540   10.3040 N.3    22  TYR22      -0.1241
      2  CA       -80.7990   18.7960   10.9590 C.3    22  TYR22       0.1605
      3  C        -81.9550   18.2630   11.7970 C.2    22  TYR22       0.2264
      4  O        -82.6530   19.0400   12.4480 O.2    22  TYR22      -0.2867
      5  CB       -79.5970   19.0160   11.8780 C.3    22  TYR22       0.0534
      6  CG       -78.2460   19.1380   11.2110 C.ar   22  TYR22      -0.0201
      7  CD1      -78.1210   19.3030    9.8340 C.ar   22  TYR22      -0.0009
      8  CD2      -77.0850   19.1290   11.9780 C.ar   22  TYR22      -0.0009
      9  CE1      -76.8720   19.4280    9.2360 C.ar   22  TYR22       0.0417
     10  CE2      -75.8300   19.2610   11.3950 C.ar   22  TYR22       0.0417
     11  CZ       -75.7330   19.4090   10.0250 C.ar   22  TYR22       0.1957
     12  OH       -74.4930   19.5340    9.4510 O.3    22  TYR22      -0.2866
     13  N        -76.0550   13.0580   17.4070 N.3    32  TYR32      -0.1227
     14  CA       -74.7680   13.1580   16.7390 C.3    32  TYR32       0.1736
     15  C        -74.4720   14.5850   16.2800 C.2    32  TYR32       0.2596
     16  O        -73.4640   15.1570   16.6820 O.2    32  TYR32      -0.2718
     17  CB       -74.6810   12.1650   15.5750 C.3    32  TYR32       0.0548
     18  CG       -73.5160   12.3840   14.6280 C.ar   32  TYR32      -0.0200
     19  CD1      -72.2080   12.0710   15.0020 C.ar   32  TYR32      -0.0009
     20  CD2      -73.7240   12.8900   13.3490 C.ar   32  TYR32      -0.0009
     21  CE1      -71.1300   12.2730   14.1140 C.ar   32  TYR32       0.0417
     22  CE2      -72.6620   13.0910   12.4620 C.ar   32  TYR32       0.0417
     23  CZ       -71.3710   12.7840   12.8470 C.ar   32  TYR32       0.1957
     24  OH       -70.3350   12.9910   11.9620 O.3    32  TYR32      -0.2866
     25  N        -75.3560   15.1680   15.4730 N.am   33  GLY33      -0.1957
     26  CA       -75.0590   16.4400   14.8060 C.3    33  GLY33       0.1869
     27  C        -75.7630   17.7070   15.2700 C.2    33  GLY33       0.2309
     28  O        -75.5270   18.7780   14.7170 O.2    33  GLY33      -0.2863
     29  N        -79.5690   24.9630   10.1110 N.3    38  MET38      -0.1245
     30  CA       -78.1220   24.7690    9.9060 C.3    38  MET38       0.1570
     31  C        -77.6290   25.3580    8.5790 C.2    38  MET38       0.2261
     32  O        -76.5600   24.9970    8.0800 O.2    38  MET38      -0.2867
     33  CB       -77.7460   23.2810   10.0090 C.3    38  MET38       0.0387
     34  CG       -77.7550   22.7110   11.4350 C.3    38  MET38       0.0595
     35  SD       -76.6440   23.5840   12.5550 S.3    38  MET38      -0.1393
     36  CE       -75.0250   23.1330   11.8950 C.3    38  MET38       0.0692
     37  N        -73.2150   15.5040    3.7760 N.3   117  GLU117     -0.1231
     38  CA       -73.2210   16.4710    4.8750 C.3   117  GLU117      0.1699
     39  C        -72.1560   16.2020    5.9370 C.2   117  GLU117      0.2592
     40  O        -71.4180   17.1110    6.3460 O.2   117  GLU117     -0.2718
     41  CB       -74.6000   16.5290    5.5400 C.3   117  GLU117      0.0402
     42  CG       -74.7220   17.5810    6.6460 C.3   117  GLU117      0.1161
     43  CD       -74.5080   18.9970    6.1340 C.2   117  GLU117      0.3649
     44  OE1      -75.1140   19.3510    5.1030 O.co2 117  GLU117     -0.2457
     45  OE2      -73.7290   19.7570    6.7560 O.co2 117  GLU117     -0.2457
     46  N        -72.0910   14.9550    6.3870 N.am  118  PHE118     -0.1962
     47  CA       -71.2100   14.5850    7.4850 C.3   118  PHE118      0.1771
     48  C        -69.9400   13.8640    6.9980 C.2   118  PHE118      0.2620
     49  O        -69.4570   14.1290    5.8960 O.2   118  PHE118     -0.2715
     50  CB       -71.9880   13.7490    8.5090 C.3   118  PHE118      0.0574
     51  CG       -73.2640   14.4040    9.0090 C.ar  118  PHE118     -0.0200
     52  CD1      -73.2180   15.4720    9.9130 C.ar  118  PHE118     -0.0042
     53  CD2      -74.5040   13.9370    8.6000 C.ar  118  PHE118     -0.0042
     54  CE1      -74.3890   16.0680   10.3930 C.ar  118  PHE118     -0.0003
     55  CE2      -75.6740   14.5250    9.0780 C.ar  118  PHE118     -0.0003
     56  CZ       -75.6140   15.5960    9.9730 C.ar  118  PHE118     -0.0000
     57  N        -69.3970   12.9710    7.8210 N.am  119  GLY119     -0.1940
     58  CA       -68.1620   12.2760    7.4830 C.3   119  GLY119      0.2014
     59  C        -66.9510   13.1580    7.6990 C.2   119  GLY119      0.2639
     60  O        -67.0840   14.3060    8.1200 O.2   119  GLY119     -0.2714
     61  N        -65.7660   12.6190    7.4090 N.am  120  GLY120     -0.1939
     62  CA       -64.4960   13.3220    7.6490 C.3   120  GLY120      0.2014
     63  C        -64.3420   13.8630    9.0650 C.2   120  GLY120      0.2638
     64  O        -63.9320   15.0070    9.2610 O.2   120  GLY120     -0.2714
     65  N        -64.6610   13.0280   10.0510 N.am  121  ASP121     -0.1971
     66  CA       -64.7310   13.4530   11.4500 C.3   121  ASP121      0.1709
     67  C        -63.3650   13.6410   12.1160 C.2   121  ASP121      0.2293
     68  O        -63.2570   14.3150   13.1370 O.2   121  ASP121     -0.2864
     69  CB       -65.5740   12.4650   12.2620 C.3   121  ASP121      0.1436
     70  CG       -67.0010   12.3500   11.7550 C.2   121  ASP121      0.3671
     71  OD1      -67.2080   11.7910   10.6550 O.co2 121  ASP121     -0.2456
     72  OD2      -67.9160   12.7990   12.4730 O.co2 121  ASP121     -0.2456
     73  N        -60.9190   15.1960   10.7450 N.3   123  ALA123     -0.1231
     74  CA       -60.3000   16.3220   10.0280 C.3   123  ALA123      0.1694
     75  C        -60.4840   17.6870   10.7170 C.2   123  ALA123      0.2592
     76  O        -60.9430   18.6540   10.0940 O.2   123  ALA123     -0.2718
     77  CB       -60.8070   16.3650    8.5820 C.3   123  ALA123      0.0304
     78  N        -60.0850   17.7510   11.9910 N.am  124  TYR124     -0.1962
     79  CA       -60.3560   18.9030   12.8690 C.3   124  TYR124      0.1771
     80  C        -59.6710   20.2010   12.4340 C.2   124  TYR124      0.2620
     81  O        -58.6100   20.1840   11.8100 O.2   124  TYR124     -0.2715
     82  CB       -60.0140   18.6010   14.3460 C.3   124  TYR124      0.0574
     83  CG       -60.5320   17.2760   14.8960 C.ar  124  TYR124     -0.0198
     84  CD1      -61.8640   17.1230   15.2990 C.ar  124  TYR124     -0.0009
     85  CD2      -59.6820   16.1850   15.0330 C.ar  124  TYR124     -0.0009
     86  CE1      -62.3340   15.9050   15.8090 C.ar  124  TYR124      0.0417
     87  CE2      -60.1410   14.9680   15.5340 C.ar  124  TYR124      0.0417
     88  CZ       -61.4620   14.8350   15.9210 C.ar  124  TYR124      0.1957
     89  OH       -61.8930   13.6240   16.4130 O.3   124  TYR124     -0.2866
     90  N        -60.2960   21.3270   12.7700 N.am  125  SER125     -0.1950
     91  CA       -59.7250   22.6400   12.4810 C.3   125  SER125      0.1924
     92  C        -58.7330   23.0300   13.5460 C.2   125  SER125      0.2314
     93  O        -58.9860   22.8860   14.7430 O.2   125  SER125     -0.2863
     94  CB       -60.8090   23.7150   12.3550 C.3   125  SER125      0.2116
     95  OG       -61.2250   23.8440   11.0050 O.3   125  SER125     -0.2180
     96  N        -57.7600   22.1770    8.5230 N.3   132  ARG132     -0.1245
     97  CA       -57.3420   23.4880    8.0920 C.3   132  ARG132      0.1563
     98  C        -56.6430   24.2180    9.2210 C.2   132  ARG132      0.2260
     99  O        -57.2520   24.4790   10.2570 O.2   132  ARG132     -0.2867
    100  CB       -58.5510   24.2700    7.5990 C.3   132  ARG132      0.0307
    101  CG       -59.3350   23.5270    6.5450 C.3   132  ARG132      0.0489
    102  CD       -60.2300   24.4540    5.7770 C.3   132  ARG132      0.2205
    103  NE       -61.3530   24.9450    6.5770 N.pl3 132  ARG132     -0.0865
    104  CZ       -62.4340   24.2320    6.8980 C.cat 132  ARG132      0.5346
    105  NH1      -62.5550   22.9660    6.5150 N.pl3 132  ARG132      0.1354
    106  NH2      -63.4010   24.7870    7.6150 N.pl3 132  ARG132      0.1354
    107  N        -57.0010   23.8910   22.4940 N.3   167  ARG167     -0.1231
    108  CA       -57.7400   23.3270   21.3640 C.3   167  ARG167      0.1694
    109  C        -57.2650   23.9210   20.0250 C.2   167  ARG167      0.2591
    110  O        -57.0580   23.1930   19.0480 O.2   167  ARG167     -0.2718
    111  CB       -59.2450   23.5730   21.5890 C.3   167  ARG167      0.0321
    112  CG       -60.1540   23.4270   20.3770 C.3   167  ARG167      0.0489
    113  CD       -60.5680   21.9800   20.1710 C.3   167  ARG167      0.2205
    114  NE       -61.0580   21.7170   18.8160 N.pl3 167  ARG167     -0.0865
    115  CZ       -60.3000   21.6960   17.7150 C.cat 167  ARG167      0.5346
    116  NH1      -58.9960   21.9490   17.7690 N.pl3 167  ARG167      0.1354
    117  NH2      -60.8540   21.4300   16.5400 N.pl3 167  ARG167      0.1354
    118  N        -57.0550   25.2380   20.0060 N.am  168  ARG168     -0.1980
    119  CA       -56.7890   25.9790   18.7690 C.3   168  ARG168      0.1597
    120  C        -55.3180   26.2790   18.5400 C.2   168  ARG168      0.2287
    121  O        -54.9110   26.5730   17.4180 O.2   168  ARG168     -0.2864
    122  CB       -57.6240   27.2600   18.7440 C.3   168  ARG168      0.0334
    123  CG       -59.1300   26.9970   18.8650 C.3   168  ARG168      0.0492
    124  CD       -59.6110   26.0850   17.7370 C.3   168  ARG168      0.2205
    125  NE       -61.0610   25.9260   17.6990 N.pl3 168  ARG168     -0.0865
    126  CZ       -61.7440   25.5560   16.6170 C.cat 168  ARG168      0.5346
    127  NH1      -61.1120   25.3210   15.4710 N.pl3 168  ARG168      0.1354
    128  NH2      -63.0640   25.4300   16.6730 N.pl3 168  ARG168      0.1354
@<TRIPOS>BOND
     1    37    38    1
     2    38    41    1
     3    38    39    1
     4    44    43   ar
     5    41    42    1
     6   102   101    1
     7   102   103    1
     8    49    48    2
     9    39    40    2
    10    39    46   am
    11    43    42    1
    12    43    45   ar
    13    46    47    1
    14   105   104    1
    15   101   100    1
    16   103   104    2
    17   104   106    1
    18    48    47    1
    19    48    57   am
    20    61    62    1
    21    61    59   am
    22    58    59    1
    23    58    57    1
    24    47    50    1
    25   100    97    1
    26    62    63    1
    27    59    60    2
    28    32    31    2
    29    97    96    1
    30    97    98    1
    31    50    51    1
    32    31    30    1
    33    77    74    1
    34    53    51   ar
    35    53    55   ar
    36    51    52   ar
    37    63    64    2
    38    63    65   am
    39    55    56   ar
    40    98    99    2
    41     9     7   ar
    42     9    11   ar
    43    12    11    1
    44     7     6   ar
    45    30    33    1
    46    30    29    1
    47    52    54   ar
    48    56    54   ar
    49    33    34    1
    50    11    10   ar
    51    74    75    1
    52    74    73    1
    53    65    66    1
    54    76    75    2
    55     1     2    1
    56    71    70   ar
    57    75    78   am
    58     2     3    1
    59     2     5    1
    60    95    94    1
    61     6     5    1
    62     6     8   ar
    63    10     8   ar
    64    34    35    1
    65    66    67    1
    66    66    69    1
    67    70    69    1
    68    70    72   ar
    69     3     4    2
    70    81    80    2
    71    36    35    1
    72    24    23    1
    73    78    79    1
    74    67    68    2
    75    94    91    1
    76    80    90   am
    77    80    79    1
    78    22    23   ar
    79    22    20   ar
    80    91    90    1
    81    91    92    1
    82    23    21   ar
    83    79    82    1
    84    20    18   ar
    85    92    93    2
    86    21    19   ar
    87    82    83    1
    88    18    19   ar
    89    18    17    1
    90    28    27    2
    91    26    27    1
    92    26    25    1
    93    83    85   ar
    94    83    84   ar
    95    85    87   ar
    96    84    86   ar
    97   127   126    1
    98    25    15   am
    99    87    88   ar
   100    17    14    1
   101    86    88   ar
   102    88    89    1
   103    15    16    2
   104    15    14    1
   105   117   115    1
   106   126   128    1
   107   126   125    2
   108    14    13    1
   109   121   120    2
   110   125   124    1
   111   115   116    1
   112   115   114    2
   113   124   123    1
   114   120   119    1
   115   122   119    1
   116   122   123    1
   117   119   118    1
   118   114   113    1
   119   110   109    2
   120   118   109   am
   121   109   108    1
   122   113   112    1
   123   112   111    1
   124   108   111    1
   125   108   107    1
