@<TRIPOS>MOLECULE
tmp/3fyxA00.pdb
 199 192 0 0 0
SMALL
GASTEIGER

@<TRIPOS>ATOM
      1  N        -66.6030   32.3140   -6.4750 N.3    14  TYR14      -0.1227
      2  CA       -67.5110   31.2060   -6.2450 C.3    14  TYR14       0.1736
      3  C        -68.1520   31.2750   -4.8720 C.2    14  TYR14       0.2596
      4  O        -67.5510   31.7630   -3.9160 O.2    14  TYR14      -0.2718
      5  CB       -66.7460   29.9010   -6.3600 C.3    14  TYR14       0.0548
      6  CG       -65.8010   29.6830   -5.2140 C.ar   14  TYR14      -0.0200
      7  CD1      -66.1670   28.8870   -4.1370 C.ar   14  TYR14      -0.0009
      8  CD2      -64.5480   30.2900   -5.1990 C.ar   14  TYR14      -0.0009
      9  CE1      -65.3100   28.6980   -3.0840 C.ar   14  TYR14       0.0417
     10  CE2      -63.6820   30.1070   -4.1510 C.ar   14  TYR14       0.0417
     11  CZ       -64.0680   29.3120   -3.0950 C.ar   14  TYR14       0.1957
     12  OH       -63.2100   29.1190   -2.0440 O.3    14  TYR14      -0.2866
     13  N        -69.3670   30.7560   -4.7750 N.am   15  GLY15      -0.1942
     14  CA       -70.0850   30.7450   -3.5150 C.3    15  GLY15       0.2014
     15  C        -71.1900   29.7170   -3.5260 C.2    15  GLY15       0.2639
     16  O        -71.3250   28.9470   -4.4770 O.2    15  GLY15      -0.2714
     17  N        -71.9720   29.6930   -2.4530 N.am   16  CYS16      -0.1967
     18  CA       -73.1420   28.8340   -2.3820 C.3    16  CYS16       0.1712
     19  C        -74.1050   29.2600   -1.2920 C.2    16  CYS16       0.2296
     20  O        -73.7470   29.9990   -0.3760 O.2    16  CYS16      -0.2864
     21  CB       -72.7480   27.3750   -2.1850 C.3    16  CYS16       0.0983
     22  SG       -71.3630   27.1790   -1.1090 S.3    16  CYS16      -0.0798
     23  N        -76.6460   27.1660    1.0770 N.3    18  VAL18      -0.1245
     24  CA       -77.0320   25.8300    1.5130 C.3    18  VAL18       0.1561
     25  C        -78.0350   25.8950    2.6590 C.2    18  VAL18       0.2260
     26  O        -77.6750   25.7310    3.8260 O.2    18  VAL18      -0.2867
     27  CB       -75.8030   24.9850    1.9210 C.3    18  VAL18       0.0252
     28  CG1      -76.2060   23.5350    2.2100 C.3    18  VAL18       0.0019
     29  CG2      -74.7270   25.0510    0.8320 C.3    18  VAL18       0.0019
     30  N        -76.0900   27.7930    5.7510 N.3    40  TYR40      -0.1241
     31  CA       -74.8610   28.5820    5.6530 C.3    40  TYR40       0.1605
     32  C        -74.5390   29.0050    4.2300 C.2    40  TYR40       0.2264
     33  O        -75.0420   28.4270    3.2660 O.2    40  TYR40      -0.2867
     34  CB       -73.6860   27.8000    6.2170 C.3    40  TYR40       0.0534
     35  CG       -73.3340   26.5420    5.4570 C.ar   40  TYR40      -0.0201
     36  CD1      -74.1280   25.3910    5.5520 C.ar   40  TYR40      -0.0009
     37  CD2      -72.1910   26.4910    4.6660 C.ar   40  TYR40      -0.0009
     38  CE1      -73.7920   24.2250    4.8720 C.ar   40  TYR40       0.0417
     39  CE2      -71.8520   25.3410    3.9850 C.ar   40  TYR40       0.0417
     40  CZ       -72.6500   24.2140    4.0940 C.ar   40  TYR40       0.1957
     41  OH       -72.2970   23.0820    3.4090 O.3    40  TYR40      -0.2866
     42  N        -71.2200   30.4220    1.5700 N.3    42  ARG42      -0.1245
     43  CA       -69.7870   30.4400    1.3450 C.3    42  ARG42       0.1563
     44  C        -69.5310   31.3940    0.2040 C.2    42  ARG42       0.2260
     45  O        -70.3790   31.6030   -0.6700 O.2    42  ARG42      -0.2867
     46  CB       -69.2550   29.0400    0.9810 C.3    42  ARG42       0.0307
     47  CG       -69.5110   27.9220    2.0090 C.3    42  ARG42       0.0489
     48  CD       -68.2240   27.4130    2.6360 C.3    42  ARG42       0.2205
     49  NE       -68.4400   26.8080    3.9540 N.pl3  42  ARG42      -0.0865
     50  CZ       -68.6430   25.5110    4.1750 C.cat  42  ARG42       0.5346
     51  NH1      -68.6780   24.6530    3.1620 N.pl3  42  ARG42       0.1354
     52  NH2      -68.8250   25.0690    5.4140 N.pl3  42  ARG42       0.1354
     53  N        -61.5350   31.6000    1.0800 N.3    62  GLU62      -0.1245
     54  CA       -62.8910   31.0740    1.1810 C.3    62  GLU62       0.1567
     55  C        -63.4310   31.4410    2.5340 C.2    62  GLU62       0.2260
     56  O        -62.6980   31.4010    3.5180 O.2    62  GLU62      -0.2867
     57  CB       -62.9010   29.5530    1.0170 C.3    62  GLU62       0.0388
     58  CG       -64.2530   28.8770    1.2810 C.3    62  GLU62       0.1160
     59  CD       -64.2770   27.4250    0.8380 C.2    62  GLU62       0.3649
     60  OE1      -64.4670   27.1780   -0.3670 O.co2  62  GLU62      -0.2457
     61  OE2      -64.1100   26.5310    1.6940 O.co2  62  GLU62      -0.2457
     62  N        -62.0460   30.2270    5.9650 N.3    82  ARG82      -0.1245
     63  CA       -61.6850   28.8330    6.0080 C.3    82  ARG82       0.1563
     64  C        -60.3320   28.5960    5.3370 C.2    82  ARG82       0.2260
     65  O        -59.5140   27.8090    5.8290 O.2    82  ARG82      -0.2867
     66  CB       -62.7970   27.9850    5.4010 C.3    82  ARG82       0.0307
     67  CG       -63.9850   27.7680    6.3450 C.3    82  ARG82       0.0489
     68  CD       -65.2330   27.4380    5.5650 C.3    82  ARG82       0.2205
     69  NE       -64.9260   26.5980    4.4130 N.pl3  82  ARG82      -0.0865
     70  CZ       -64.9940   25.2740    4.4210 C.cat  82  ARG82       0.5346
     71  NH1      -65.3750   24.6500    5.5250 N.pl3  82  ARG82       0.1354
     72  NH2      -64.6940   24.5800    3.3250 N.pl3  82  ARG82       0.1354
     73  N        -55.2140   23.5140    4.3730 N.3   102  TYR102     -0.1241
     74  CA       -55.2970   22.1220    4.7850 C.3   102  TYR102      0.1605
     75  C        -53.8990   21.5880    5.0430 C.2   102  TYR102      0.2264
     76  O        -52.9860   21.8320    4.2510 O.2   102  TYR102     -0.2867
     77  CB       -55.9600   21.2910    3.6960 C.3   102  TYR102      0.0534
     78  CG       -57.4550   21.4390    3.6350 C.ar  102  TYR102     -0.0201
     79  CD1      -58.2780   20.7320    4.5090 C.ar  102  TYR102     -0.0009
     80  CD2      -58.0520   22.2770    2.7040 C.ar  102  TYR102     -0.0009
     81  CE1      -59.6640   20.8560    4.4570 C.ar  102  TYR102      0.0417
     82  CE2      -59.4360   22.4150    2.6430 C.ar  102  TYR102      0.0417
     83  CZ       -60.2370   21.7010    3.5210 C.ar  102  TYR102      0.1957
     84  OH       -61.6110   21.8210    3.4630 O.3   102  TYR102     -0.2866
     85  N        -54.2490   15.9340    5.9050 N.3   106  TYR106     -0.1241
     86  CA       -55.4750   15.9630    5.1100 C.3   106  TYR106      0.1605
     87  C        -55.2850   15.4250    3.6820 C.2   106  TYR106      0.2264
     88  O        -56.2640   15.0720    3.0190 O.2   106  TYR106     -0.2867
     89  CB       -56.1190   17.3550    5.0880 C.3   106  TYR106      0.0534
     90  CG       -57.5450   17.3200    4.5850 C.ar  106  TYR106     -0.0201
     91  CD1      -58.5860   16.9420    5.4260 C.ar  106  TYR106     -0.0009
     92  CD2      -57.8480   17.6360    3.2650 C.ar  106  TYR106     -0.0009
     93  CE1      -59.8880   16.8890    4.9720 C.ar  106  TYR106      0.0417
     94  CE2      -59.1470   17.5860    2.8030 C.ar  106  TYR106      0.0417
     95  CZ       -60.1590   17.2120    3.6620 C.ar  106  TYR106      0.1957
     96  OH       -61.4510   17.1620    3.2180 O.3   106  TYR106     -0.2866
     97  N        -63.6130   12.1920    3.2150 N.3   113  ASP113     -0.1225
     98  CA       -64.4050   13.3960    3.4320 C.3   113  ASP113      0.1805
     99  C        -65.2010   13.6780    2.1660 C.2   113  ASP113      0.2598
    100  O        -64.9290   14.6250    1.4240 O.2   113  ASP113     -0.2718
    101  CB       -63.5300   14.5880    3.8330 C.3   113  ASP113      0.1424
    102  CG       -64.3460   15.8370    4.1180 C.2   113  ASP113      0.3668
    103  OD1      -65.5510   15.7100    4.4140 O.co2 113  ASP113     -0.2456
    104  OD2      -63.7900   16.9490    4.0440 O.co2 113  ASP113     -0.2456
    105  N        -66.1890   12.8280    1.9270 N.am  114  MET114     -0.1965
    106  CA       -66.9420   12.8720    0.6890 C.3   114  MET114      0.1736
    107  C        -68.4310   12.6670    0.9180 C.2   114  MET114      0.2616
    108  O        -69.1830   12.5180   -0.0420 O.2   114  MET114     -0.2715
    109  CB       -66.4390   11.8010   -0.2830 C.3   114  MET114      0.0427
    110  CG       -65.0470   12.0160   -0.8610 C.3   114  MET114      0.0599
    111  SD       -64.9490   12.9720   -2.3880 S.3   114  MET114     -0.1393
    112  CE       -66.6820   13.1200   -2.8910 C.3   114  MET114      0.0692
    113  N        -68.8640   12.6480    2.1730 N.am  115  LEU115     -0.1964
    114  CA       -70.2830   12.4710    2.4370 C.3   115  LEU115      0.1713
    115  C        -71.0450   13.7700    2.1290 C.2   115  LEU115      0.2458
    116  O        -70.4760   14.8550    2.2330 O.2   115  LEU115     -0.2730
    117  CB       -70.5310   11.9780    3.8750 C.3   115  LEU115      0.0310
    118  CG       -69.8950   10.6740    4.3860 C.3   115  LEU115      0.0022
    119  CD1      -70.4820   10.2850    5.7220 C.3   115  LEU115      0.0001
    120  CD2      -70.0580    9.5320    3.4120 C.3   115  LEU115      0.0001
    121  N        -72.3240   13.6530    1.7170 N.am  116  PRO116     -0.2716
    122  CA       -73.2410   14.7720    1.4480 C.3   116  PRO116      0.1536
    123  C        -73.2110   15.8840    2.4970 C.2   116  PRO116      0.2598
    124  O        -73.1970   17.0700    2.1340 O.2   116  PRO116     -0.2715
    125  CB       -74.6180   14.1050    1.4710 C.3   116  PRO116      0.0310
    126  CG       -74.3650   12.7140    1.0280 C.3   116  PRO116      0.0237
    127  CD       -72.9660   12.3480    1.4530 C.3   116  PRO116      0.0939
    128  N        -73.2150   15.5040    3.7760 N.am  117  GLU117     -0.1964
    129  CA       -73.2210   16.4710    4.8750 C.3   117  GLU117      0.1733
    130  C        -72.1560   16.2020    5.9370 C.2   117  GLU117      0.2616
    131  O        -71.4180   17.1110    6.3460 O.2   117  GLU117     -0.2715
    132  CB       -74.6000   16.5290    5.5400 C.3   117  GLU117      0.0429
    133  CG       -74.7220   17.5810    6.6460 C.3   117  GLU117      0.1163
    134  CD       -74.5080   18.9970    6.1340 C.2   117  GLU117      0.3649
    135  OE1      -75.1140   19.3510    5.1030 O.co2 117  GLU117     -0.2457
    136  OE2      -73.7290   19.7570    6.7560 O.co2 117  GLU117     -0.2457
    137  N        -72.0910   14.9550    6.3870 N.am  118  PHE118     -0.1960
    138  CA       -71.2100   14.5850    7.4850 C.3   118  PHE118      0.1771
    139  C        -69.9400   13.8640    6.9980 C.2   118  PHE118      0.2620
    140  O        -69.4570   14.1290    5.8960 O.2   118  PHE118     -0.2715
    141  CB       -71.9880   13.7490    8.5090 C.3   118  PHE118      0.0574
    142  CG       -73.2640   14.4040    9.0090 C.ar  118  PHE118     -0.0200
    143  CD1      -73.2180   15.4720    9.9130 C.ar  118  PHE118     -0.0042
    144  CD2      -74.5040   13.9370    8.6000 C.ar  118  PHE118     -0.0042
    145  CE1      -74.3890   16.0680   10.3930 C.ar  118  PHE118     -0.0003
    146  CE2      -75.6740   14.5250    9.0780 C.ar  118  PHE118     -0.0003
    147  CZ       -75.6140   15.5960    9.9730 C.ar  118  PHE118     -0.0000
    148  N        -69.3970   12.9710    7.8210 N.am  119  GLY119     -0.1940
    149  CA       -68.1620   12.2760    7.4830 C.3   119  GLY119      0.2014
    150  C        -66.9510   13.1580    7.6990 C.2   119  GLY119      0.2639
    151  O        -67.0840   14.3060    8.1200 O.2   119  GLY119     -0.2714
    152  N        -65.7660   12.6190    7.4090 N.am  120  GLY120     -0.1954
    153  CA       -64.4960   13.3220    7.6490 C.3   120  GLY120      0.1869
    154  C        -64.3420   13.8630    9.0650 C.2   120  GLY120      0.2309
    155  O        -63.9320   15.0070    9.2610 O.2   120  GLY120     -0.2863
    156  N        -60.9190   15.1960   10.7450 N.3   123  ALA123     -0.1245
    157  CA       -60.3000   16.3220   10.0280 C.3   123  ALA123      0.1562
    158  C        -60.4840   17.6870   10.7170 C.2   123  ALA123      0.2260
    159  O        -60.9430   18.6540   10.0940 O.2   123  ALA123     -0.2867
    160  CB       -60.8070   16.3650    8.5820 C.3   123  ALA123      0.0290
    161  N        -57.7600   22.1770    8.5230 N.3   132  ARG132     -0.1245
    162  CA       -57.3420   23.4880    8.0920 C.3   132  ARG132      0.1563
    163  C        -56.6430   24.2180    9.2210 C.2   132  ARG132      0.2260
    164  O        -57.2520   24.4790   10.2570 O.2   132  ARG132     -0.2867
    165  CB       -58.5510   24.2700    7.5990 C.3   132  ARG132      0.0307
    166  CG       -59.3350   23.5270    6.5450 C.3   132  ARG132      0.0489
    167  CD       -60.2300   24.4540    5.7770 C.3   132  ARG132      0.2205
    168  NE       -61.3530   24.9450    6.5770 N.pl3 132  ARG132     -0.0865
    169  CZ       -62.4340   24.2320    6.8980 C.cat 132  ARG132      0.5346
    170  NH1      -62.5550   22.9660    6.5150 N.pl3 132  ARG132      0.1354
    171  NH2      -63.4010   24.7870    7.6150 N.pl3 132  ARG132      0.1354
    172  N        -79.8940   16.9690   -0.8540 N.3   310  TYR310     -0.1241
    173  CA       -79.3310   15.7830   -0.2250 C.3   310  TYR310      0.1605
    174  C        -80.0270   15.3630    1.0570 C.2   310  TYR310      0.2264
    175  O        -80.5080   16.1890    1.8220 O.2   310  TYR310     -0.2867
    176  CB       -77.8190   15.9490    0.0190 C.3   310  TYR310      0.0534
    177  CG       -77.3510   17.1570    0.8430 C.ar  310  TYR310     -0.0201
    178  CD1      -77.9380   17.4780    2.0850 C.ar  310  TYR310     -0.0009
    179  CD2      -76.2600   17.9350    0.4090 C.ar  310  TYR310     -0.0009
    180  CE1      -77.4810   18.5640    2.8490 C.ar  310  TYR310      0.0417
    181  CE2      -75.7950   19.0290    1.1700 C.ar  310  TYR310      0.0417
    182  CZ       -76.4160   19.3350    2.3840 C.ar  310  TYR310      0.1957
    183  OH       -75.9640   20.4050    3.1270 O.3   310  TYR310     -0.2866
    184  N        -79.0020   22.9710   -2.1230 N.3   337  VAL337     -0.1245
    185  CA       -77.7870   23.7430   -2.4140 C.3   337  VAL337      0.1561
    186  C        -77.8230   24.4900   -3.7370 C.2   337  VAL337      0.2260
    187  O        -77.9940   23.8860   -4.7940 O.2   337  VAL337     -0.2867
    188  CB       -76.5030   22.8530   -2.4060 C.3   337  VAL337      0.0252
    189  CG1      -75.2680   23.6640   -2.8310 C.3   337  VAL337      0.0019
    190  CG2      -76.2840   22.2020   -1.0430 C.3   337  VAL337      0.0019
    191  N        -74.8940   26.3130   -5.5640 N.3   339  GLN339     -0.1245
    192  CA       -73.4970   26.7370   -5.6600 C.3   339  GLN339      0.1566
    193  C        -73.2100   27.3750   -7.0120 C.2   339  GLN339      0.2260
    194  O        -73.9430   27.1620   -7.9690 O.2   339  GLN339     -0.2867
    195  CB       -72.5280   25.5780   -5.3840 C.3   339  GLN339      0.0367
    196  CG       -72.9710   24.2170   -5.8990 C.3   339  GLN339      0.0905
    197  CD       -71.8630   23.2030   -5.8030 C.2   339  GLN339      0.2608
    198  OE1      -71.8980   22.2990   -4.9630 O.2   339  GLN339     -0.2717
    199  NE2      -70.8500   23.3630   -6.6470 N.am  339  GLN339     -0.0878
@<TRIPOS>BOND
     1   194   193    2
     2   193   192    1
     3   199   197   am
     4     1     2    1
     5     5     2    1
     6     5     6    1
     7     2     3    1
     8   196   197    1
     9   196   195    1
    10   197   198    2
    11   192   191    1
    12   192   195    1
    13     6     8   ar
    14     6     7   ar
    15     8    10   ar
    16     3    13   am
    17     3     4    2
    18   187   186    2
    19    13    14    1
    20    16    15    2
    21    10    11   ar
    22     7     9   ar
    23   186   185    1
    24    15    14    1
    25    15    17   am
    26    11     9   ar
    27    11    12    1
    28   112   111    1
    29   189   188    1
    30    17    18    1
    31   185   188    1
    32   185   184    1
    33   188   190    1
    34   111   110    1
    35    18    21    1
    36    18    19    1
    37    21    22    1
    38    19    20    2
    39   110   109    1
    40   172   173    1
    41    45    44    2
    42    60    59   ar
    43   109   106    1
    44   173   176    1
    45   173   174    1
    46   108   107    2
    47   176   177    1
    48    44    43    1
    49   179   177   ar
    50   179   181   ar
    51   106   107    1
    52   106   105    1
    53    29    27    1
    54    59    58    1
    55    59    61   ar
    56   177   178   ar
    57   107   113   am
    58    46    43    1
    59    46    47    1
    60    57    54    1
    61    57    58    1
    62   126   127    1
    63   126   125    1
    64   174   175    2
    65    23    24    1
    66    53    54    1
    67   181   182   ar
    68    54    55    1
    69    43    42    1
    70   100    99    2
    71   122   125    1
    72   122   121    1
    73   122   123    1
    74   127   121    1
    75    24    27    1
    76    24    25    1
    77   121   115   am
    78    27    28    1
    79   105    99   am
    80    47    48    1
    81   178   180   ar
    82   115   116    2
    83   115   114    1
    84   124   123    2
    85    99    98    1
    86   113   114    1
    87   182   180   ar
    88   182   183    1
    89   114   117    1
    90   123   128   am
    91    55    56    2
    92    48    49    1
    93    82    80   ar
    94    82    83   ar
    95    25    26    2
    96    80    78   ar
    97    94    92   ar
    98    94    95   ar
    99    88    87    2
   100    51    50    1
   101    97    98    1
   102    96    95    1
   103    92    90   ar
   104    33    32    2
   105    72    70    1
   106    41    40    1
   107   120   118    1
   108    98   101    1
   109    84    83    1
   110    83    81   ar
   111    78    77    1
   112    78    79   ar
   113    95    93   ar
   114    87    86    1
   115    77    74    1
   116   128   129    1
   117   101   102    1
   118   117   118    1
   119    49    50    2
   120    39    40   ar
   121    39    37   ar
   122   104   102   ar
   123    40    38   ar
   124   102   103   ar
   125    50    52    1
   126    32    31    1
   127    76    75    2
   128    73    74    1
   129   118   119    1
   130    69    70    2
   131    69    68    1
   132    70    71    1
   133    81    79   ar
   134    90    89    1
   135    90    91   ar
   136    37    35   ar
   137    74    75    1
   138    38    36   ar
   139   129   132    1
   140   129   130    1
   141    93    91   ar
   142    89    86    1
   143   135   134   ar
   144    86    85    1
   145    64    65    2
   146    64    63    1
   147    66    63    1
   148    66    67    1
   149    35    36   ar
   150    35    34    1
   151   132   133    1
   152    68    67    1
   153    31    30    1
   154    31    34    1
   155   167   166    1
   156   167   168    1
   157   140   139    2
   158   130   131    2
   159   130   137   am
   160    62    63    1
   161   134   133    1
   162   134   136   ar
   163   137   138    1
   164   170   169    1
   165   166   165    1
   166   168   169    2
   167   169   171    1
   168   139   138    1
   169   139   148   am
   170   152   153    1
   171   152   150   am
   172   149   150    1
   173   149   148    1
   174   138   141    1
   175   165   162    1
   176   153   154    1
   177   150   151    2
   178   162   161    1
   179   162   163    1
   180   141   142    1
   181   160   157    1
   182   144   142   ar
   183   144   146   ar
   184   142   143   ar
   185   154   155    2
   186   146   147   ar
   187   163   164    2
   188   143   145   ar
   189   147   145   ar
   190   157   158    1
   191   157   156    1
   192   159   158    2
