@<TRIPOS>MOLECULE
tmp/3fyzA00.pdb
 151 147 0 0 0
SMALL
GASTEIGER

@<TRIPOS>ATOM
      1  N        100.7220   27.5550   27.9430 N.3    50  SER50      -0.1217
      2  CA       101.0370   27.0570   29.2790 C.3    50  SER50       0.1889
      3  C        100.1700   25.9340   29.8450 C.2    50  SER50       0.2288
      4  O        100.6200   25.1920   30.7270 O.2    50  SER50      -0.2866
      5  CB       101.0690   28.2260   30.2680 C.3    50  SER50       0.2089
      6  OG       102.3370   28.8590   30.2650 O.3    50  SER50      -0.2183
      7  N        113.3080   35.3610   30.1280 N.3    79  THR79      -0.1203
      8  CA       112.3140   36.3860   29.8770 C.3    79  THR79       0.1994
      9  C        111.9700   37.1710   31.1370 C.2    79  THR79       0.2617
     10  O        111.7980   38.3830   31.0820 O.2    79  THR79      -0.2717
     11  CB       111.0190   35.7700   29.3140 C.3    79  THR79       0.1784
     12  OG1      111.3300   34.9900   28.1530 O.3    79  THR79      -0.2211
     13  CG2      110.0310   36.8650   28.9350 C.3    79  THR79       0.0376
     14  N        111.8710   36.4780   32.2680 N.am   80  TYR80      -0.1975
     15  CA       111.5290   37.1170   33.5330 C.3    80  TYR80       0.1639
     16  C        112.5210   36.7770   34.6420 C.2    80  TYR80       0.2290
     17  O        113.0420   35.6590   34.7100 O.2    80  TYR80      -0.2864
     18  CB       110.1330   36.6820   33.9850 C.3    80  TYR80       0.0560
     19  CG       109.0340   36.9820   32.9950 C.ar   80  TYR80      -0.0198
     20  CD1      108.5920   38.2900   32.7860 C.ar   80  TYR80      -0.0009
     21  CD2      108.4420   35.9610   32.2550 C.ar   80  TYR80      -0.0009
     22  CE1      107.5820   38.5710   31.8620 C.ar   80  TYR80       0.0417
     23  CE2      107.4390   36.2290   31.3270 C.ar   80  TYR80       0.0417
     24  CZ       107.0140   37.5360   31.1350 C.ar   80  TYR80       0.1957
     25  OH       106.0380   37.8060   30.2010 O.3    80  TYR80      -0.2866
     26  N        111.9160   36.3260   37.6930 N.3    82  MET82      -0.1230
     27  CA       111.3180   35.2990   38.5380 C.3    82  MET82       0.1702
     28  C        111.6230   33.8820   38.0520 C.2    82  MET82       0.2592
     29  O        111.4700   32.9270   38.8080 O.2    82  MET82      -0.2718
     30  CB       109.8010   35.4970   38.6380 C.3    82  MET82       0.0401
     31  CG       109.0450   35.2910   37.3300 C.3    82  MET82       0.0596
     32  SD       107.2550   35.3450   37.5540 S.3    82  MET82      -0.1393
     33  CE       106.6840   35.6080   35.8480 C.3    82  MET82       0.0692
     34  N        112.0440   33.7510   36.7940 N.am   83  TRP83      -0.1976
     35  CA       112.3880   32.4490   36.2290 C.3    83  TRP83       0.1640
     36  C        113.8820   32.1480   36.3620 C.2    83  TRP83       0.2290
     37  O        114.3290   31.0250   36.1080 O.2    83  TRP83      -0.2864
     38  CB       112.0180   32.3810   34.7400 C.3    83  TRP83       0.0576
     39  CG       110.5490   32.3860   34.4580 C.ar   83  TRP83       0.0006
     40  CD1      109.5340   32.2500   35.3630 C.ar   83  TRP83       0.0946
     41  CD2      109.9290   32.5010   33.1710 C.ar   83  TRP83       0.0152
     42  NE1      108.3210   32.2740   34.7190 N.ar   83  TRP83      -0.2442
     43  CE2      108.5330   32.4280   33.3730 C.ar   83  TRP83       0.0810
     44  CE3      110.4190   32.6590   31.8670 C.ar   83  TRP83       0.0012
     45  CZ2      107.6160   32.5070   32.3190 C.ar   83  TRP83       0.0191
     46  CZ3      109.5050   32.7370   30.8150 C.ar   83  TRP83       0.0001
     47  CH2      108.1190   32.6610   31.0510 C.ar   83  TRP83       0.0015
     48  N        103.5190   26.8170   38.9840 N.3    94  ALA94      -0.1231
     49  CA       102.9150   28.0330   39.5300 C.3    94  ALA94       0.1694
     50  C        103.4950   29.3120   38.9260 C.2    94  ALA94       0.2592
     51  O        102.8290   30.3530   38.9090 O.2    94  ALA94      -0.2718
     52  CB       103.0890   28.0670   41.0510 C.3    94  ALA94       0.0304
     53  N        104.7330   29.2360   38.4410 N.am   95  LEU95      -0.1966
     54  CA       105.3880   30.3950   37.8580 C.3    95  LEU95       0.1728
     55  C        105.3290   30.3930   36.3440 C.2    95  LEU95       0.2616
     56  O        105.7900   31.3370   35.7060 O.2    95  LEU95      -0.2715
     57  CB       106.8580   30.4400   38.2830 C.3    95  LEU95       0.0311
     58  CG       107.1850   30.7610   39.7430 C.3    95  LEU95       0.0022
     59  CD1      108.6870   30.6070   39.9740 C.3    95  LEU95       0.0001
     60  CD2      106.7390   32.1770   40.0670 C.3    95  LEU95       0.0001
     61  N        104.7670   29.3330   35.7740 N.am   96  SER96      -0.1950
     62  CA       104.6850   29.1890   34.3240 C.3    96  SER96       0.1924
     63  C        106.1010   29.2390   33.7550 C.2    96  SER96       0.2314
     64  O        106.3330   29.7810   32.6680 O.2    96  SER96      -0.2863
     65  CB       103.8370   30.3070   33.7140 C.3    96  SER96       0.2116
     66  OG       102.4930   30.2250   34.1540 O.3    96  SER96      -0.2180
     67  N        108.3970   28.2900   31.7200 N.3    98  VAL98      -0.1245
     68  CA       108.5630   27.6120   30.4430 C.3    98  VAL98       0.1561
     69  C        109.9180   26.9620   30.2340 C.2    98  VAL98       0.2260
     70  O        109.9950   25.8500   29.7030 O.2    98  VAL98      -0.2867
     71  CB       108.3310   28.6000   29.3100 C.3    98  VAL98       0.0252
     72  CG1      108.1000   27.8720   27.9960 C.3    98  VAL98       0.0019
     73  CG2      107.1730   29.4580   29.6700 C.3    98  VAL98       0.0019
     74  N        110.6070   23.1760   29.0490 N.3   102  GLN102     -0.1245
     75  CA       111.2110   22.9090   27.7480 C.3   102  GLN102      0.1566
     76  C        112.3160   21.8760   27.9860 C.2   102  GLN102      0.2260
     77  O        112.5850   21.0180   27.1380 O.2   102  GLN102     -0.2867
     78  CB       111.7900   24.1870   27.1490 C.3   102  GLN102      0.0367
     79  CG       110.7260   25.1690   26.6850 C.3   102  GLN102      0.0905
     80  CD       111.3180   26.3870   26.0030 C.2   102  GLN102      0.2608
     81  OE1      112.1040   27.1210   26.5940 O.2   102  GLN102     -0.2717
     82  NE2      110.9440   26.6060   24.7530 N.am  102  GLN102     -0.0878
     83  N        103.7390   23.3830   21.7820 N.3   135  TRP135     -0.1227
     84  CA       102.5440   23.8260   22.4910 C.3   135  TRP135      0.1737
     85  C        102.4020   25.3430   22.5830 C.2   135  TRP135      0.2595
     86  O        101.4000   25.8550   23.1010 O.2   135  TRP135     -0.2718
     87  CB       102.5310   23.2350   23.9010 C.3   135  TRP135      0.0564
     88  CG       103.6240   23.7540   24.7810 C.ar  135  TRP135      0.0003
     89  CD1      103.5590   24.8190   25.6340 C.ar  135  TRP135      0.0946
     90  CD2      104.9560   23.2370   24.8860 C.ar  135  TRP135      0.0152
     91  NE1      104.7650   24.9960   26.2640 N.ar  135  TRP135     -0.2442
     92  CE2      105.6420   24.0390   25.8230 C.ar  135  TRP135      0.0810
     93  CE3      105.6370   22.1690   24.2760 C.ar  135  TRP135      0.0012
     94  CZ2      106.9790   23.8100   26.1710 C.ar  135  TRP135      0.0191
     95  CZ3      106.9680   21.9390   24.6210 C.ar  135  TRP135      0.0001
     96  CH2      107.6240   22.7590   25.5630 C.ar  135  TRP135      0.0015
     97  N        103.3930   26.0630   22.0690 N.am  136  LEU136     -0.1980
     98  CA       103.3720   27.5180   22.1230 C.3   136  LEU136      0.1596
     99  C        103.0970   28.1840   20.7870 C.2   136  LEU136      0.2287
    100  O        102.4430   29.2240   20.7340 O.2   136  LEU136     -0.2864
    101  CB       104.6990   28.0390   22.6800 C.3   136  LEU136      0.0297
    102  CG       105.0360   27.6060   24.1120 C.3   136  LEU136      0.0022
    103  CD1      106.3680   28.1860   24.5410 C.3   136  LEU136      0.0001
    104  CD2      103.9380   28.0810   25.0450 C.3   136  LEU136      0.0001
    105  N         96.9270   28.6570   34.1500 N.3   187  SER187     -0.1202
    106  CA        96.6670   29.7490   33.2260 C.3   187  SER187      0.2020
    107  C         97.5620   29.5320   32.0140 C.2   187  SER187      0.2619
    108  O         98.4860   28.7130   32.0450 O.2   187  SER187     -0.2717
    109  CB        96.9820   31.1040   33.8720 C.3   187  SER187      0.2103
    110  OG        98.3490   31.2030   34.2400 O.3   187  SER187     -0.2182
    111  N         97.2790   30.2580   30.9420 N.am  188  GLY188     -0.1942
    112  CA        98.0770   30.1260   29.7420 C.3   188  GLY188      0.2014
    113  C         97.9270   31.3630   28.8850 C.2   188  GLY188      0.2638
    114  O         96.8560   31.9570   28.8330 O.2   188  GLY188     -0.2714
    115  N         99.0060   31.7570   28.2200 N.am  189  TRP189     -0.1973
    116  CA        98.9900   32.9250   27.3540 C.3   189  TRP189      0.1640
    117  C         99.9330   32.6740   26.1760 C.2   189  TRP189      0.2290
    118  O        101.1540   32.6290   26.3440 O.2   189  TRP189     -0.2864
    119  CB        99.4430   34.1640   28.1290 C.3   189  TRP189      0.0576
    120  CG        99.2730   35.4560   27.3640 C.ar  189  TRP189      0.0006
    121  CD1       99.1790   35.6000   26.0090 C.ar  189  TRP189      0.0946
    122  CD2       99.2510   36.7840   27.9090 C.ar  189  TRP189      0.0152
    123  NE1       99.1050   36.9270   25.6780 N.ar  189  TRP189     -0.2442
    124  CE2       99.1480   37.6790   26.8210 C.ar  189  TRP189      0.0810
    125  CE3       99.3140   37.3060   29.2110 C.ar  189  TRP189      0.0012
    126  CZ2       99.1050   39.0700   26.9900 C.ar  189  TRP189      0.0191
    127  CZ3       99.2730   38.6940   29.3800 C.ar  189  TRP189      0.0001
    128  CH2       99.1690   39.5570   28.2730 C.ar  189  TRP189      0.0015
    129  N        101.6670   34.0970   23.4180 N.3   191  MET191     -0.1245
    130  CA       102.0690   35.3780   22.8600 C.3   191  MET191      0.1570
    131  C        102.7970   35.1770   21.5430 C.2   191  MET191      0.2261
    132  O        102.9370   36.1100   20.7580 O.2   191  MET191     -0.2867
    133  CB       102.9760   36.1160   23.8400 C.3   191  MET191      0.0387
    134  CG       102.5060   36.0390   25.2780 C.3   191  MET191      0.0595
    135  SD       103.4300   37.1300   26.3560 S.3   191  MET191     -0.1393
    136  CE       105.0610   36.5120   26.1100 C.3   191  MET191      0.0692
    137  N         97.0800   39.8070   32.6160 N.3   226  GLY226     -0.1225
    138  CA        96.8180   38.3840   32.6890 C.3   226  GLY226      0.1811
    139  C         95.8020   38.0950   33.7760 C.2   226  GLY226      0.2280
    140  O         95.1010   37.0850   33.7320 O.2   226  GLY226     -0.2866
    141  N         91.9010   37.2420   33.1210 N.3   229  ARG229     -0.1245
    142  CA        91.4320   35.8760   32.9240 C.3   229  ARG229      0.1563
    143  C         90.9020   35.3860   34.2550 C.2   229  ARG229      0.2260
    144  O         89.8230   34.7990   34.3330 O.2   229  ARG229     -0.2867
    145  CB        92.5700   34.9490   32.4940 C.3   229  ARG229      0.0307
    146  CG        93.0400   35.1280   31.0760 C.3   229  ARG229      0.0489
    147  CD        94.3260   34.3510   30.8530 C.3   229  ARG229      0.2205
    148  NE        95.3300   34.6950   31.8580 N.pl3 229  ARG229     -0.0865
    149  CZ        96.5910   34.2890   31.8210 C.cat 229  ARG229      0.5346
    150  NH1       97.4390   34.6480   32.7800 N.pl3 229  ARG229      0.1354
    151  NH2       97.0090   33.5280   30.8200 N.pl3 229  ARG229      0.1354
@<TRIPOS>BOND
     1   100    99    2
     2   132   131    2
     3    99    98    1
     4   131   130    1
     5    83    84    1
     6    97    98    1
     7    97    85   am
     8    98   101    1
     9    84    85    1
    10    84    87    1
    11    85    86    2
    12   101   102    1
    13   130   129    1
    14   130   133    1
    15   133   134    1
    16    87    88    1
    17   102   103    1
    18   102   104    1
    19    93    95   ar
    20    93    90   ar
    21    95    96   ar
    22    82    80   am
    23    88    90   ar
    24    88    89   ar
    25    90    92   ar
    26   134   135    1
    27    96    94   ar
    28    89    91   ar
    29   123   121   ar
    30   123   124   ar
    31    92    94   ar
    32    92    91   ar
    33    80    81    2
    34    80    79    1
    35   121   120   ar
    36   136   135    1
    37   117   118    2
    38   117   116    1
    39    79    78    1
    40   124   126   ar
    41   124   122   ar
    42   126   128   ar
    43    77    76    2
    44    78    75    1
    45   116   119    1
    46   116   115    1
    47   120   122   ar
    48   120   119    1
    49    75    76    1
    50    75    74    1
    51   122   125   ar
    52     1     2    1
    53    72    71    1
    54    12    11    1
    55   115   113   am
    56   128   127   ar
    57   114   113    2
    58   113   112    1
    59    13    11    1
    60   125   127   ar
    61     2     3    1
    62     2     5    1
    63    71    73    1
    64    71    68    1
    65    11     8    1
    66    70    69    2
    67   112   111    1
    68     3     4    2
    69     8     7    1
    70     8     9    1
    71    25    24    1
    72    69    68    1
    73     6     5    1
    74    68    67    1
    75    46    47   ar
    76    46    44   ar
    77   151   149    1
    78   147   146    1
    79   147   148    1
    80   111   107   am
    81    47    45   ar
    82   146   145    1
    83    10     9    2
    84    24    23   ar
    85    24    22   ar
    86     9    14   am
    87    23    21   ar
    88   149   148    2
    89   149   150    1
    90    22    20   ar
    91    44    41   ar
    92   107   108    2
    93   107   106    1
    94    21    19   ar
    95    14    15    1
    96    45    43   ar
    97   145   142    1
    98   137   138    1
    99    64    63    2
   100   138   139    1
   101    20    19   ar
   102   142   141    1
   103   142   143    1
   104    19    18    1
   105    41    43   ar
   106    41    39   ar
   107   106   109    1
   108   106   105    1
   109    43    42   ar
   110    15    18    1
   111    15    16    1
   112    65    66    1
   113    65    62    1
   114   140   139    2
   115    63    62    1
   116   109   110    1
   117   143   144    2
   118    62    61    1
   119    39    38    1
   120    39    40   ar
   121    16    17    2
   122    42    40   ar
   123    38    35    1
   124    56    55    2
   125    61    55   am
   126    33    32    1
   127    37    36    2
   128    35    36    1
   129    35    34    1
   130    55    54    1
   131    34    28   am
   132    31    32    1
   133    31    30    1
   134    26    27    1
   135    54    57    1
   136    54    53    1
   137    28    27    1
   138    28    29    2
   139    57    58    1
   140    53    50   am
   141    27    30    1
   142    51    50    2
   143    50    49    1
   144    48    49    1
   145    49    52    1
   146    58    59    1
   147    58    60    1
