@<TRIPOS>MOLECULE
tmp/3fz0B00.pdb
 138 134 0 0 0
SMALL
GASTEIGER

@<TRIPOS>ATOM
      1  N         27.1670   23.7330  -11.6370 N.3    10  ASP10      -0.1239
      2  CA        27.3100   24.8180  -10.6830 C.3    10  ASP10       0.1674
      3  C         27.1800   24.3600   -9.2130 C.2    10  ASP10       0.2266
      4  O         26.9920   25.1860   -8.3020 O.2    10  ASP10      -0.2867
      5  CB        26.3820   26.0020  -11.0000 C.3    10  ASP10       0.1410
      6  CG        24.8920   25.6950  -10.7790 C.2    10  ASP10       0.3668
      7  OD1       24.4580   24.5330  -10.9250 O.co2  10  ASP10      -0.2456
      8  OD2       24.1310   26.6380  -10.4860 O.co2  10  ASP10      -0.2456
      9  N         21.2100   19.5250   -5.8460 N.3    14  ASP14      -0.1225
     10  CA        20.7710   18.5970   -6.9050 C.3    14  ASP14       0.1805
     11  C         21.8720   18.2310   -7.9110 C.2    14  ASP14       0.2597
     12  O         21.8920   17.1280   -8.4510 O.2    14  ASP14      -0.2718
     13  CB        19.4260   19.0140   -7.5380 C.3    14  ASP14       0.1424
     14  CG        19.5300   20.2680   -8.4050 C.2    14  ASP14       0.3668
     15  OD1       20.0770   21.3010   -7.9240 O.co2  14  ASP14      -0.2456
     16  OD2       19.0700   20.1850   -9.5890 O.co2  14  ASP14      -0.2456
     17  N         22.8360   19.1170   -8.1120 N.am   15  ASP15      -0.1974
     18  CA        24.0540   18.7340   -8.8390 C.3    15  ASP15       0.1709
     19  C         24.8040   17.5680   -8.1640 C.2    15  ASP15       0.2293
     20  O         25.3190   16.6620   -8.8340 O.2    15  ASP15      -0.2864
     21  CB        24.9990   19.9230   -8.9670 C.3    15  ASP15       0.1436
     22  CG        24.3650   21.1000   -9.6650 C.2    15  ASP15       0.3671
     23  OD1       23.6050   21.8530   -9.0320 O.co2  15  ASP15      -0.2456
     24  OD2       24.6230   21.3050  -10.8740 O.co2  15  ASP15      -0.2456
     25  N         24.3500   28.9070   -8.9920 N.3    39  ASN39      -0.1240
     26  CA        23.8460   29.0210   -7.6310 C.3    39  ASN39       0.1653
     27  C         24.9020   29.2350   -6.5480 C.2    39  ASN39       0.2266
     28  O         24.6020   29.7600   -5.4700 O.2    39  ASN39      -0.2867
     29  CB        22.8730   27.8970   -7.2990 C.3    39  ASN39       0.1155
     30  CG        21.4740   28.1640   -7.8880 C.2    39  ASN39       0.2627
     31  OD1       20.9020   29.2760   -7.7280 O.2    39  ASN39      -0.2716
     32  ND2       20.9360   27.1710   -8.5970 N.am   39  ASN39      -0.0877
     33  N         20.0250   31.5290   -5.4600 N.3    79  TRP79      -0.1241
     34  CA        18.8000   31.0460   -4.8260 C.3    79  TRP79       0.1605
     35  C         18.9050   30.9020   -3.3010 C.2    79  TRP79       0.2264
     36  O         18.0680   31.4280   -2.5840 O.2    79  TRP79      -0.2867
     37  CB        18.4470   29.6980   -5.4470 C.3    79  TRP79       0.0550
     38  CG        17.1120   29.0960   -5.0450 C.ar   79  TRP79       0.0003
     39  CD1       15.8980   29.7520   -4.9020 C.ar   79  TRP79       0.0946
     40  CD2       16.8500   27.7040   -4.7840 C.ar   79  TRP79       0.0152
     41  NE1       14.9190   28.8430   -4.5460 N.ar   79  TRP79      -0.2442
     42  CE2       15.4700   27.5850   -4.4770 C.ar   79  TRP79       0.0810
     43  CE3       17.6540   26.5470   -4.7720 C.ar   79  TRP79       0.0012
     44  CZ2       14.8790   26.3600   -4.1500 C.ar   79  TRP79       0.0191
     45  CZ3       17.0690   25.3290   -4.4480 C.ar   79  TRP79       0.0001
     46  CH2       15.6940   25.2410   -4.1540 C.ar   79  TRP79       0.0015
     47  N         19.5900   25.5100   -0.9680 N.3    82  PHE82      -0.1241
     48  CA        20.4220   24.5100   -0.3470 C.3    82  PHE82       0.1605
     49  C         21.2930   25.0540    0.7600 C.2    82  PHE82       0.2264
     50  O         22.0450   24.3020    1.3470 O.2    82  PHE82      -0.2867
     51  CB        21.2690   23.7980   -1.4200 C.3    82  PHE82       0.0534
     52  CG        20.5110   22.7350   -2.1540 C.ar   82  PHE82      -0.0203
     53  CD1       19.9950   22.9900   -3.4430 C.ar   82  PHE82      -0.0042
     54  CD2       20.2640   21.4870   -1.5450 C.ar   82  PHE82      -0.0042
     55  CE1       19.2510   21.9950   -4.1410 C.ar   82  PHE82      -0.0003
     56  CE2       19.5340   20.4970   -2.1980 C.ar   82  PHE82      -0.0003
     57  CZ        19.0220   20.7500   -3.5080 C.ar   82  PHE82      -0.0000
     58  N         24.6920   20.8640  -16.1970 N.3   130  LEU130     -0.1245
     59  CA        23.7640   21.0450  -15.0910 C.3   130  LEU130      0.1561
     60  C         23.7410   22.4620  -14.5430 C.2   130  LEU130      0.2260
     61  O         23.2520   22.6980  -13.4210 O.2   130  LEU130     -0.2867
     62  CB        24.1030   20.0680  -13.9690 C.3   130  LEU130      0.0270
     63  CG        24.2620   18.5960  -14.3610 C.3   130  LEU130      0.0019
     64  CD1       24.6660   17.7420  -13.1600 C.3   130  LEU130      0.0001
     65  CD2       22.9780   18.0550  -15.0200 C.3   130  LEU130      0.0001
     66  N         20.3320   20.3760  -18.4280 N.3   161  MET161     -0.1245
     67  CA        19.2110   20.7670  -17.5440 C.3   161  MET161      0.1570
     68  C         19.0260   22.2670  -17.7070 C.2   161  MET161      0.2261
     69  O         19.8280   23.0530  -17.2300 O.2   161  MET161     -0.2867
     70  CB        19.4210   20.3630  -16.0680 C.3   161  MET161      0.0387
     71  CG        18.1410   20.4430  -15.2780 C.3   161  MET161      0.0595
     72  SD        17.6300   22.1480  -14.9740 S.3   161  MET161     -0.1393
     73  CE        15.8720   22.0820  -15.3140 C.3   161  MET161      0.0692
     74  N         11.0710   29.9540  -13.3410 N.3   170  ASN170     -0.1240
     75  CA        11.2930   29.9620  -11.8940 C.3   170  ASN170      0.1653
     76  C         12.3310   31.0350  -11.5350 C.2   170  ASN170      0.2266
     77  O         12.6470   31.2510  -10.3750 O.2   170  ASN170     -0.2867
     78  CB        11.6830   28.5470  -11.3870 C.3   170  ASN170      0.1155
     79  CG        12.9500   27.9920  -12.0740 C.2   170  ASN170      0.2627
     80  OD1       13.7660   28.7590  -12.5720 O.2   170  ASN170     -0.2716
     81  ND2       13.0920   26.6610  -12.1260 N.am  170  ASN170     -0.0877
     82  N         13.5770   29.6960  -16.9210 N.3   176  GLU176     -0.1231
     83  CA        14.2070   28.8440  -15.9210 C.3   176  GLU176      0.1699
     84  C         15.6060   29.4090  -15.5500 C.2   176  GLU176      0.2592
     85  O         16.3220   29.9700  -16.3980 O.2   176  GLU176     -0.2718
     86  CB        14.2740   27.4110  -16.4960 C.3   176  GLU176      0.0402
     87  CG        14.9600   26.3110  -15.6550 C.3   176  GLU176      0.1161
     88  CD        16.4580   26.4040  -15.6960 C.2   176  GLU176      0.3649
     89  OE1       17.0190   26.7030  -16.7630 O.co2 176  GLU176     -0.2457
     90  OE2       17.0880   26.2030  -14.6540 O.co2 176  GLU176     -0.2457
     91  N         16.0070   29.2390  -14.2940 N.am  177  PHE177     -0.1962
     92  CA        17.3250   29.7030  -13.7950 C.3   177  PHE177      0.1771
     93  C         18.5570   29.5800  -14.7250 C.2   177  PHE177      0.2619
     94  O         19.2020   30.5800  -15.0170 O.2   177  PHE177     -0.2715
     95  CB        17.6410   29.0740  -12.4220 C.3   177  PHE177      0.0574
     96  CG        18.9060   29.5990  -11.7900 C.ar  177  PHE177     -0.0200
     97  CD1       18.9310   30.8590  -11.1950 C.ar  177  PHE177     -0.0042
     98  CD2       20.0810   28.8340  -11.8040 C.ar  177  PHE177     -0.0042
     99  CE1       20.1130   31.3660  -10.6200 C.ar  177  PHE177     -0.0003
    100  CE2       21.2750   29.3270  -11.2240 C.ar  177  PHE177     -0.0003
    101  CZ        21.2880   30.5950  -10.6240 C.ar  177  PHE177     -0.0000
    102  N         18.9070   28.3690  -15.1410 N.am  178  ASN178     -0.1972
    103  CA        20.1520   28.1600  -15.8990 C.3   178  ASN178      0.1688
    104  C         20.0870   28.9140  -17.2290 C.2   178  ASN178      0.2292
    105  O         21.0570   29.5490  -17.6550 O.2   178  ASN178     -0.2864
    106  CB        20.4100   26.6570  -16.1780 C.3   178  ASN178      0.1181
    107  CG        20.7630   25.8550  -14.9300 C.2   178  ASN178      0.2629
    108  OD1       21.2840   26.3970  -13.9710 O.2   178  ASN178     -0.2716
    109  ND2       20.5110   24.5370  -14.9710 N.am  178  ASN178     -0.0877
    110  N         12.4820   22.3830  -16.8670 N.3   204  TRP204     -0.1241
    111  CA        11.9050   22.4970  -15.5360 C.3   204  TRP204      0.1605
    112  C         10.6420   21.6390  -15.3160 C.2   204  TRP204      0.2264
    113  O         10.5910   20.8480  -14.3540 O.2   204  TRP204     -0.2867
    114  CB        11.6320   23.9760  -15.2330 C.3   204  TRP204      0.0550
    115  CG        10.8540   24.2600  -13.9710 C.ar  204  TRP204      0.0003
    116  CD1        9.6220   24.8500  -13.8980 C.ar  204  TRP204      0.0946
    117  CD2       11.2610   24.0090  -12.6220 C.ar  204  TRP204      0.0152
    118  NE1        9.2500   24.9840  -12.6090 N.ar  204  TRP204     -0.2442
    119  CE2       10.2250   24.4810  -11.7890 C.ar  204  TRP204      0.0810
    120  CE3       12.3900   23.4150  -12.0320 C.ar  204  TRP204      0.0012
    121  CZ2       10.2660   24.3630  -10.3630 C.ar  204  TRP204      0.0191
    122  CZ3       12.4480   23.3140  -10.6130 C.ar  204  TRP204      0.0001
    123  CH2       11.3890   23.7800   -9.8030 C.ar  204  TRP204      0.0015
    124  N         16.0350   18.4990  -10.1640 N.3   260  PRO260     -0.2102
    125  CA        16.1710   18.6150  -11.6310 C.3   260  PRO260      0.1504
    126  C         17.4210   18.0260  -12.2460 C.2   260  PRO260      0.2575
    127  O         17.3130   17.2750  -13.2420 O.2   260  PRO260     -0.2718
    128  CB        16.0780   20.1190  -11.8860 C.3   260  PRO260      0.0282
    129  CG        15.1890   20.6000  -10.7580 C.3   260  PRO260      0.0208
    130  CD        15.7150   19.8050   -9.5540 C.3   260  PRO260      0.0893
    131  N         18.6010   18.3570  -11.7110 N.am  261  ASP261     -0.1974
    132  CA        19.8500   17.8420  -12.3290 C.3   261  ASP261      0.1708
    133  C         19.9410   16.3220  -12.3410 C.2   261  ASP261      0.2293
    134  O         20.5250   15.7550  -13.2560 O.2   261  ASP261     -0.2864
    135  CB        21.0740   18.4300  -11.6510 C.3   261  ASP261      0.1436
    136  CG        21.1940   19.9150  -11.8780 C.2   261  ASP261      0.3671
    137  OD1       20.6720   20.4100  -12.8920 O.co2 261  ASP261     -0.2456
    138  OD2       21.8140   20.6050  -11.0420 O.co2 261  ASP261     -0.2456
@<TRIPOS>BOND
     1    66    67    1
     2    68    67    1
     3    68    69    2
     4   105   104    2
     5    67    70    1
     6   104   103    1
     7    82    83    1
     8   110   111    1
     9    89    88   ar
    10    86    83    1
    11    86    87    1
    12    85    84    2
    13    58    59    1
    14   106   103    1
    15   106   107    1
    16    70    71    1
    17    83    84    1
    18   103   102    1
    19    88    87    1
    20    88    90   ar
    21    84    91   am
    22   111   112    1
    23   111   114    1
    24   112   113    2
    25    73    72    1
    26    71    72    1
    27   114   115    1
    28   102    93   am
    29    59    60    1
    30    59    62    1
    31    65    63    1
    32    94    93    2
    33   109   107   am
    34   107   108    2
    35    93    92    1
    36    60    61    2
    37    63    62    1
    38    63    64    1
    39    91    92    1
    40   115   116   ar
    41   115   117   ar
    42   116   118   ar
    43    92    95    1
    44    74    75    1
    45   134   133    2
    46   127   126    2
    47   137   136   ar
    48   117   120   ar
    49   117   119   ar
    50   118   119   ar
    51    80    79    2
    52    95    96    1
    53   133   132    1
    54   132   131    1
    55   132   135    1
    56   126   131   am
    57   126   125    1
    58    81    79   am
    59    79    78    1
    60   120   122   ar
    61    75    76    1
    62    75    78    1
    63   128   125    1
    64   128   129    1
    65   136   135    1
    66   136   138   ar
    67    98    96   ar
    68    98   100   ar
    69    96    97   ar
    70   119   121   ar
    71     1     2    1
    72   125   124    1
    73    76    77    2
    74   100   101   ar
    75    97    99   ar
    76     5     6    1
    77     5     2    1
    78     7     6   ar
    79    24    22   ar
    80     6     8   ar
    81   129   130    1
    82     2     3    1
    83   101    99   ar
    84   122   123   ar
    85   121   123   ar
    86   124   130    1
    87    22    23   ar
    88    22    21    1
    89    16    14   ar
    90     3     4    2
    91    25    26    1
    92    21    18    1
    93    18    19    1
    94    18    17    1
    95    20    19    2
    96    32    30   am
    97    12    11    2
    98    14    15   ar
    99    14    13    1
   100    17    11   am
   101    11    10    1
   102    30    31    2
   103    30    29    1
   104    26    29    1
   105    26    27    1
   106    13    10    1
   107    10     9    1
   108    27    28    2
   109    33    34    1
   110    37    38    1
   111    37    34    1
   112    38    39   ar
   113    38    40   ar
   114    39    41   ar
   115    34    35    1
   116    40    43   ar
   117    40    42   ar
   118    43    45   ar
   119    41    42   ar
   120    42    44   ar
   121    45    46   ar
   122    46    44   ar
   123    55    57   ar
   124    55    53   ar
   125    57    56   ar
   126    53    52   ar
   127    35    36    2
   128    56    54   ar
   129    52    54   ar
   130    52    51    1
   131    51    48    1
   132    47    48    1
   133    48    49    1
   134    49    50    2
