@<TRIPOS>MOLECULE
tmp/3fz1A00.pdb
 146 138 0 0 0
SMALL
GASTEIGER

@<TRIPOS>ATOM
      1  N         -0.6130   23.5110    3.6400 N.3    10  ILE10      -0.1231
      2  CA         0.5120   23.7900    4.5280 C.3    10  ILE10       0.1696
      3  C          0.2120   23.4760    5.9900 C.2    10  ILE10       0.2632
      4  O          1.0400   23.7150    6.8710 O.2    10  ILE10      -0.2714
      5  CB         1.0030   25.2450    4.3960 C.3    10  ILE10       0.0266
      6  CG1       -0.1230   26.2300    4.7010 C.3    10  ILE10       0.0019
      7  CG2        1.5710   25.4880    3.0040 C.3    10  ILE10       0.0020
      8  CD1        0.2500   27.6680    4.4170 C.3    10  ILE10       0.0001
      9  N         -0.9690   22.9370    6.2530 N.am   11  GLY11      -0.1718
     10  CA        -1.2960   22.5760    7.6170 C.2    11  GLY11       0.1480
     11  C         -2.7260   22.1670    7.8650 C.2    11  GLY11       0.2820
     12  O         -3.6260   22.4630    7.0780 O.2    11  GLY11      -0.2669
     13  N         -2.9180   21.4630    8.9720 N.am   12  GLU12      -0.1929
     14  CA        -4.2340   21.1750    9.4920 C.3    12  GLU12       0.1736
     15  C         -4.3330   21.9190   10.8100 C.2    12  GLU12       0.2617
     16  O         -3.8830   21.4200   11.8490 O.2    12  GLU12      -0.2715
     17  CB        -4.4050   19.6750    9.7270 C.3    12  GLU12       0.0429
     18  CG        -4.4720   18.8460    8.4550 C.3    12  GLU12       0.1163
     19  CD        -4.3000   17.3520    8.7080 C.2    12  GLU12       0.3649
     20  OE1       -3.7750   16.9740    9.7820 O.co2  12  GLU12      -0.2457
     21  OE2       -4.6890   16.5540    7.8300 O.co2  12  GLU12      -0.2457
     22  N         -4.8860   23.1300   10.7630 N.am   13  GLY13      -0.1940
     23  CA        -5.0940   23.9180   11.9710 C.3    13  GLY13       0.2014
     24  C         -5.9880   23.1570   12.9270 C.2    13  GLY13       0.2639
     25  O         -6.3710   22.0120   12.6530 O.2    13  GLY13      -0.2714
     26  N         -6.3210   23.7700   14.0580 N.am   14  THR14      -0.1950
     27  CA        -7.2610   23.1340   14.9740 C.3    14  THR14       0.1897
     28  C         -8.6760   23.2780   14.4180 C.2    14  THR14       0.2313
     29  O         -9.5340   22.4100   14.6200 O.2    14  THR14      -0.2863
     30  CB        -7.1720   23.6970   16.4290 C.3    14  THR14       0.1794
     31  OG1       -7.9440   24.8990   16.5510 O.3    14  THR14      -0.2208
     32  CG2       -5.7290   23.9760   16.8200 C.3    14  THR14       0.0378
     33  N         -5.4870   24.5290    6.2330 N.3    18  VAL18      -0.1245
     34  CA        -4.8280   25.7630    5.8130 C.3    18  VAL18       0.1561
     35  C         -4.0660   25.5150    4.5230 C.2    18  VAL18       0.2260
     36  O         -3.3010   24.5510    4.4220 O.2    18  VAL18      -0.2867
     37  CB        -3.8250   26.2650    6.8860 C.3    18  VAL18       0.0252
     38  CG1       -3.2000   27.6030    6.4640 C.3    18  VAL18       0.0019
     39  CG2       -4.5170   26.3950    8.2380 C.3    18  VAL18       0.0019
     40  N         -2.0210   32.7790    3.1980 N.3    31  ALA31      -0.1245
     41  CA        -2.3680   31.5570    3.9020 C.3    31  ALA31       0.1562
     42  C         -3.8780   31.5830    4.1000 C.2    31  ALA31       0.2260
     43  O         -4.4150   32.4570    4.7890 O.2    31  ALA31      -0.2867
     44  CB        -1.6630   31.5080    5.2420 C.3    31  ALA31       0.0290
     45  N         -7.2690   29.8660    5.4870 N.3    33  LYS33      -0.1245
     46  CA        -7.7480   28.9040    6.4590 C.3    33  LYS33       0.1561
     47  C         -9.2440   28.6760    6.2830 C.2    33  LYS33       0.2260
     48  O        -10.0440   29.5980    6.4200 O.2    33  LYS33      -0.2867
     49  CB        -7.4480   29.3850    7.8800 C.3    33  LYS33       0.0271
     50  CG        -7.8510   28.4020    8.9410 C.3    33  LYS33       0.0035
     51  CD        -7.4470   28.8900   10.3020 C.3    33  LYS33       0.0206
     52  CE        -7.7610   27.8530   11.3750 C.3    33  LYS33       0.1093
     53  NZ        -7.4250   28.3930   12.7270 N.3    33  LYS33      -0.1314
     54  N          0.6350   38.0580   12.9420 N.3    57  VAL57      -0.1245
     55  CA         0.3530   37.6860   11.5610 C.3    57  VAL57       0.1561
     56  C         -0.9260   38.3780   11.1080 C.2    57  VAL57       0.2260
     57  O         -1.9950   38.2140   11.7200 O.2    57  VAL57      -0.2867
     58  CB         0.2520   36.1590   11.3560 C.3    57  VAL57       0.0252
     59  CG1       -0.1270   35.8350    9.8860 C.3    57  VAL57       0.0019
     60  CG2        1.5730   35.5050   11.7210 C.3    57  VAL57       0.0019
     61  N         -4.8520   35.1000    5.7080 N.3    73  PHE73      -0.1227
     62  CA        -3.7700   35.6720    6.5010 C.3    73  PHE73       0.1736
     63  C         -2.5720   36.0340    5.6360 C.2    73  PHE73       0.2595
     64  O         -2.3940   35.5050    4.5510 O.2    73  PHE73      -0.2718
     65  CB        -3.2970   34.6810    7.5720 C.3    73  PHE73       0.0547
     66  CG        -4.2780   34.4660    8.6820 C.ar   73  PHE73      -0.0202
     67  CD1       -5.1120   33.3630    8.6830 C.ar   73  PHE73      -0.0042
     68  CD2       -4.3400   35.3510    9.7480 C.ar   73  PHE73      -0.0042
     69  CE1       -6.0110   33.1600    9.7160 C.ar   73  PHE73      -0.0003
     70  CE2       -5.2260   35.1530   10.7830 C.ar   73  PHE73      -0.0003
     71  CZ        -6.0640   34.0510   10.7690 C.ar   73  PHE73      -0.0000
     72  N         -1.7430   36.9340    6.1470 N.am   74  GLU74      -0.1965
     73  CA        -0.3900   37.1130    5.6490 C.3    74  GLU74       0.1733
     74  C          0.3330   35.7510    5.6380 C.2    74  GLU74       0.2616
     75  O          0.1670   34.9670    6.5660 O.2    74  GLU74      -0.2715
     76  CB         0.3080   38.0700    6.6170 C.3    74  GLU74       0.0429
     77  CG         1.7970   38.1540    6.5040 C.3    74  GLU74       0.1163
     78  CD         2.3980   39.0510    7.5870 C.2    74  GLU74       0.3649
     79  OE1        3.5570   39.4350    7.4180 O.co2  74  GLU74      -0.2457
     80  OE2        1.7350   39.3690    8.5990 O.co2  74  GLU74      -0.2457
     81  N          1.1370   35.4800    4.6090 N.am   75  PHE75      -0.1960
     82  CA         1.8920   34.2230    4.5100 C.3    75  PHE75       0.1771
     83  C          3.3420   34.4240    4.9490 C.2    75  PHE75       0.2619
     84  O          3.9760   35.3870    4.5420 O.2    75  PHE75      -0.2715
     85  CB         1.8550   33.7130    3.0630 C.3    75  PHE75       0.0574
     86  CG         2.6360   32.4540    2.8290 C.ar   75  PHE75      -0.0200
     87  CD1        2.0690   31.2250    3.0830 C.ar   75  PHE75      -0.0042
     88  CD2        3.9370   32.4970    2.3510 C.ar   75  PHE75      -0.0042
     89  CE1        2.7770   30.0530    2.8640 C.ar   75  PHE75      -0.0003
     90  CE2        4.6640   31.3200    2.1460 C.ar   75  PHE75      -0.0003
     91  CZ         4.0790   30.1050    2.4040 C.ar   75  PHE75      -0.0000
     92  N          3.8470   33.5300    5.7980 N.am   76  LEU76      -0.1977
     93  CA         5.2750   33.4920    6.1110 C.3    76  LEU76       0.1596
     94  C          5.8030   32.1000    5.7820 C.2    76  LEU76       0.2287
     95  O          5.0540   31.1230    5.8070 O.2    76  LEU76      -0.2864
     96  CB         5.5610   33.8580    7.5780 C.3    76  LEU76       0.0297
     97  CG         5.4190   35.3250    7.9980 C.3    76  LEU76       0.0022
     98  CD1        3.9660   35.6280    8.3320 C.3    76  LEU76       0.0001
     99  CD2        6.2890   35.6390    9.2090 C.3    76  LEU76       0.0001
    100  N          2.4230   28.1830   20.9240 N.3   122  LYS122     -0.1245
    101  CA         3.2400   26.9960   20.7510 C.3   122  LYS122      0.1561
    102  C          4.1060   27.2440   19.5310 C.2   122  LYS122      0.2260
    103  O          3.7970   28.1390   18.7370 O.2   122  LYS122     -0.2867
    104  CB         2.3580   25.7610   20.5740 C.3   122  LYS122      0.0271
    105  CG         1.4860   25.7640   19.3420 C.3   122  LYS122      0.0035
    106  CD         0.3640   24.7560   19.5180 C.3   122  LYS122      0.0206
    107  CE        -0.5050   24.6850   18.2850 C.3   122  LYS122      0.1093
    108  NZ        -1.6840   23.8310   18.5750 N.3   122  LYS122     -0.1314
    109  N          4.5280   25.9310   16.6560 N.3   124  GLN124     -0.1231
    110  CA         3.8480   25.8620   15.3470 C.3   124  GLN124      0.1698
    111  C          3.0430   27.1230   15.0630 C.2   124  GLN124      0.2592
    112  O          2.6940   27.3880   13.9030 O.2   124  GLN124     -0.2718
    113  CB         2.9130   24.6490   15.2720 C.3   124  GLN124      0.0381
    114  CG         3.6460   23.3250   15.1800 C.3   124  GLN124      0.0905
    115  CD         2.7730   22.2130   14.6250 C.2   124  GLN124      0.2608
    116  OE1        1.5840   22.0950   14.9660 O.2   124  GLN124     -0.2717
    117  NE2        3.3600   21.3890   13.7550 N.am  124  GLN124     -0.0878
    118  N          2.7340   27.8790   16.1160 N.am  125  ASN125     -0.1974
    119  CA         1.9790   29.1440   15.9960 C.3   125  ASN125      0.1688
    120  C          2.8340   30.4100   15.9320 C.2   125  ASN125      0.2292
    121  O          2.3190   31.5260   16.0130 O.2   125  ASN125     -0.2864
    122  CB         0.9620   29.2660   17.1340 C.3   125  ASN125      0.1181
    123  CG        -0.1960   28.3440   16.9390 C.2   125  ASN125      0.2629
    124  OD1       -0.3740   27.8190   15.8400 O.2   125  ASN125     -0.2716
    125  ND2       -0.9860   28.1220   17.9840 N.am  125  ASN125     -0.0877
    126  N          5.5400   32.3250   13.5950 N.3   127  LEU127     -0.1245
    127  CA         6.0550   32.2780   12.2490 C.3   127  LEU127      0.1561
    128  C          7.1960   33.2640   12.0790 C.2   127  LEU127      0.2260
    129  O          7.1820   34.3470   12.6550 O.2   127  LEU127     -0.2867
    130  CB         4.9410   32.5680   11.2320 C.3   127  LEU127      0.0270
    131  CG         3.6790   31.7170   11.4100 C.3   127  LEU127      0.0019
    132  CD1        2.6290   32.1550   10.3910 C.3   127  LEU127      0.0001
    133  CD2        4.0190   30.2210   11.2460 C.3   127  LEU127      0.0001
    134  N          0.7010   33.7240   15.4110 N.3   137  ALA137     -0.1231
    135  CA        -0.3010   33.2870   14.4200 C.3   137  ALA137      0.1694
    136  C         -1.4950   32.6020   15.0740 C.2   137  ALA137      0.2592
    137  O         -1.3750   31.9980   16.1400 O.2   137  ALA137     -0.2718
    138  CB         0.3230   32.3650   13.3790 C.3   137  ALA137      0.0304
    139  N         -2.6380   32.6910   14.4160 N.am  138  ASP138     -0.1974
    140  CA        -3.8800   32.1830   14.9680 C.3   138  ASP138      0.1709
    141  C         -4.2600   32.9570   16.2330 C.2   138  ASP138      0.2293
    142  O         -4.8180   32.4110   17.1700 O.2   138  ASP138     -0.2864
    143  CB        -3.7360   30.7050   15.2750 C.3   138  ASP138      0.1436
    144  CG        -4.3450   29.8550   14.2290 C.2   138  ASP138      0.3671
    145  OD1       -4.5380   30.3940   13.1140 O.co2 138  ASP138     -0.2456
    146  OD2       -4.6500   28.6740   14.5220 O.co2 138  ASP138     -0.2456
@<TRIPOS>BOND
     1    90    88   ar
     2    90    91   ar
     3    88    86   ar
     4    91    89   ar
     5    86    85    1
     6    86    87   ar
     7    89    87   ar
     8     7     5    1
     9    85    82    1
    10    40    41    1
    11     1     2    1
    12    41    42    1
    13    41    44    1
    14    42    43    2
    15     5     2    1
    16     5     6    1
    17     8     6    1
    18    36    35    2
    19    82    81    1
    20    82    83    1
    21    35    34    1
    22     2     3    1
    23    84    83    2
    24    64    63    2
    25    81    74   am
    26    83    92   am
    27    45    46    1
    28    63    72   am
    29    63    62    1
    30    74    73    1
    31    74    75    2
    32    73    72    1
    33    73    76    1
    34    61    62    1
    35    94    95    2
    36    94    93    1
    37    92    93    1
    38    34    33    1
    39    34    37    1
    40     3     9    1
    41     3     4    2
    42    93    96    1
    43     9    10    2
    44    47    48    2
    45    47    46    1
    46    46    49    1
    47    38    37    1
    48    62    65    1
    49    77    76    1
    50    77    78    1
    51    37    39    1
    52    12    11    2
    53    79    78   ar
    54    65    66    1
    55    96    97    1
    56    78    80   ar
    57    10    11    1
    58    21    19   ar
    59    11    13   am
    60    49    50    1
    61    97    98    1
    62    97    99    1
    63    18    19    1
    64    18    17    1
    65    66    67   ar
    66    66    68   ar
    67    67    69   ar
    68    19    20   ar
    69    50    51    1
    70    13    14    1
    71    14    17    1
    72    14    15    1
    73    69    71   ar
    74    68    70   ar
    75    59    58    1
    76    51    52    1
    77   132   131    1
    78    22    15   am
    79    22    23    1
    80    71    70   ar
    81    15    16    2
    82    56    55    1
    83    56    57    2
    84   130   131    1
    85   130   127    1
    86   133   131    1
    87    58    55    1
    88    58    60    1
    89    52    53    1
    90    55    54    1
    91    23    24    1
    92   128   127    1
    93   128   129    2
    94   127   126    1
    95    25    24    2
    96    24    26   am
    97   145   144   ar
    98   138   135    1
    99   117   115   am
   100   112   111    2
   101    26    27    1
   102   144   146   ar
   103   144   143    1
   104   139   140    1
   105   139   136   am
   106    28    29    2
   107    28    27    1
   108   135   136    1
   109   135   134    1
   110   115   116    2
   111   115   114    1
   112   140   143    1
   113   140   141    1
   114    27    30    1
   115   111   110    1
   116   111   118   am
   117   136   137    2
   118   114   113    1
   119   113   110    1
   120   110   109    1
   121   124   123    2
   122   120   119    1
   123   120   121    2
   124   119   118    1
   125   119   122    1
   126   141   142    2
   127    30    31    1
   128    30    32    1
   129   123   122    1
   130   123   125   am
   131   107   108    1
   132   107   106    1
   133   103   102    2
   134   105   106    1
   135   105   104    1
   136   102   101    1
   137   104   101    1
   138   101   100    1
