@<TRIPOS>MOLECULE
tmp/3fz5A00.pdb
 101 104 0 0 0
SMALL
GASTEIGER

@<TRIPOS>ATOM
      1  N        -21.6210    0.0830   49.8360 N.3    12  SER12      -0.1202
      2  CA       -20.8250    1.1290   50.4820 C.3    12  SER12       0.2020
      3  C        -21.5750    2.4540   50.5290 C.2    12  SER12       0.2619
      4  O        -21.8670    3.0520   49.4870 O.2    12  SER12      -0.2717
      5  CB       -19.4850    1.2900   49.7550 C.3    12  SER12       0.2103
      6  OG       -18.8230    2.5160   50.0610 O.3    12  SER12      -0.2182
      7  N        -21.8630    2.9110   51.7440 N.am   13  GLY13      -0.1942
      8  CA       -22.5890    4.1570   51.9670 C.3    13  GLY13       0.2014
      9  C        -21.9190    5.3600   51.3460 C.2    13  GLY13       0.2638
     10  O        -22.5750    6.1810   50.7050 O.2    13  GLY13      -0.2714
     11  N        -20.6090    5.4560   51.5330 N.am   14  TYR14      -0.1973
     12  CA       -19.8340    6.5420   50.9630 C.3    14  TYR14       0.1639
     13  C        -19.7710    6.4820   49.4420 C.2    14  TYR14       0.2290
     14  O        -19.7230    7.5220   48.7900 O.2    14  TYR14      -0.2864
     15  CB       -18.4210    6.5450   51.5210 C.3    14  TYR14       0.0560
     16  CG       -18.3250    6.9420   52.9780 C.ar   14  TYR14      -0.0198
     17  CD1      -18.6660    8.2300   53.4020 C.ar   14  TYR14      -0.0009
     18  CD2      -17.8680    6.0330   53.9260 C.ar   14  TYR14      -0.0009
     19  CE1      -18.5530    8.5950   54.7330 C.ar   14  TYR14       0.0417
     20  CE2      -17.7610    6.3810   55.2530 C.ar   14  TYR14       0.0417
     21  CZ       -18.0950    7.6610   55.6530 C.ar   14  TYR14       0.1957
     22  OH       -17.9760    7.9790   56.9810 O.3    14  TYR14      -0.2866
     23  N        -13.8110   -4.5030   47.6850 N.3    40  GLY40      -0.1225
     24  CA       -13.8550   -3.1830   48.3100 C.3    40  GLY40       0.1811
     25  C        -14.5770   -3.1350   49.6370 C.2    40  GLY40       0.2280
     26  O        -14.4340   -2.1620   50.3750 O.2    40  GLY40      -0.2866
     27  N        -23.1290    8.9320   57.7220 N.3    55  TRP55      -0.1241
     28  CA       -23.9560    8.8690   56.5110 C.3    55  TRP55       0.1605
     29  C        -25.2500    9.6390   56.6810 C.2    55  TRP55       0.2264
     30  O        -25.6610   10.3890   55.7840 O.2    55  TRP55      -0.2867
     31  CB       -24.2760    7.4320   56.1290 C.3    55  TRP55       0.0550
     32  CG       -23.0710    6.6400   55.8000 C.ar   55  TRP55       0.0003
     33  CD1      -21.9230    7.0950   55.2160 C.ar   55  TRP55       0.0946
     34  CD2      -22.8880    5.2490   56.0140 C.ar   55  TRP55       0.0152
     35  NE1      -21.0300    6.0710   55.0620 N.ar   55  TRP55      -0.2442
     36  CE2      -21.5950    4.9210   55.5450 C.ar   55  TRP55       0.0810
     37  CE3      -23.6860    4.2390   56.5590 C.ar   55  TRP55       0.0012
     38  CZ2      -21.0820    3.6270   55.6050 C.ar   55  TRP55       0.0191
     39  CZ3      -23.1730    2.9480   56.6200 C.ar   55  TRP55       0.0001
     40  CH2      -21.8810    2.6570   56.1460 C.ar   55  TRP55       0.0015
     41  N         -8.0160   -0.1720   46.4980 N.3   158  PHE158     -0.1227
     42  CA        -8.5950   -0.6930   47.7330 C.3   158  PHE158      0.1736
     43  C         -9.7100    0.2560   48.1860 C.2   158  PHE158      0.2596
     44  O         -9.7360    1.4210   47.7820 O.2   158  PHE158     -0.2718
     45  CB        -7.5120   -0.8350   48.8190 C.3   158  PHE158      0.0547
     46  CG        -6.8160    0.4680   49.1550 C.ar  158  PHE158     -0.0202
     47  CD1       -7.3550    1.3360   50.1050 C.ar  158  PHE158     -0.0042
     48  CD2       -5.6380    0.8370   48.4960 C.ar  158  PHE158     -0.0042
     49  CE1       -6.7430    2.5240   50.4100 C.ar  158  PHE158     -0.0003
     50  CE2       -5.0050    2.0430   48.8020 C.ar  158  PHE158     -0.0003
     51  CZ        -5.5680    2.8860   49.7670 C.ar  158  PHE158     -0.0000
     52  N        -10.6310   -0.2540   49.0000 N.am  159  GLY159     -0.1942
     53  CA       -11.6740    0.5660   49.6140 C.3   159  GLY159      0.2014
     54  C        -12.8190    0.9620   48.7050 C.2   159  GLY159      0.2639
     55  O        -12.9860    0.4080   47.6140 O.2   159  GLY159     -0.2714
     56  N        -13.6070    1.9380   49.1620 N.am  160  SER160     -0.1949
     57  CA       -14.8400    2.3460   48.4820 C.3   160  SER160      0.1924
     58  C        -15.3210    3.7110   48.9690 C.2   160  SER160      0.2314
     59  O        -15.6820    3.8550   50.1300 O.2   160  SER160     -0.2863
     60  CB       -15.9230    1.2860   48.7200 C.3   160  SER160      0.2116
     61  OG       -17.0570    1.5210   47.9190 O.3   160  SER160     -0.2180
     62  N         -8.4450    8.2750   47.2780 N.3   171  TRP171     -0.1227
     63  CA        -9.2800    7.3470   48.0160 C.3   171  TRP171      0.1737
     64  C        -10.2880    8.0380   48.9300 C.2   171  TRP171      0.2596
     65  O         -9.9300    8.8840   49.7490 O.2   171  TRP171     -0.2718
     66  CB        -8.4260    6.3420   48.7880 C.3   171  TRP171      0.0564
     67  CG        -9.2000    5.5320   49.7830 C.ar  171  TRP171      0.0003
     68  CD1      -10.3380    4.8130   49.5540 C.ar  171  TRP171      0.0946
     69  CD2       -8.8750    5.3400   51.1630 C.ar  171  TRP171      0.0152
     70  NE1      -10.7490    4.1980   50.7100 N.ar  171  TRP171     -0.2442
     71  CE2       -9.8670    4.5000   51.7120 C.ar  171  TRP171      0.0810
     72  CE3       -7.8350    5.7940   51.9900 C.ar  171  TRP171      0.0012
     73  CZ2       -9.8600    4.1120   53.0530 C.ar  171  TRP171      0.0191
     74  CZ3       -7.8200    5.4020   53.3260 C.ar  171  TRP171      0.0001
     75  CH2       -8.8300    4.5730   53.8440 C.ar  171  TRP171      0.0015
     76  N        -11.5550    7.6660   48.7600 N.am  172  GLY172     -0.1942
     77  CA       -12.6180    8.0910   49.6570 C.3   172  GLY172      0.2014
     78  C        -13.5310    9.1640   49.1120 C.2   172  GLY172      0.2639
     79  O        -13.1460    9.9730   48.2570 O.2   172  GLY172     -0.2714
     80  N        -14.7520    9.1720   49.6360 N.am  173  TRP173     -0.1959
     81  CA       -15.7420   10.1670   49.2560 C.3   173  TRP173      0.1771
     82  C        -15.2080   11.5700   49.5150 C.2   173  TRP173      0.2619
     83  O        -15.4680   12.4910   48.7450 O.2   173  TRP173     -0.2715
     84  CB       -17.0660    9.9320   50.0040 C.3   173  TRP173      0.0590
     85  CG       -18.0500   11.0270   49.7800 C.ar  173  TRP173      0.0006
     86  CD1      -18.7680   11.2720   48.6440 C.ar  173  TRP173      0.0946
     87  CD2      -18.3880   12.0550   50.6980 C.ar  173  TRP173      0.0152
     88  NE1      -19.5460   12.3840   48.8090 N.ar  173  TRP173     -0.2442
     89  CE2      -19.3340   12.8840   50.0650 C.ar  173  TRP173      0.0810
     90  CE3      -17.9910   12.3530   52.0050 C.ar  173  TRP173      0.0012
     91  CZ2      -19.8940   13.9920   50.6940 C.ar  173  TRP173      0.0191
     92  CZ3      -18.5460   13.4620   52.6350 C.ar  173  TRP173      0.0001
     93  CH2      -19.4870   14.2670   51.9770 C.ar  173  TRP173      0.0015
     94  N        -14.4440   11.7060   50.5970 N.am  174  ASP174     -0.1971
     95  CA       -13.8090   12.9640   50.9740 C.3   174  ASP174      0.1709
     96  C        -12.8430   13.5520   49.9420 C.2   174  ASP174      0.2293
     97  O        -12.6890   14.7650   49.8910 O.2   174  ASP174     -0.2864
     98  CB       -13.0840   12.7900   52.3070 C.3   174  ASP174      0.1436
     99  CG       -14.0260   12.8530   53.4960 C.2   174  ASP174      0.3671
    100  OD1      -15.2560   12.9700   53.2840 O.co2 174  ASP174     -0.2456
    101  OD2      -13.5390   12.7890   54.6500 O.co2 174  ASP174     -0.2456
@<TRIPOS>BOND
     1    41    42    1
     2    62    63    1
     3    55    54    2
     4    23    24    1
     5    42    43    1
     6    42    45    1
     7    44    43    2
     8    61    60    1
     9    63    66    1
    10    63    64    1
    11    43    52   am
    12    79    78    2
    13    24    25    1
    14    57    60    1
    15    57    58    1
    16    57    56    1
    17    48    50   ar
    18    48    46   ar
    19    86    88   ar
    20    86    85   ar
    21    54    56   am
    22    54    53    1
    23    83    82    2
    24    76    64   am
    25    76    77    1
    26    66    67    1
    27    14    13    2
    28    50    51   ar
    29    88    89   ar
    30    45    46    1
    31    64    65    2
    32    58    59    2
    33    52    53    1
    34    78    80   am
    35    78    77    1
    36    46    47   ar
    37    81    82    1
    38    81    80    1
    39    81    84    1
    40    13    12    1
    41     4     3    2
    42    82    94   am
    43    68    67   ar
    44    68    70   ar
    45    25    26    2
    46     5     6    1
    47     5     2    1
    48    51    49   ar
    49    85    84    1
    50    85    87   ar
    51    67    69   ar
    52     1     2    1
    53    97    96    2
    54    96    95    1
    55    89    91   ar
    56    89    87   ar
    57    47    49   ar
    58     2     3    1
    59     3     7   am
    60    94    95    1
    61    91    93   ar
    62    87    90   ar
    63    10     9    2
    64    70    71   ar
    65    12    15    1
    66    12    11    1
    67    95    98    1
    68    69    71   ar
    69    69    72   ar
    70     9    11   am
    71     9     8    1
    72    15    16    1
    73    71    73   ar
    74     7     8    1
    75    93    92   ar
    76    72    74   ar
    77    90    92   ar
    78    98    99    1
    79    16    17   ar
    80    16    18   ar
    81    73    75   ar
    82   100    99   ar
    83    74    75   ar
    84    17    19   ar
    85    99   101   ar
    86    18    20   ar
    87    19    21   ar
    88    35    33   ar
    89    35    36   ar
    90    33    32   ar
    91    20    21   ar
    92    36    38   ar
    93    36    34   ar
    94    38    40   ar
    95    21    22    1
    96    30    29    2
    97    32    34   ar
    98    32    31    1
    99    34    37   ar
   100    31    28    1
   101    40    39   ar
   102    28    29    1
   103    28    27    1
   104    37    39   ar
