@<TRIPOS>MOLECULE
tmp/3fz6E00.pdb
 127 117 0 0 0
SMALL
GASTEIGER

@<TRIPOS>ATOM
      1  N         -0.6450   28.9270   -8.4970 N.3    61  PHE61      -0.1241
      2  CA         0.3360   28.6090   -9.5360 C.3    61  PHE61       0.1605
      3  C          1.0770   27.2850   -9.2630 C.2    61  PHE61       0.2264
      4  O          1.5360   26.6540  -10.2020 O.2    61  PHE61      -0.2867
      5  CB         1.3580   29.7440   -9.5830 C.3    61  PHE61       0.0534
      6  CG         0.7940   31.0640  -10.0450 C.ar   61  PHE61      -0.0203
      7  CD1       -0.2190   31.7090   -9.3310 C.ar   61  PHE61      -0.0042
      8  CD2        1.2990   31.6860  -11.1940 C.ar   61  PHE61      -0.0042
      9  CE1       -0.7470   32.9280   -9.7590 C.ar   61  PHE61      -0.0003
     10  CE2        0.7820   32.9200  -11.6360 C.ar   61  PHE61      -0.0003
     11  CZ        -0.2410   33.5410  -10.9120 C.ar   61  PHE61      -0.0000
     12  N         12.2170   28.9940   -3.1630 N.3   123  GLY123     -0.1210
     13  CA        11.2040   29.4440   -4.1230 C.3   123  GLY123      0.1956
     14  C         11.6180   30.7650   -4.7770 C.2   123  GLY123      0.2613
     15  O         12.7760   31.2400   -4.6160 O.2   123  GLY123     -0.2717
     16  N         10.7050   31.4070   -5.5000 N.am  124  SER124     -0.1938
     17  CA        11.1240   32.6460   -6.1930 C.3   124  SER124      0.2055
     18  C         11.4160   33.8010   -5.2620 C.2   124  SER124      0.2643
     19  O         12.2060   34.6930   -5.5780 O.2   124  SER124     -0.2714
     20  CB        10.1810   33.0680   -7.3170 C.3   124  SER124      0.2130
     21  OG        10.4620   32.3010   -8.4820 O.3   124  SER124     -0.2179
     22  N         10.8020   33.7680   -4.0930 N.am  125  SER125     -0.1949
     23  CA        11.0510   34.8180   -3.1170 C.3   125  SER125      0.1924
     24  C         12.5450   34.8800   -2.7360 C.2   125  SER125      0.2314
     25  O         13.1580   35.9020   -2.9260 O.2   125  SER125     -0.2863
     26  CB        10.1180   34.6920   -1.9230 C.3   125  SER125      0.2116
     27  OG         9.0710   35.6330   -2.0180 O.3   125  SER125     -0.2180
     28  N         14.6670   35.9320   -5.8940 N.3   128  CYS128     -0.1235
     29  CA        14.6430   37.3740   -6.2060 C.3   128  CYS128      0.1677
     30  C         15.5210   38.1770   -5.2910 C.2   128  CYS128      0.2270
     31  O         16.3000   38.9870   -5.7730 O.2   128  CYS128     -0.2867
     32  CB        13.2300   37.9480   -6.1880 C.3   128  CYS128      0.0956
     33  SG        12.2590   37.3280   -7.6390 S.3   128  CYS128     -0.0801
     34  N          5.4700   41.0470   -8.2450 N.3   161  GLN161     -0.1245
     35  CA         5.0100   40.2320   -7.1230 C.3   161  GLN161      0.1566
     36  C          5.4960   40.8710   -5.8090 C.2   161  GLN161      0.2260
     37  O          6.3870   41.7220   -5.7830 O.2   161  GLN161     -0.2867
     38  CB         5.4840   38.7670   -7.2520 C.3   161  GLN161      0.0367
     39  CG         4.5620   37.7740   -6.5880 C.3   161  GLN161      0.0905
     40  CD         4.9400   37.3550   -5.1360 C.2   161  GLN161      0.2608
     41  OE1        6.0650   37.5910   -4.6360 O.2   161  GLN161     -0.2717
     42  NE2        3.9850   36.6940   -4.4670 N.am  161  GLN161     -0.0878
     43  N          7.3410   39.8570   -3.5070 N.3   163  CYS163     -0.1235
     44  CA         8.7070   39.6330   -2.9890 C.3   163  CYS163      0.1677
     45  C          9.5870   40.8340   -3.2520 C.2   163  CYS163      0.2270
     46  O         10.4820   41.1340   -2.4750 O.2   163  CYS163     -0.2867
     47  CB         9.3380   38.3750   -3.5450 C.3   163  CYS163      0.0956
     48  SG         9.5570   38.3890   -5.2770 S.3   163  CYS163     -0.0801
     49  N          8.8630   41.4510  -15.4440 N.3   206  THR206     -0.1218
     50  CA         8.2400   40.2430  -14.9250 C.3   206  THR206      0.1862
     51  C          7.7890   39.3630  -16.0930 C.2   206  THR206      0.2287
     52  O          6.8690   39.6830  -16.8210 O.2   206  THR206     -0.2866
     53  CB         7.0840   40.5610  -13.9870 C.3   206  THR206      0.1770
     54  OG1        7.6030   41.2670  -12.8490 O.3   206  THR206     -0.2211
     55  CG2        6.4020   39.2690  -13.5250 C.3   206  THR206      0.0375
     56  N          5.9000   37.0230  -16.9710 N.3   208  GLY208     -0.1225
     57  CA         4.7530   36.2640  -16.5200 C.3   208  GLY208      0.1811
     58  C          4.2040   36.9650  -15.3010 C.2   208  GLY208      0.2280
     59  O          4.5340   36.5950  -14.1670 O.2   208  GLY208     -0.2866
     60  N          2.0090   38.1420  -12.3000 N.3   210  THR210     -0.1218
     61  CA         1.1530   37.4270  -11.3820 C.3   210  THR210      0.1862
     62  C         -0.2870   37.8510  -11.4890 C.2   210  THR210      0.2287
     63  O         -1.1510   37.0080  -11.5090 O.2   210  THR210     -0.2866
     64  CB         1.5830   37.6000   -9.9380 C.3   210  THR210      0.1770
     65  OG1        3.0080   37.4440   -9.8430 O.3   210  THR210     -0.2211
     66  CG2        0.8620   36.5680   -9.0500 C.3   210  THR210      0.0375
     67  N         12.5380   38.4110  -13.5700 N.3   241  ASP241     -0.1239
     68  CA        11.7020   37.6000  -12.6830 C.3   241  ASP241      0.1674
     69  C         10.8490   36.7290  -13.5480 C.2   241  ASP241      0.2266
     70  O          9.7980   37.1670  -13.9480 O.2   241  ASP241     -0.2867
     71  CB        10.7770   38.4570  -11.8600 C.3   241  ASP241      0.1410
     72  CG         9.9300   37.6480  -10.8920 C.2   241  ASP241      0.3668
     73  OD1        9.8690   36.3890  -10.9900 O.co2 241  ASP241     -0.2456
     74  OD2        9.3440   38.2770   -9.9920 O.co2 241  ASP241     -0.2456
     75  N          9.4660   33.7670  -12.7600 N.3   243  ALA243     -0.1231
     76  CA         8.8650   32.8320  -11.7780 C.3   243  ALA243      0.1694
     77  C          8.1020   31.7720  -12.4590 C.2   243  ALA243      0.2592
     78  O          8.2000   30.6140  -12.1240 O.2   243  ALA243     -0.2718
     79  CB         7.9310   33.5610  -10.8390 C.3   243  ALA243      0.0304
     80  N          7.3000   32.1650  -13.4200 N.am  244  SER244     -0.1952
     81  CA         6.4920   31.1810  -14.0420 C.3   244  SER244      0.1924
     82  C          6.9600   31.0100  -15.4640 C.2   244  SER244      0.2314
     83  O          7.1610   29.8800  -15.9140 O.2   244  SER244     -0.2863
     84  CB         5.0040   31.5020  -13.8760 C.3   244  SER244      0.2116
     85  OG         4.6380   32.5960  -14.6640 O.3   244  SER244     -0.2180
     86  N         10.5090   29.6960  -10.5100 N.3   271  SER271     -0.1217
     87  CA        10.0040   28.8110   -9.5040 C.3   271  SER271      0.1889
     88  C          9.9690   27.4130  -10.0500 C.2   271  SER271      0.2288
     89  O          9.2150   27.1720  -10.9700 O.2   271  SER271     -0.2866
     90  CB         8.5660   29.1860   -9.1960 C.3   271  SER271      0.2089
     91  OG         8.4870   30.3630   -8.4190 O.3   271  SER271     -0.2183
     92  N          8.5990   24.9740   -8.4860 N.3   273  HIS273     -0.1226
     93  CA         7.3710   24.4110   -7.9900 C.3   273  HIS273      0.1752
     94  C          6.1540   25.0460   -8.6110 C.2   273  HIS273      0.2595
     95  O          5.0290   24.7890   -8.1580 O.2   273  HIS273     -0.2718
     96  CB         7.2930   24.4470   -6.4640 C.3   273  HIS273      0.0759
     97  CG         7.4470   25.8130   -5.8610 C.ar  273  HIS273      0.0818
     98  ND1        8.3090   26.0680   -4.8050 N.ar  273  HIS273     -0.2268
     99  CD2        6.8450   26.9930   -6.1480 C.ar  273  HIS273      0.1154
    100  CE1        8.2230   27.3430   -4.4670 C.ar  273  HIS273      0.1986
    101  NE2        7.3500   27.9290   -5.2720 N.ar  273  HIS273     -0.2212
    102  N          6.3590   25.8530   -9.6490 N.am  274  LYS274     -0.1980
    103  CA         5.2560   26.2420  -10.5340 C.3   274  LYS274      0.1596
    104  C          5.4140   25.4410  -11.8110 C.2   274  LYS274      0.2287
    105  O          5.3400   24.2210  -11.7420 O.2   274  LYS274     -0.2864
    106  CB         5.2310   27.7410  -10.8190 C.3   274  LYS274      0.0298
    107  CG         4.9730   28.6070   -9.6070 C.3   274  LYS274      0.0038
    108  CD         5.0970   30.0550   -9.9850 C.3   274  LYS274      0.0206
    109  CE         4.7040   30.9320   -8.8470 C.3   274  LYS274      0.1093
    110  NZ         5.8250   30.9520   -7.9210 N.3   274  LYS274     -0.1314
    111  N         -1.8560   36.0250   -5.0410 N.3   463  HIS463     -0.1226
    112  CA        -0.3820   36.2050   -5.1890 C.3   463  HIS463      0.1752
    113  C          0.4240   34.9860   -5.6380 C.2   463  HIS463      0.2596
    114  O          1.6320   35.1400   -5.9290 O.2   463  HIS463     -0.2718
    115  CB         0.2980   36.7840   -3.9390 C.3   463  HIS463      0.0759
    116  CG        -0.0310   38.2170   -3.6430 C.ar  463  HIS463      0.0818
    117  ND1        0.4030   39.2630   -4.4260 N.ar  463  HIS463     -0.2268
    118  CD2       -0.7040   38.7780   -2.6060 C.ar  463  HIS463      0.1154
    119  CE1       -0.0130   40.4030   -3.8960 C.ar  463  HIS463      0.1986
    120  NE2       -0.6870   40.1360   -2.7910 N.ar  463  HIS463     -0.2212
    121  N         -0.2070   33.8030   -5.6810 N.am  464  THR464     -0.1953
    122  CA         0.4900   32.5580   -6.0780 C.3   464  THR464      0.1897
    123  C         -0.3180   31.3150   -5.8190 C.2   464  THR464      0.2313
    124  O         -1.4170   31.4210   -5.2740 O.2   464  THR464     -0.2863
    125  CB         1.7930   32.3120   -5.3080 C.3   464  THR464      0.1794
    126  OG1        2.6730   31.5130   -6.1020 O.3   464  THR464     -0.2208
    127  CG2        1.5040   31.5870   -3.9860 C.3   464  THR464      0.0378
@<TRIPOS>BOND
     1    56    57    1
     2    52    51    2
     3    57    58    1
     4    51    50    1
     5    83    82    2
     6    82    81    1
     7    49    50    1
     8    58    59    2
     9    50    53    1
    10    85    84    1
    11    81    84    1
    12    81    80    1
    13    53    55    1
    14    53    54    1
    15    70    69    2
    16    67    68    1
    17    69    68    1
    18    80    77   am
    19    75    76    1
    20    68    71    1
    21    77    78    2
    22    77    76    1
    23    60    61    1
    24    71    72    1
    25   104   105    2
    26   104   103    1
    27    76    79    1
    28    10     8   ar
    29    10    11   ar
    30    63    62    2
    31    62    61    1
    32    61    64    1
    33     8     6   ar
    34    73    72   ar
    35    89    88    2
    36    11     9   ar
    37    72    74   ar
    38   106   103    1
    39   106   107    1
    40   103   102    1
    41    86    87    1
    42     4     3    2
    43    88    87    1
    44     6     5    1
    45     6     7   ar
    46   108   107    1
    47   108   109    1
    48    64    65    1
    49    64    66    1
    50     9     7   ar
    51   102    94   am
    52     5     2    1
    53     2     3    1
    54     2     1    1
    55    87    90    1
    56    90    91    1
    57   109   110    1
    58    94    95    2
    59    94    93    1
    60    92    93    1
    61    21    20    1
    62    34    35    1
    63    93    96    1
    64    33    32    1
    65    20    17    1
    66    38    35    1
    67    38    39    1
    68    35    36    1
    69    39    40    1
    70    96    97    1
    71    29    32    1
    72    29    28    1
    73    29    30    1
    74    17    16    1
    75    17    18    1
    76    99    97   ar
    77    99   101   ar
    78   126   125    1
    79   122   123    1
    80   122   121    1
    81   122   125    1
    82   114   113    2
    83    97    98   ar
    84   123   124    2
    85    36    37    2
    86    31    30    2
    87   121   113   am
    88   113   112    1
    89    19    18    2
    90    16    14   am
    91   125   127    1
    92    48    47    1
    93   101   100   ar
    94    18    22   am
    95   112   111    1
    96   112   115    1
    97    40    41    2
    98    40    42   am
    99    98   100   ar
   100    14    15    2
   101    14    13    1
   102   117   119   ar
   103   117   116   ar
   104    13    12    1
   105    22    23    1
   106   115   116    1
   107   119   120   ar
   108   116   118   ar
   109    47    44    1
   110    43    44    1
   111    45    44    1
   112    45    46    2
   113    23    24    1
   114    23    26    1
   115    25    24    2
   116   120   118   ar
   117    27    26    1
