@<TRIPOS>MOLECULE
tmp/3fzcA00.pdb
 142 137 0 0 0
SMALL
GASTEIGER

@<TRIPOS>ATOM
      1  N         99.0420   26.2670   25.2410 N.3    49  ALA49      -0.1231
      2  CA        99.9840   27.1300   25.9560 C.3    49  ALA49       0.1694
      3  C        100.3050   26.4670   27.3100 C.2    49  ALA49       0.2592
      4  O        100.4350   25.2470   27.3850 O.2    49  ALA49      -0.2718
      5  CB        99.3940   28.5550   26.1460 C.3    49  ALA49       0.0304
      6  N        100.4000   27.2440   28.3770 N.am   50  SER50      -0.1952
      7  CA       100.7490   26.6770   29.6810 C.3    50  SER50       0.1924
      8  C         99.8160   25.6200   30.2620 C.2    50  SER50       0.2314
      9  O        100.1980   24.9190   31.2150 O.2    50  SER50      -0.2863
     10  CB       100.9420   27.7980   30.7070 C.3    50  SER50       0.2116
     11  OG       101.9880   28.6800   30.3160 O.3    50  SER50      -0.2180
     12  N        112.9560   35.3900   30.7510 N.3    79  THR79      -0.1203
     13  CA       111.9900   36.4240   30.4130 C.3    79  THR79       0.1994
     14  C        111.5930   37.2100   31.6650 C.2    79  THR79       0.2617
     15  O        111.4020   38.4240   31.6040 O.2    79  THR79      -0.2717
     16  CB       110.7240   35.7970   29.7890 C.3    79  THR79       0.1784
     17  OG1      111.1020   35.0070   28.6550 O.3    79  THR79      -0.2211
     18  CG2      109.7370   36.8830   29.3600 C.3    79  THR79       0.0376
     19  N        111.4900   36.5170   32.7960 N.am   80  TYR80      -0.1975
     20  CA       111.1040   37.1490   34.0530 C.3    80  TYR80       0.1639
     21  C        112.0510   36.7910   35.1950 C.2    80  TYR80       0.2290
     22  O        112.4730   35.6450   35.3280 O.2    80  TYR80      -0.2864
     23  CB       109.7000   36.7030   34.4540 C.3    80  TYR80       0.0560
     24  CG       108.6430   36.9230   33.4080 C.ar   80  TYR80      -0.0198
     25  CD1      108.1100   38.1980   33.1780 C.ar   80  TYR80      -0.0009
     26  CD2      108.1650   35.8570   32.6440 C.ar   80  TYR80      -0.0009
     27  CE1      107.1240   38.4020   32.2140 C.ar   80  TYR80       0.0417
     28  CE2      107.1790   36.0470   31.6710 C.ar   80  TYR80       0.0417
     29  CZ       106.6640   37.3200   31.4620 C.ar   80  TYR80       0.1957
     30  OH       105.7080   37.5110   30.4940 O.3    80  TYR80      -0.2866
     31  N        111.4760   36.3000   38.1850 N.3    82  MET82      -0.1230
     32  CA       110.8710   35.2630   39.0070 C.3    82  MET82       0.1702
     33  C        111.2400   33.8530   38.5430 C.2    82  MET82       0.2592
     34  O        111.1880   32.9210   39.3250 O.2    82  MET82      -0.2718
     35  CB       109.3370   35.4310   39.0480 C.3    82  MET82       0.0401
     36  CG       108.6100   35.1740   37.7160 C.3    82  MET82       0.0596
     37  SD       106.7900   35.2180   37.8530 S.3    82  MET82      -0.1393
     38  CE       106.2820   35.6050   36.1040 C.3    82  MET82       0.0692
     39  N        111.6110   33.6970   37.2760 N.am   83  TRP83      -0.1976
     40  CA       112.0030   32.3920   36.7620 C.3    83  TRP83       0.1640
     41  C        113.4970   32.1280   36.9490 C.2    83  TRP83       0.2290
     42  O        113.9690   31.0210   36.7090 O.2    83  TRP83      -0.2864
     43  CB       111.6860   32.2690   35.2620 C.3    83  TRP83       0.0576
     44  CG       110.2240   32.2650   34.9270 C.ar   83  TRP83       0.0006
     45  CD1      109.1850   32.1660   35.8010 C.ar   83  TRP83       0.0946
     46  CD2      109.6460   32.3530   33.6180 C.ar   83  TRP83       0.0152
     47  NE1      107.9900   32.1890   35.1210 N.ar   83  TRP83      -0.2442
     48  CE2      108.2450   32.3040   33.7780 C.ar   83  TRP83       0.0810
     49  CE3      110.1790   32.4720   32.3240 C.ar   83  TRP83       0.0012
     50  CZ2      107.3630   32.3680   32.6960 C.ar   83  TRP83       0.0191
     51  CZ3      109.2960   32.5360   31.2350 C.ar   83  TRP83       0.0001
     52  CH2      107.9060   32.4850   31.4320 C.ar   83  TRP83       0.0015
     53  N        103.1530   26.7960   39.5150 N.3    94  ALA94      -0.1231
     54  CA       102.5930   28.0240   40.0860 C.3    94  ALA94       0.1694
     55  C        103.1500   29.3010   39.4570 C.2    94  ALA94       0.2592
     56  O        102.4540   30.3230   39.3960 O.2    94  ALA94      -0.2718
     57  CB       102.8310   28.0610   41.6150 C.3    94  ALA94       0.0304
     58  N        104.3990   29.2490   38.9920 N.am   95  LEU95      -0.1966
     59  CA       105.0260   30.4120   38.3860 C.3    95  LEU95       0.1728
     60  C        104.9740   30.3740   36.8710 C.2    95  LEU95       0.2616
     61  O        105.4790   31.2840   36.2190 O.2    95  LEU95      -0.2715
     62  CB       106.4820   30.5080   38.8240 C.3    95  LEU95       0.0311
     63  CG       106.6980   30.9780   40.2620 C.3    95  LEU95       0.0022
     64  CD1      108.1140   30.6660   40.7070 C.3    95  LEU95       0.0001
     65  CD2      106.4290   32.4730   40.3440 C.3    95  LEU95       0.0001
     66  N        104.3670   29.3300   36.3120 N.am   96  SER96      -0.1950
     67  CA       104.3010   29.1810   34.8620 C.3    96  SER96       0.1924
     68  C        105.7120   29.2200   34.2780 C.2    96  SER96       0.2314
     69  O        105.9290   29.7550   33.1880 O.2    96  SER96      -0.2863
     70  CB       103.4860   30.3060   34.2330 C.3    96  SER96       0.2116
     71  OG       102.1990   30.3760   34.7980 O.3    96  SER96      -0.2180
     72  N        108.0370   28.2430   32.1900 N.3    98  VAL98      -0.1245
     73  CA       108.2180   27.4970   30.9440 C.3    98  VAL98       0.1561
     74  C        109.5770   26.8270   30.7830 C.2    98  VAL98       0.2260
     75  O        109.6710   25.7030   30.2620 O.2    98  VAL98      -0.2867
     76  CB       108.0010   28.4290   29.7470 C.3    98  VAL98       0.0252
     77  CG1      107.9230   27.6360   28.4360 C.3    98  VAL98       0.0019
     78  CG2      106.7590   29.2120   29.9840 C.3    98  VAL98       0.0019
     79  N        103.2450   25.6330   22.6040 N.3   136  LEU136     -0.1245
     80  CA       103.2920   27.0850   22.6000 C.3   136  LEU136      0.1561
     81  C        102.9570   27.7010   21.2520 C.2   136  LEU136      0.2260
     82  O        102.2880   28.7290   21.1800 O.2   136  LEU136     -0.2867
     83  CB       104.6870   27.5640   23.0460 C.3   136  LEU136      0.0270
     84  CG       105.1520   27.1130   24.4390 C.3   136  LEU136      0.0019
     85  CD1      106.6140   27.4830   24.6780 C.3   136  LEU136      0.0001
     86  CD2      104.2780   27.7620   25.4760 C.3   136  LEU136      0.0001
     87  N         95.0250   25.9600   36.0570 N.3   186  LYS186     -0.1231
     88  CA        96.2750   26.3530   35.4370 C.3   186  LYS186      0.1693
     89  C         95.9460   27.4150   34.3940 C.2   186  LYS186      0.2593
     90  O         95.0930   27.1950   33.5200 O.2   186  LYS186     -0.2718
     91  CB        96.9450   25.1750   34.7330 C.3   186  LYS186      0.0285
     92  CG        98.2480   25.5740   34.0590 C.3   186  LYS186      0.0035
     93  CD        99.3230   25.8970   35.0760 C.3   186  LYS186      0.0206
     94  CE       100.4380   26.7360   34.4730 C.3   186  LYS186      0.1093
     95  NZ       100.1060   28.1920   34.5340 N.3   186  LYS186     -0.1314
     96  N         96.6060   28.5650   34.4860 N.am  187  SER187     -0.1938
     97  CA        96.3700   29.6280   33.5220 C.3   187  SER187      0.2055
     98  C         97.2260   29.3350   32.3020 C.2   187  SER187      0.2644
     99  O         98.0970   28.4470   32.3220 O.2   187  SER187     -0.2714
    100  CB        96.7520   30.9910   34.1090 C.3   187  SER187      0.2130
    101  OG        98.1400   31.0280   34.4060 O.3   187  SER187     -0.2179
    102  N         96.9780   30.0810   31.2370 N.am  188  GLY188     -0.1939
    103  CA        97.7320   29.8840   30.0100 C.3   188  GLY188      0.2014
    104  C         97.6460   31.1530   29.1820 C.2   188  GLY188      0.2638
    105  O         96.6210   31.8310   29.1900 O.2   188  GLY188     -0.2714
    106  N         98.7340   31.4760   28.4840 N.am  189  TRP189     -0.1973
    107  CA        98.8000   32.6600   27.6400 C.3   189  TRP189      0.1640
    108  C         99.6950   32.3270   26.4570 C.2   189  TRP189      0.2290
    109  O        100.9180   32.2540   26.6020 O.2   189  TRP189     -0.2864
    110  CB        99.4040   33.8310   28.4190 C.3   189  TRP189      0.0576
    111  CG        99.2550   35.1750   27.7400 C.ar  189  TRP189      0.0006
    112  CD1       99.1700   35.4190   26.3880 C.ar  189  TRP189      0.0946
    113  CD2       99.2170   36.4610   28.3800 C.ar  189  TRP189      0.0152
    114  NE1       99.0830   36.7750   26.1570 N.ar  189  TRP189     -0.2442
    115  CE2       99.1110   37.4360   27.3590 C.ar  189  TRP189      0.0810
    116  CE3       99.2650   36.8870   29.7190 C.ar  189  TRP189      0.0012
    117  CZ2       99.0530   38.8110   27.6380 C.ar  189  TRP189      0.0191
    118  CZ3       99.2110   38.2560   29.9960 C.ar  189  TRP189      0.0001
    119  CH2       99.1060   39.1990   28.9570 C.ar  189  TRP189      0.0015
    120  N        101.4770   33.5850   23.7750 N.3   191  MET191     -0.1245
    121  CA       101.9730   34.8290   23.1780 C.3   191  MET191      0.1570
    122  C        102.6390   34.6600   21.8180 C.2   191  MET191      0.2261
    123  O        102.8320   35.6380   21.1040 O.2   191  MET191     -0.2867
    124  CB       102.9590   35.5020   24.1280 C.3   191  MET191      0.0387
    125  CG       102.3340   35.9340   25.4320 C.3   191  MET191      0.0595
    126  SD       103.5040   36.7060   26.5580 S.3   191  MET191     -0.1393
    127  CE       102.6060   36.6140   28.1210 C.3   191  MET191      0.0692
    128  N         96.9810   39.5450   32.8030 N.3   226  GLY226     -0.1225
    129  CA        96.7500   38.1190   32.9160 C.3   226  GLY226      0.1811
    130  C         95.7170   37.8340   33.9870 C.2   226  GLY226      0.2280
    131  O         94.9620   36.8620   33.9080 O.2   226  GLY226     -0.2866
    132  N         91.9160   36.9960   33.3000 N.3   229  ARG229     -0.1245
    133  CA        91.4010   35.6470   33.1030 C.3   229  ARG229      0.1563
    134  C         90.8410   35.1390   34.4300 C.2   229  ARG229      0.2260
    135  O         89.8270   34.4380   34.4690 O.2   229  ARG229     -0.2867
    136  CB        92.5110   34.6990   32.6430 C.3   229  ARG229      0.0307
    137  CG        93.0660   35.0090   31.2740 C.3   229  ARG229      0.0489
    138  CD        94.3760   34.2840   31.0520 C.3   229  ARG229      0.2205
    139  NE        95.3500   34.5640   32.1080 N.pl3 229  ARG229     -0.0865
    140  CZ        96.6150   34.1660   32.0650 C.cat 229  ARG229      0.5346
    141  NH1       97.4530   34.4480   33.0610 N.pl3 229  ARG229      0.1354
    142  NH2       97.0470   33.4930   31.0080 N.pl3 229  ARG229      0.1354
@<TRIPOS>BOND
     1   123   122    2
     2    82    81    2
     3    81    80    1
     4   122   121    1
     5    80    79    1
     6    80    83    1
     7    83    84    1
     8   121   120    1
     9   121   124    1
    10   124   125    1
    11    84    85    1
    12    84    86    1
    13     1     2    1
    14   125   126    1
    15     2     5    1
    16     2     3    1
    17   114   112   ar
    18   114   115   ar
    19   112   111   ar
    20   108   109    2
    21   108   107    1
    22   126   127    1
    23     3     4    2
    24     3     6   am
    25   115   117   ar
    26   115   113   ar
    27   117   119   ar
    28   107   110    1
    29   107   106    1
    30   111   113   ar
    31   111   110    1
    32     6     7    1
    33   113   116   ar
    34    77    76    1
    35   106   104   am
    36    17    16    1
    37   119   118   ar
    38   104   105    2
    39   104   103    1
    40    18    16    1
    41     7     8    1
    42     7    10    1
    43   116   118   ar
    44    76    78    1
    45    76    73    1
    46    16    13    1
    47   103   102    1
    48    75    74    2
    49     8     9    2
    50    11    10    1
    51    13    12    1
    52    13    14    1
    53    30    29    1
    54    74    73    1
    55    73    72    1
    56   142   140    1
    57   138   137    1
    58   138   139    1
    59    51    52   ar
    60    51    49   ar
    61   102    98   am
    62   137   136    1
    63    52    50   ar
    64    29    28   ar
    65    29    27   ar
    66    15    14    2
    67    14    19   am
    68    28    26   ar
    69   140   139    2
    70   140   141    1
    71    27    25   ar
    72    98    99    2
    73    98    97    1
    74    49    46   ar
    75   136   133    1
    76    26    24   ar
    77    50    48   ar
    78    19    20    1
    79   128   129    1
    80   129   130    1
    81   133   132    1
    82   133   134    1
    83    25    24   ar
    84    69    68    2
    85    24    23    1
    86    90    89    2
    87    97   100    1
    88    97    96    1
    89    46    48   ar
    90    46    44   ar
    91    48    47   ar
    92   131   130    2
    93    20    23    1
    94    20    21    1
    95    92    91    1
    96    92    93    1
    97   100   101    1
    98    70    71    1
    99    70    67    1
   100    68    67    1
   101    89    96   am
   102    89    88    1
   103   134   135    2
   104    94    95    1
   105    94    93    1
   106    91    88    1
   107    67    66    1
   108    44    43    1
   109    44    45   ar
   110    47    45   ar
   111    21    22    2
   112    43    40    1
   113    88    87    1
   114    38    37    1
   115    61    60    2
   116    66    60   am
   117    42    41    2
   118    40    41    1
   119    40    39    1
   120    60    59    1
   121    39    33   am
   122    36    37    1
   123    36    35    1
   124    31    32    1
   125    59    62    1
   126    59    58    1
   127    33    32    1
   128    33    34    2
   129    62    63    1
   130    58    55   am
   131    32    35    1
   132    56    55    2
   133    55    54    1
   134    53    54    1
   135    54    57    1
   136    63    65    1
   137    63    64    1
