@<TRIPOS>MOLECULE
tmp/3fzcA01.pdb
 81 74 0 0 0
SMALL
GASTEIGER

@<TRIPOS>ATOM
      1  N         81.1340   22.3750   33.5960 N.3    27  LYS27      -0.1245
      2  CA        80.6280   21.0200   33.5130 C.3    27  LYS27       0.1561
      3  C         80.1210   20.5690   34.8840 C.2    27  LYS27       0.2260
      4  O         80.7990   20.7470   35.8970 O.2    27  LYS27      -0.2867
      5  CB        81.7170   20.0710   33.0100 C.3    27  LYS27       0.0271
      6  CG        81.1960   18.6800   32.6900 C.3    27  LYS27       0.0035
      7  CD        82.2980   17.7860   32.1720 C.3    27  LYS27       0.0206
      8  CE        81.7390   16.4780   31.6300 C.3    27  LYS27       0.1093
      9  NZ        82.8180   15.6640   31.0030 N.3    27  LYS27      -0.1314
     10  N         78.5000   17.1300   36.3990 N.3    29  GLY29      -0.1210
     11  CA        78.2090   15.7430   36.1060 C.3    29  GLY29       0.1956
     12  C         78.6570   15.5580   34.6680 C.2    29  GLY29       0.2611
     13  O         79.8200   15.8020   34.3380 O.2    29  GLY29      -0.2717
     14  N         77.7300   15.1660   33.8030 N.am   30  LYS30      -0.1979
     15  CA        78.0200   14.9720   32.3820 C.3    30  LYS30       0.1596
     16  C         77.5530   16.1450   31.5010 C.2    30  LYS30       0.2287
     17  O         77.7900   16.1300   30.2920 O.2    30  LYS30      -0.2864
     18  CB        77.3370   13.6950   31.8780 C.3    30  LYS30       0.0298
     19  CG        77.9670   12.3900   32.3520 C.3    30  LYS30       0.0038
     20  CD        77.1910   11.1820   31.8120 C.3    30  LYS30       0.0206
     21  CE        77.9990    9.8820   31.8990 C.3    30  LYS30       0.1093
     22  NZ        77.2550    8.7150   31.3040 N.3    30  LYS30      -0.1314
     23  N         77.4640   19.9500   29.9050 N.3    32  LEU32      -0.1245
     24  CA        78.3070   21.1040   29.5940 C.3    32  LEU32       0.1561
     25  C         77.4510   22.3620   29.4400 C.2    32  LEU32       0.2260
     26  O         76.3840   22.3190   28.8170 O.2    32  LEU32      -0.2867
     27  CB        79.0660   20.8660   28.2780 C.3    32  LEU32       0.0270
     28  CG        80.0790   19.7260   28.2270 C.3    32  LEU32       0.0019
     29  CD1       80.4000   19.3750   26.7780 C.3    32  LEU32       0.0001
     30  CD2       81.3310   20.1460   28.9690 C.3    32  LEU32       0.0001
     31  N         86.1330   22.8160   24.9350 N.3   145  VAL145     -0.1231
     32  CA        85.3320   21.6660   25.3620 C.3   145  VAL145      0.1692
     33  C         86.2780   20.5190   25.7590 C.2   145  VAL145      0.2591
     34  O         86.0870   19.8550   26.7830 O.2   145  VAL145     -0.2718
     35  CB        84.3460   21.1880   24.2450 C.3   145  VAL145      0.0266
     36  CG1       83.8160   19.7800   24.5790 C.3   145  VAL145      0.0020
     37  CG2       83.1520   22.1640   24.1360 C.3   145  VAL145      0.0020
     38  N         87.3090   20.2870   24.9580 N.am  146  GLN146     -0.1979
     39  CA        88.2590   19.2390   25.2830 C.3   146  GLN146      0.1601
     40  C         89.0200   19.5980   26.5760 C.2   146  GLN146      0.2287
     41  O         89.3300   18.7070   27.3790 O.2   146  GLN146     -0.2864
     42  CB        89.2350   19.0390   24.1280 C.3   146  GLN146      0.0394
     43  CG        88.5900   18.5010   22.8630 C.3   146  GLN146      0.0908
     44  CD        89.5490   18.4490   21.6910 C.2   146  GLN146      0.2608
     45  OE1       90.2310   19.4230   21.3910 O.2   146  GLN146     -0.2717
     46  NE2       89.5980   17.3100   21.0140 N.am  146  GLN146     -0.0878
     47  N         86.8800   18.9090   29.6110 N.3   149  ASN149     -0.1240
     48  CA        86.7670   17.4590   29.7700 C.3   149  ASN149      0.1653
     49  C         88.0800   16.8870   30.3360 C.2   149  ASN149      0.2266
     50  O         88.0600   15.9110   31.0970 O.2   149  ASN149     -0.2867
     51  CB        86.4140   16.7720   28.4390 C.3   149  ASN149      0.1155
     52  CG        84.9230   16.9470   28.0520 C.2   149  ASN149      0.2627
     53  OD1       84.0410   16.9890   28.9050 O.2   149  ASN149     -0.2716
     54  ND2       84.6550   17.0260   26.7560 N.am  149  ASN149     -0.0877
     55  N         87.9510   17.6450   33.9270 N.3   152  ASP152     -0.1225
     56  CA        86.9790   16.7430   34.5450 C.3   152  ASP152      0.1805
     57  C         87.6530   15.3970   34.8170 C.2   152  ASP152      0.2597
     58  O         87.5600   14.8620   35.9270 O.2   152  ASP152     -0.2718
     59  CB        85.7830   16.5580   33.6090 C.3   152  ASP152      0.1424
     60  CG        84.6410   15.7960   34.2490 C.2   152  ASP152      0.3668
     61  OD1       83.9230   15.1140   33.4940 O.co2 152  ASP152     -0.2456
     62  OD2       84.4450   15.8840   35.4870 O.co2 152  ASP152     -0.2456
     63  N         88.3340   14.8570   33.8030 N.am  153  ASP153     -0.1974
     64  CA        89.0540   13.5960   33.9410 C.3   153  ASP153      0.1709
     65  C         90.1340   13.6660   35.0420 C.2   153  ASP153      0.2293
     66  O         90.2220   12.7700   35.8730 O.2   153  ASP153     -0.2864
     67  CB        89.7420   13.2030   32.6270 C.3   153  ASP153      0.1436
     68  CG        88.7760   12.6670   31.5910 C.2   153  ASP153      0.3671
     69  OD1       87.6310   12.3490   31.9600 O.co2 153  ASP153     -0.2456
     70  OD2       89.1680   12.5470   30.4070 O.co2 153  ASP153     -0.2456
     71  N         90.4930   10.0730   36.2640 N.3   158  ARG158     -0.1245
     72  CA        90.1320    9.1720   35.1640 C.3   158  ARG158      0.1563
     73  C         91.1900    9.0880   34.0780 C.2   158  ARG158      0.2260
     74  O         91.0860    8.2560   33.1760 O.2   158  ARG158     -0.2867
     75  CB        88.8150    9.6010   34.5040 C.3   158  ARG158      0.0307
     76  CG        87.6100    9.6400   35.4210 C.3   158  ARG158      0.0489
     77  CD        86.3290    9.8600   34.5990 C.3   158  ARG158      0.2205
     78  NE        85.3790   10.6900   35.3220 N.pl3 158  ARG158     -0.0865
     79  CZ        85.0260   11.9170   34.9530 C.cat 158  ARG158      0.5346
     80  NH1       84.1580   12.5890   35.6970 N.pl3 158  ARG158      0.1354
     81  NH2       85.5200   12.4610   33.8370 N.pl3 158  ARG158      0.1354
@<TRIPOS>BOND
     1    46    44   am
     2    45    44    2
     3    44    43    1
     4    43    42    1
     5    42    39    1
     6    37    35    1
     7    35    36    1
     8    35    32    1
     9    31    32    1
    10    38    39    1
    11    38    33   am
    12    39    40    1
    13    32    33    1
    14    33    34    2
    15    40    41    2
    16    54    52   am
    17    29    28    1
    18    52    51    1
    19    52    53    2
    20    28    27    1
    21    28    30    1
    22    27    24    1
    23    51    48    1
    24    26    25    2
    25    25    24    1
    26    24    23    1
    27    47    48    1
    28    48    49    1
    29    17    16    2
    30    49    50    2
    31    70    68   ar
    32     9     8    1
    33    22    21    1
    34    16    15    1
    35    68    69   ar
    36    68    67    1
    37     8     7    1
    38    20    21    1
    39    20    19    1
    40    18    19    1
    41    18    15    1
    42     7     6    1
    43    15    14    1
    44    67    64    1
    45     6     5    1
    46     5     2    1
    47    74    73    2
    48    61    60   ar
    49     2     1    1
    50     2     3    1
    51    59    60    1
    52    59    56    1
    53    14    12   am
    54    63    64    1
    55    63    57   am
    56    81    79    1
    57    55    56    1
    58    64    65    1
    59    73    72    1
    60    60    62   ar
    61    13    12    2
    62    75    72    1
    63    75    76    1
    64    56    57    1
    65    77    78    1
    66    77    76    1
    67    12    11    1
    68    57    58    2
    69     3     4    2
    70    79    78    2
    71    79    80    1
    72    65    66    2
    73    72    71    1
    74    11    10    1
