@<TRIPOS>MOLECULE
tmp/3fzgA00.pdb
 196 189 0 0 0
SMALL
GASTEIGER

@<TRIPOS>ATOM
      1  N          4.7410   16.3980   29.9910 N.3    26  HIS26      -0.1241
      2  CA         4.6810   15.5290   28.8150 C.3    26  HIS26       0.1621
      3  C          5.0340   14.1000   29.2360 C.2    26  HIS26       0.2264
      4  O          6.1490   13.8370   29.6900 O.2    26  HIS26      -0.2867
      5  CB         5.6570   16.0350   27.7440 C.3    26  HIS26       0.0745
      6  CG         5.5010   15.3630   26.4170 C.ar   26  HIS26       0.0817
      7  ND1        5.1550   16.0470   25.2700 N.ar   26  HIS26      -0.2268
      8  CD2        5.6480   14.0690   26.0520 C.ar   26  HIS26       0.1154
      9  CE1        5.0960   15.2010   24.2560 C.ar   26  HIS26       0.1986
     10  NE2        5.3910   13.9940   24.7040 N.ar   26  HIS26      -0.2212
     11  N          5.9860   11.4560   27.7410 N.3    28  SER28      -0.1202
     12  CA         7.2050   10.8530   27.2040 C.3    28  SER28       0.2020
     13  C          8.4450   11.2780   27.9900 C.2    28  SER28       0.2619
     14  O          9.3760   10.4860   28.1720 O.2    28  SER28      -0.2717
     15  CB         7.3670   11.1980   25.7250 C.3    28  SER28       0.2103
     16  OG         6.3330   10.6100   24.9550 O.3    28  SER28      -0.2182
     17  N          8.4640   12.5220   28.4550 N.am   29  THR29      -0.1952
     18  CA         9.5970   12.9860   29.2430 C.3    29  THR29       0.1897
     19  C          9.3910   12.5650   30.6970 C.2    29  THR29       0.2313
     20  O         10.3470   12.2240   31.3960 O.2    29  THR29      -0.2863
     21  CB         9.7750   14.5220   29.1440 C.3    29  THR29       0.1794
     22  OG1       10.3690   14.8460   27.8760 O.3    29  THR29      -0.2208
     23  CG2       10.6840   15.0370   30.2630 C.3    29  THR29       0.0378
     24  N         10.8070    9.3170   31.3590 N.3    32  ARG32      -0.1245
     25  CA        12.2680    9.2660   31.2970 C.3    32  ARG32       0.1563
     26  C         12.9810    9.8750   32.5050 C.2    32  ARG32       0.2260
     27  O         14.1570    9.5940   32.7460 O.2    32  ARG32      -0.2867
     28  CB        12.7340    9.9630   30.0090 C.3    32  ARG32       0.0307
     29  CG        14.2080    9.8100   29.6790 C.3    32  ARG32       0.0489
     30  CD        14.5160   10.3740   28.2870 C.3    32  ARG32       0.2205
     31  NE        13.7910    9.6580   27.2400 N.pl3  32  ARG32      -0.0865
     32  CZ        12.7780   10.1610   26.5340 C.cat  32  ARG32       0.5346
     33  NH1       12.3480   11.4020   26.7450 N.pl3  32  ARG32       0.1354
     34  NH2       12.1870    9.4150   25.6120 N.pl3  32  ARG32       0.1354
     35  N         16.7990   16.7730   17.4450 N.3    55  ASP55      -0.1225
     36  CA        15.8110   16.0230   18.2150 C.3    55  ASP55       0.1805
     37  C         14.4900   16.1570   17.4560 C.2    55  ASP55       0.2598
     38  O         13.7920   17.1660   17.5910 O.2    55  ASP55      -0.2718
     39  CB        15.6650   16.6260   19.6150 C.3    55  ASP55       0.1424
     40  CG        15.0770   15.6460   20.6170 C.2    55  ASP55       0.3668
     41  OD1       14.4970   14.6240   20.1840 O.co2  55  ASP55      -0.2456
     42  OD2       15.1890   15.9030   21.8370 O.co2  55  ASP55      -0.2456
     43  N         14.1590   15.1510   16.6490 N.am   56  PHE56      -0.1962
     44  CA        12.9350   15.1750   15.8380 C.3    56  PHE56       0.1771
     45  C         11.7290   14.7080   16.6530 C.2    56  PHE56       0.2620
     46  O         11.7180   13.5820   17.1520 O.2    56  PHE56      -0.2715
     47  CB        13.1090   14.2710   14.6110 C.3    56  PHE56       0.0574
     48  CG        12.0180   14.4240   13.5920 C.ar   56  PHE56      -0.0200
     49  CD1       12.1800   15.2810   12.5050 C.ar   56  PHE56      -0.0042
     50  CD2       10.8140   13.7380   13.7360 C.ar   56  PHE56      -0.0042
     51  CE1       11.1550   15.4570   11.5760 C.ar   56  PHE56      -0.0003
     52  CE2        9.7810   13.9060   12.8140 C.ar   56  PHE56      -0.0003
     53  CZ         9.9510   14.7670   11.7310 C.ar   56  PHE56      -0.0000
     54  N         10.7110   15.5600   16.7600 N.am   57  GLY57      -0.1940
     55  CA         9.5420   15.2210   17.5620 C.3    57  GLY57       0.2014
     56  C         10.0150   15.2580   19.0080 C.2    57  GLY57       0.2639
     57  O          9.6760   14.3960   19.8260 O.2    57  GLY57      -0.2714
     58  N         10.7990   16.2900   19.3100 N.am   58  CYS58      -0.1953
     59  CA        11.4290   16.4830   20.6160 C.3    58  CYS58       0.1843
     60  C         10.5850   16.4740   21.8810 C.2    58  CYS58       0.2626
     61  O         11.0610   16.0280   22.9250 O.2    58  CYS58      -0.2714
     62  CB        12.2610   17.7710   20.5980 C.3    58  CYS58       0.0997
     63  SG        11.3140   19.3040   20.4960 S.3    58  CYS58      -0.0797
     64  N          9.3510   16.9630   21.8070 N.am   59  GLY59      -0.1940
     65  CA         8.5240   17.0000   23.0030 C.3    59  GLY59       0.2014
     66  C          9.1960   17.8890   24.0360 C.2    59  GLY59       0.2639
     67  O          9.7000   18.9580   23.6890 O.2    59  GLY59      -0.2714
     68  N          9.2160   17.4580   25.2960 N.am   60  PHE60      -0.1959
     69  CA         9.8440   18.2380   26.3640 C.3    60  PHE60       0.1771
     70  C         11.3050   17.8750   26.6020 C.2    60  PHE60       0.2619
     71  O         11.9280   18.3780   27.5390 O.2    60  PHE60      -0.2715
     72  CB         9.0710   18.0760   27.6790 C.3    60  PHE60       0.0574
     73  CG         8.0510   19.1540   27.9180 C.ar   60  PHE60      -0.0200
     74  CD1        7.0330   19.3870   26.9980 C.ar   60  PHE60      -0.0042
     75  CD2        8.1120   19.9410   29.0650 C.ar   60  PHE60      -0.0042
     76  CE1        6.0920   20.3940   27.2140 C.ar   60  PHE60      -0.0003
     77  CE2        7.1800   20.9460   29.2920 C.ar   60  PHE60      -0.0003
     78  CZ         6.1670   21.1730   28.3640 C.ar   60  PHE60      -0.0000
     79  N         11.8630   17.0200   25.7540 N.am   61  ASN61      -0.1972
     80  CA        13.2570   16.6250   25.9270 C.3    61  ASN61       0.1688
     81  C         14.2170   17.8230   25.9710 C.2    61  ASN61       0.2292
     82  O         15.2430   17.7640   26.6380 O.2    61  ASN61      -0.2864
     83  CB        13.7010   15.6650   24.8170 C.3    61  ASN61       0.1181
     84  CG        15.0170   14.9670   25.1470 C.2    61  ASN61       0.2629
     85  OD1       15.8680   14.7580   24.2760 O.2    61  ASN61      -0.2716
     86  ND2       15.1820   14.5980   26.4110 N.am   61  ASN61      -0.0877
     87  N         12.8910   20.1140   17.0760 N.3    79  TYR79      -0.1227
     88  CA        11.7470   20.2250   16.1800 C.3    79  TYR79       0.1736
     89  C         10.5800   19.3410   16.6240 C.2    79  TYR79       0.2595
     90  O         10.7670   18.1770   16.9700 O.2    79  TYR79      -0.2718
     91  CB        12.1250   19.8260   14.7540 C.3    79  TYR79       0.0548
     92  CG        10.9230   19.7570   13.8360 C.ar   79  TYR79      -0.0200
     93  CD1       10.2410   20.9150   13.4640 C.ar   79  TYR79      -0.0009
     94  CD2       10.4400   18.5330   13.3750 C.ar   79  TYR79      -0.0009
     95  CE1        9.1090   20.8590   12.6580 C.ar   79  TYR79       0.0417
     96  CE2        9.3010   18.4660   12.5650 C.ar   79  TYR79       0.0417
     97  CZ         8.6440   19.6370   12.2140 C.ar   79  TYR79       0.1957
     98  OH         7.5160   19.5940   11.4280 O.3    79  TYR79      -0.2866
     99  N          9.3790   19.9040   16.6170 N.am   80  ASP80      -0.1960
    100  CA         8.1860   19.1470   16.9670 C.3    80  ASP80       0.1840
    101  C          7.0360   19.7760   16.1960 C.2    80  ASP80       0.2622
    102  O          7.0120   20.9910   15.9800 O.2    80  ASP80      -0.2715
    103  CB         7.9210   19.1820   18.4820 C.3    80  ASP80       0.1450
    104  CG         6.9430   18.1000   18.9280 C.2    80  ASP80       0.3671
    105  OD1        5.7490   18.1910   18.5770 O.co2  80  ASP80      -0.2456
    106  OD2        7.3680   17.1470   19.6170 O.co2  80  ASP80      -0.2456
    107  N          6.0920   18.9480   15.7680 N.am   81  ILE81      -0.1963
    108  CA         4.9550   19.4320   15.0000 C.3    81  ILE81       0.1727
    109  C          4.0840   20.3890   15.8120 C.2    81  ILE81       0.2616
    110  O          3.3890   21.2330   15.2480 O.2    81  ILE81      -0.2715
    111  CB         4.1070   18.2500   14.4800 C.3    81  ILE81       0.0290
    112  CG1        3.2000   18.7240   13.3430 C.3    81  ILE81       0.0022
    113  CG2        3.2870   17.6400   15.6190 C.3    81  ILE81       0.0023
    114  CD1        2.5320   17.5930   12.5980 C.3    81  ILE81       0.0001
    115  N          4.1340   20.2700   17.1370 N.am   82  ASP82      -0.1971
    116  CA         3.3460   21.1490   17.9950 C.3    82  ASP82       0.1709
    117  C          4.0720   22.4900   18.1450 C.2    82  ASP82       0.2293
    118  O          4.9460   22.6450   18.9990 O.2    82  ASP82      -0.2864
    119  CB         3.1440   20.5120   19.3720 C.3    82  ASP82       0.1436
    120  CG         2.1780   21.2980   20.2390 C.2    82  ASP82       0.3671
    121  OD1        2.1240   22.5410   20.1060 O.co2  82  ASP82      -0.2456
    122  OD2        1.4840   20.6720   21.0650 O.co2  82  ASP82      -0.2456
    123  N          3.8820   24.3340   21.6060 N.3    85  GLU85      -0.1245
    124  CA         4.7300   23.6900   22.5990 C.3    85  GLU85       0.1567
    125  C          6.1660   24.1610   22.4170 C.2    85  GLU85       0.2260
    126  O          6.8780   24.4080   23.3920 O.2    85  GLU85      -0.2867
    127  CB         4.6600   22.1720   22.4520 C.3    85  GLU85       0.0388
    128  CG         5.4960   21.4130   23.4690 C.3    85  GLU85       0.1160
    129  CD         5.2280   19.9220   23.4270 C.2    85  GLU85       0.3649
    130  OE1        5.5140   19.2960   22.3870 O.co2  85  GLU85      -0.2457
    131  OE2        4.7210   19.3820   24.4330 O.co2  85  GLU85      -0.2457
    132  N          9.4870   22.4120    8.8990 N.3   108  GLU108     -0.1245
    133  CA         9.9270   21.0410    8.6730 C.3   108  GLU108      0.1567
    134  C         10.9560   20.9510    7.5550 C.2   108  GLU108      0.2260
    135  O         11.9410   20.2170    7.6670 O.2   108  GLU108     -0.2867
    136  CB         8.7450   20.1230    8.3350 C.3   108  GLU108      0.0388
    137  CG         9.1870   18.6910    8.0360 C.3   108  GLU108      0.1160
    138  CD         8.0570   17.7790    7.5870 C.2   108  GLU108      0.3649
    139  OE1        7.0090   18.2880    7.1500 O.co2 108  GLU108     -0.2457
    140  OE2        8.2290   16.5440    7.6510 O.co2 108  GLU108     -0.2457
    141  N         13.2150    9.6000   19.6080 N.3   122  LEU122     -0.1231
    142  CA        12.7890    8.9730   20.8510 C.3   122  LEU122      0.1693
    143  C         11.2840    8.7470   20.8840 C.2   122  LEU122      0.2592
    144  O         10.5080    9.7010   20.8360 O.2   122  LEU122     -0.2718
    145  CB        13.2150    9.8540   22.0350 C.3   122  LEU122      0.0284
    146  CG        14.6510   10.4030   21.9660 C.3   122  LEU122      0.0019
    147  CD1       14.9780   11.1830   23.2390 C.3   122  LEU122      0.0001
    148  CD2       15.6300    9.2600   21.7810 C.3   122  LEU122      0.0001
    149  N         10.8820    7.4800   20.9720 N.am  123  LYS123     -0.1966
    150  CA         9.4680    7.1300   21.0100 C.3   123  LYS123      0.1728
    151  C          8.7630    7.8170   19.8410 C.2   123  LYS123      0.2616
    152  O          7.6860    8.3870   20.0080 O.2   123  LYS123     -0.2715
    153  CB         8.8610    7.5900   22.3410 C.3   123  LYS123      0.0311
    154  CG         9.5740    7.0180   23.5740 C.3   123  LYS123      0.0038
    155  CD         9.0860    7.6700   24.8670 C.3   123  LYS123      0.0206
    156  CE         9.8410    7.1130   26.0830 C.3   123  LYS123      0.1093
    157  NZ         9.4520    7.8330   27.3250 N.3   123  LYS123     -0.1314
    158  N          9.3850    7.7530   18.6640 N.am  124  MET124     -0.1977
    159  CA         8.8480    8.3930   17.4620 C.3   124  MET124      0.1605
    160  C          8.4160    7.4660   16.3310 C.2   124  MET124      0.2287
    161  O          7.4160    7.7290   15.6610 O.2   124  MET124     -0.2864
    162  CB         9.8680    9.3860   16.8820 C.3   124  MET124      0.0413
    163  CG         9.9740   10.7050   17.6130 C.3   124  MET124      0.0598
    164  SD         8.3970   11.5650   17.7170 S.3   124  MET124     -0.1393
    165  CE         7.9240   11.6720   16.0020 C.3   124  MET124      0.0692
    166  N          4.7540    6.4310   16.2850 N.3   127  VAL127     -0.1231
    167  CA         3.9100    7.5740   15.9480 C.3   127  VAL127      0.1692
    168  C          3.9080    7.8440   14.4410 C.2   127  VAL127      0.2591
    169  O          2.8530    8.0080   13.8280 O.2   127  VAL127     -0.2718
    170  CB         4.3910    8.8450   16.6820 C.3   127  VAL127      0.0266
    171  CG1        3.5450   10.0340   16.2740 C.3   127  VAL127      0.0020
    172  CG2        4.3170    8.6340   18.1890 C.3   127  VAL127      0.0020
    173  N          5.0950    7.8850   13.8480 N.am  128  LEU128     -0.1980
    174  CA         5.2210    8.1360   12.4170 C.3   128  LEU128      0.1596
    175  C          4.6160    7.0030   11.5870 C.2   128  LEU128      0.2287
    176  O          3.9100    7.2490   10.6020 O.2   128  LEU128     -0.2864
    177  CB         6.6960    8.3350   12.0530 C.3   128  LEU128      0.0297
    178  CG         7.3350    9.5900   12.6660 C.3   128  LEU128      0.0022
    179  CD1        8.8330    9.6020   12.3930 C.3   128  LEU128      0.0001
    180  CD2        6.6710   10.8420   12.0880 C.3   128  LEU128      0.0001
    181  N          1.1540    7.3280   11.1960 N.3   131  GLN131     -0.1245
    182  CA         0.7990    8.3840   10.2660 C.3   131  GLN131      0.1566
    183  C          1.0950    7.9550    8.8380 C.2   131  GLN131      0.2260
    184  O          1.0770    8.7690    7.9190 O.2   131  GLN131     -0.2867
    185  CB         1.5650    9.6630   10.6180 C.3   131  GLN131      0.0367
    186  CG         0.9950   10.3900   11.8290 C.3   131  GLN131      0.0905
    187  CD         1.9360   11.4440   12.3870 C.2   131  GLN131      0.2608
    188  OE1        2.7320   12.0310   11.6580 O.2   131  GLN131     -0.2717
    189  NE2        1.8360   11.6980   13.6860 N.am  131  GLN131     -0.0878
    190  N          3.9070    6.9940    7.5200 N.3   133  VAL133     -0.1245
    191  CA         5.1700    7.4820    6.9930 C.3   133  VAL133      0.1561
    192  C          6.0260    6.2870    6.6000 C.2   133  VAL133      0.2260
    193  O          6.1160    5.3160    7.3470 O.2   133  VAL133     -0.2867
    194  CB         5.9460    8.3050    8.0470 C.3   133  VAL133      0.0252
    195  CG1        7.3460    8.6270    7.5320 C.3   133  VAL133      0.0019
    196  CG2        5.1920    9.5820    8.3690 C.3   133  VAL133      0.0019
@<TRIPOS>BOND
     1   192   191    1
     2   192   193    2
     3   191   190    1
     4   191   194    1
     5   139   138   ar
     6   195   194    1
     7   134   135    2
     8   134   133    1
     9   138   140   ar
    10   138   137    1
    11   184   183    2
    12   137   136    1
    13   194   196    1
    14   136   133    1
    15   133   132    1
    16   183   182    1
    17   182   185    1
    18   182   181    1
    19   176   175    2
    20   185   186    1
    21    98    97    1
    22    51    53   ar
    23    51    49   ar
    24   175   174    1
    25   188   187    2
    26    53    52   ar
    27   186   187    1
    28   177   174    1
    29   177   178    1
    30   180   178    1
    31    97    96   ar
    32    97    95   ar
    33   187   189   am
    34   179   178    1
    35   174   173    1
    36    49    48   ar
    37    96    94   ar
    38   114   112    1
    39    95    93   ar
    40    52    50   ar
    41   112   111    1
    42    94    92   ar
    43    93    92   ar
    44    48    50   ar
    45    48    47    1
    46   169   168    2
    47    92    91    1
    48   173   168   am
    49   168   167    1
    50   111   108    1
    51   111   113    1
    52    47    44    1
    53    91    88    1
    54   108   107    1
    55   108   109    1
    56   110   109    2
    57   161   160    2
    58   107   101   am
    59   109   115   am
    60    44    43    1
    61    44    45    1
    62   167   166    1
    63   167   170    1
    64   102   101    2
    65   165   164    1
    66    88    89    1
    67    88    87    1
    68   101   100    1
    69   171   170    1
    70   160   159    1
    71    99    89   am
    72    99   100    1
    73    89    90    2
    74    43    37   am
    75    45    54   am
    76    45    46    2
    77   170   172    1
    78    54    55    1
    79   162   159    1
    80   162   163    1
    81   100   103    1
    82   115   116    1
    83    35    36    1
    84    37    38    2
    85    37    36    1
    86   159   158    1
    87    55    56    1
    88   163   164    1
    89   116   117    1
    90   116   119    1
    91   117   118    2
    92    36    39    1
    93   103   104    1
    94   105   104   ar
    95   158   151   am
    96   104   106   ar
    97    56    58   am
    98    56    57    2
    99    58    59    1
   100   119   120    1
   101   141   142    1
   102    39    40    1
   103   151   152    2
   104   151   150    1
   105   121   120   ar
   106    41    40   ar
   107   120   122   ar
   108    63    62    1
   109    62    59    1
   110    59    60    1
   111    40    42   ar
   112   144   143    2
   113   142   143    1
   114   142   145    1
   115   143   149   am
   116   149   150    1
   117   150   153    1
   118   123   124    1
   119   148   146    1
   120    64    60   am
   121    64    65    1
   122    60    61    2
   123   146   145    1
   124   146   147    1
   125   153   154    1
   126   130   129   ar
   127   125   124    1
   128   125   126    2
   129   127   124    1
   130   127   128    1
   131    65    66    1
   132   129   128    1
   133   129   131   ar
   134   154   155    1
   135    67    66    2
   136    66    68   am
   137     9    10   ar
   138     9     7   ar
   139    85    84    2
   140    10     8   ar
   141    83    84    1
   142    83    80    1
   143   155   156    1
   144    16    15    1
   145    84    86   am
   146     7     6   ar
   147    68    69    1
   148    34    32    1
   149    15    12    1
   150    79    80    1
   151    79    70   am
   152    80    81    1
   153    81    82    2
   154     8     6   ar
   155   156   157    1
   156    69    70    1
   157    69    72    1
   158     6     5    1
   159    32    33    1
   160    32    31    2
   161    70    71    2
   162    74    76   ar
   163    74    73   ar
   164    12    11    1
   165    12    13    1
   166    76    78   ar
   167    31    30    1
   168    72    73    1
   169     5     2    1
   170    22    21    1
   171    73    75   ar
   172    13    14    2
   173    13    17   am
   174    30    29    1
   175    78    77   ar
   176    17    18    1
   177     2     3    1
   178     2     1    1
   179    75    77   ar
   180    21    18    1
   181    21    23    1
   182     3     4    2
   183    18    19    1
   184    29    28    1
   185    28    25    1
   186    19    20    2
   187    25    24    1
   188    25    26    1
   189    26    27    2
