@<TRIPOS>MOLECULE
tmp/3fzkA01.pdb
 113 104 0 0 0
SMALL
GASTEIGER

@<TRIPOS>ATOM
      1  N         15.2240    5.0040    9.9030 N.3    11  TYR11      -0.1241
      2  CA        16.6390    5.3410    9.9000 C.3    11  TYR11       0.1605
      3  C         16.8020    6.8170    9.4720 C.2    11  TYR11       0.2264
      4  O         15.9410    7.3310    8.7700 O.2    11  TYR11      -0.2867
      5  CB        17.3410    4.3890    8.9130 C.3    11  TYR11       0.0534
      6  CG        17.2460    4.8140    7.4680 C.ar   11  TYR11      -0.0201
      7  CD1       18.1700    5.7230    6.9180 C.ar   11  TYR11      -0.0009
      8  CD2       16.2450    4.3190    6.6390 C.ar   11  TYR11      -0.0009
      9  CE1       18.0970    6.1440    5.5650 C.ar   11  TYR11       0.0417
     10  CE2       16.1610    4.7270    5.2900 C.ar   11  TYR11       0.0417
     11  CZ        17.1020    5.6360    4.7590 C.ar   11  TYR11       0.1957
     12  OH        17.0300    6.0270    3.4280 O.3    11  TYR11      -0.2866
     13  N         10.5880    1.6790    0.9420 N.3   197  GLY197     -0.1210
     14  CA        11.6140    1.3450    1.9220 C.3   197  GLY197      0.1956
     15  C         11.4740   -0.0130    2.6170 C.2   197  GLY197      0.2612
     16  O         10.9290   -0.9660    2.0770 O.2   197  GLY197     -0.2717
     17  N         12.0080   -0.1180    3.8150 N.am  198  GLY198     -0.1956
     18  CA        11.8100   -1.3590    4.5860 C.3   198  GLY198      0.1869
     19  C         10.3730   -1.6120    5.0360 C.2   198  GLY198      0.2309
     20  O          9.9570   -2.7480    5.2790 O.2   198  GLY198     -0.2863
     21  N         10.0030   -3.9080    2.2610 N.3   226  GLY226     -0.1210
     22  CA        10.9060   -5.0510    2.2080 C.3   226  GLY226      0.1956
     23  C         10.6430   -6.0910    3.2870 C.2   226  GLY226      0.2611
     24  O         11.0940   -7.2020    3.1980 O.2   226  GLY226     -0.2717
     25  N          9.9130   -5.7140    4.3190 N.am  227  GLU227     -0.1979
     26  CA         9.6680   -6.6270    5.3980 C.3   227  GLU227      0.1602
     27  C          8.6710   -7.6690    4.9970 C.2   227  GLU227      0.2287
     28  O          8.7580   -8.8170    5.4760 O.2   227  GLU227     -0.2864
     29  CB         9.2550   -5.8890    6.6480 C.3   227  GLU227      0.0415
     30  CG        10.2980   -6.0010    7.7090 C.3   227  GLU227      0.1163
     31  CD        10.6650   -4.6820    8.2600 C.2   227  GLU227      0.3649
     32  OE1       11.8350   -4.2890    8.0620 O.co2 227  GLU227     -0.2457
     33  OE2        9.7990   -4.0290    8.8980 O.co2 227  GLU227     -0.2457
     34  N         10.3910  -10.3370    2.9180 N.3   230  ASP230     -0.1239
     35  CA        11.2550  -11.1930    3.7490 C.3   230  ASP230      0.1674
     36  C         10.3390  -12.2580    4.3020 C.2   230  ASP230      0.2266
     37  O         10.7090  -13.3990    4.3610 O.2   230  ASP230     -0.2867
     38  CB        11.8620  -10.4090    4.9210 C.3   230  ASP230      0.1410
     39  CG        12.8210   -9.2870    4.4930 C.2   230  ASP230      0.3668
     40  OD1       13.2490   -9.1820    3.3330 O.co2 230  ASP230     -0.2456
     41  OD2       13.1730   -8.4910    5.3800 O.co2 230  ASP230     -0.2456
     42  N         16.2870  -11.8850    4.6710 N.3   264  GLU264     -0.1245
     43  CA        16.6150  -10.5100    4.3610 C.3   264  GLU264      0.1567
     44  C         17.9610  -10.3730    3.6140 C.2   264  GLU264      0.2260
     45  O         18.0280   -9.6430    2.6370 O.2   264  GLU264     -0.2867
     46  CB        16.6390   -9.6840    5.6540 C.3   264  GLU264      0.0388
     47  CG        16.4500   -8.1620    5.4970 C.3   264  GLU264      0.1160
     48  CD        17.7430   -7.3910    5.2280 C.2   264  GLU264      0.3649
     49  OE1       17.6920   -6.3320    4.5390 O.co2 264  GLU264     -0.2457
     50  OE2       18.8170   -7.8490    5.6760 O.co2 264  GLU264     -0.2457
     51  N         17.8570  -11.9200    0.2370 N.3   267  LYS267     -0.1231
     52  CA        17.0920  -11.0360   -0.6460 C.3   267  LYS267      0.1693
     53  C         17.9620   -9.9680   -1.3190 C.2   267  LYS267      0.2591
     54  O         17.7460   -9.6530   -2.4840 O.2   267  LYS267     -0.2718
     55  CB        15.8780  -10.4310    0.0700 C.3   267  LYS267      0.0285
     56  CG        15.2740   -9.2150   -0.6400 C.3   267  LYS267      0.0035
     57  CD        14.3270   -8.4670    0.3210 C.3   267  LYS267      0.0206
     58  CE        15.1050   -7.5290    1.2560 C.3   267  LYS267      0.1093
     59  NZ        14.1600   -7.0240    2.2810 N.3   267  LYS267     -0.1314
     60  N         18.9480   -9.4200   -0.5830 N.am  268  ARG268     -0.1980
     61  CA        19.7590   -8.3010   -1.0490 C.3   268  ARG268      0.1597
     62  C         20.6990   -8.8320   -2.0940 C.2   268  ARG268      0.2287
     63  O         20.8270   -8.2630   -3.1610 O.2   268  ARG268     -0.2864
     64  CB        20.5100   -7.6520    0.1270 C.3   268  ARG268      0.0334
     65  CG        19.6180   -6.9410    1.0840 C.3   268  ARG268      0.0492
     66  CD        20.4390   -6.0290    2.0090 C.3   268  ARG268      0.2205
     67  NE        20.6550   -6.6760    3.3060 N.pl3 268  ARG268     -0.0865
     68  CZ        21.8080   -7.2340    3.7060 C.cat 268  ARG268      0.5346
     69  NH1       22.8810   -7.1700    2.9570 N.pl3 268  ARG268      0.1354
     70  NH2       21.9100   -7.8130    4.8840 N.pl3 268  ARG268      0.1354
     71  N         19.4400   -9.0010   -5.5620 N.3   271  SER271     -0.1217
     72  CA        19.2780   -7.8050   -6.4220 C.3   271  SER271      0.1889
     73  C         20.4570   -7.6520   -7.4090 C.2   271  SER271      0.2288
     74  O         20.3760   -6.8800   -8.4030 O.2   271  SER271     -0.2866
     75  CB        19.0810   -6.5430   -5.5980 C.3   271  SER271      0.2089
     76  OG        18.0640   -6.7020   -4.6150 O.3   271  SER271     -0.2183
     77  N         15.4460    1.5890   -0.0490 N.3   335  GLY335     -0.1210
     78  CA        16.3080    0.4730   -0.3670 C.3   335  GLY335      0.1956
     79  C         15.7110   -0.6540   -1.1410 C.2   335  GLY335      0.2612
     80  O         16.4340   -1.3030   -1.8990 O.2   335  GLY335     -0.2717
     81  N         14.4220   -0.9260   -0.9450 N.am  336  SER336     -0.1952
     82  CA        13.7650   -2.0250   -1.6610 C.3   336  SER336      0.1924
     83  C         13.6920   -1.7890   -3.1720 C.2   336  SER336      0.2314
     84  O         13.4570   -2.7310   -3.9160 O.2   336  SER336     -0.2863
     85  CB        12.3670   -2.3300   -1.1690 C.3   336  SER336      0.2116
     86  OG        12.2170   -2.3190    0.2420 O.3   336  SER336     -0.2180
     87  N         16.0000   -1.4910   -5.1170 N.3   338  ARG338     -0.1231
     88  CA        17.0990   -2.1800   -5.8420 C.3   338  ARG338      0.1694
     89  C         16.6320   -3.4470   -6.5110 C.2   338  ARG338      0.2591
     90  O         17.3130   -3.9750   -7.3970 O.2   338  ARG338     -0.2718
     91  CB        18.2730   -2.5300   -4.9170 C.3   338  ARG338      0.0321
     92  CG        18.8670   -1.2980   -4.2510 C.3   338  ARG338      0.0489
     93  CD        20.0100   -1.6300   -3.2530 C.3   338  ARG338      0.2205
     94  NE        20.7710   -0.4310   -2.8920 N.pl3 338  ARG338     -0.0865
     95  CZ        20.5830    0.2290   -1.7450 C.cat 338  ARG338      0.5346
     96  NH1       19.6810   -0.1830   -0.8590 N.pl3 338  ARG338      0.1354
     97  NH2       21.2770    1.3130   -1.4720 N.pl3 338  ARG338      0.1354
     98  N         15.4750   -3.9590   -6.1020 N.am  339  ILE339     -0.1980
     99  CA        14.9960   -5.2570   -6.5920 C.3   339  ILE339      0.1595
    100  C         14.7780   -5.0640   -8.0740 C.2   339  ILE339      0.2287
    101  O         13.9600   -4.2180   -8.4270 O.2   339  ILE339     -0.2864
    102  CB        13.7030   -5.6570   -5.8750 C.3   339  ILE339      0.0276
    103  CG1       14.0240   -5.9760   -4.4080 C.3   339  ILE339      0.0022
    104  CG2       13.0710   -6.8430   -6.5490 C.3   339  ILE339      0.0022
    105  CD1       12.7750   -6.1560   -3.4280 C.3   339  ILE339      0.0001
    106  N         18.7840    4.8630   -0.5880 N.3   362  ASP362     -0.1239
    107  CA        18.7380    5.0100    0.8950 C.3   362  ASP362      0.1674
    108  C         19.2660    6.3970    1.1560 C.2   362  ASP362      0.2266
    109  O         18.9120    6.9950    2.1410 O.2   362  ASP362     -0.2867
    110  CB        19.6780    4.0000    1.6090 C.3   362  ASP362      0.1410
    111  CG        19.2380    2.5690    1.4020 C.2   362  ASP362      0.3668
    112  OD1       18.1200    2.2320    1.8670 O.co2 362  ASP362     -0.2456
    113  OD2       19.9580    1.8000    0.7150 O.co2 362  ASP362     -0.2456
@<TRIPOS>BOND
     1   101   100    2
     2    74    73    2
     3   100    99    1
     4    73    72    1
     5    90    89    2
     6    99    98    1
     7    99   102    1
     8   104   102    1
     9    89    98   am
    10    89    88    1
    11    72    75    1
    12    72    71    1
    13   102   103    1
    14    88    87    1
    15    88    91    1
    16    75    76    1
    17    91    92    1
    18   103   105    1
    19    92    93    1
    20    84    83    2
    21    93    94    1
    22    83    82    1
    23    63    62    2
    24    94    95    2
    25    54    53    2
    26    62    61    1
    27    80    79    2
    28    95    97    1
    29    95    96    1
    30    82    85    1
    31    82    81    1
    32    53    52    1
    33    53    60   am
    34    85    86    1
    35    79    81   am
    36    79    78    1
    37    61    60    1
    38    61    64    1
    39    52    55    1
    40    52    51    1
    41    56    55    1
    42    56    57    1
    43   106   107    1
    44    78    77    1
    45    64    65    1
    46    57    58    1
    47   113   111   ar
    48   107   108    1
    49   107   110    1
    50    13    14    1
    51    65    66    1
    52   108   109    2
    53    58    59    1
    54   111   110    1
    55   111   112   ar
    56    14    15    1
    57    66    67    1
    58    16    15    2
    59    22    21    1
    60    22    23    1
    61    15    17   am
    62    45    44    2
    63    34    35    1
    64    69    68    1
    65    24    23    2
    66    23    25   am
    67    67    68    2
    68    40    39   ar
    69    12    11    1
    70    44    43    1
    71    68    70    1
    72    35    36    1
    73    35    38    1
    74    17    18    1
    75    36    37    2
    76    25    26    1
    77    43    42    1
    78    43    46    1
    79    39    38    1
    80    39    41   ar
    81    49    48   ar
    82    18    19    1
    83    11    10   ar
    84    11     9   ar
    85    27    26    1
    86    27    28    2
    87    19    20    2
    88    48    47    1
    89    48    50   ar
    90    10     8   ar
    91    26    29    1
    92    47    46    1
    93     9     7   ar
    94     8     6   ar
    95    29    30    1
    96     7     6   ar
    97     6     5    1
    98    30    31    1
    99    32    31   ar
   100    31    33   ar
   101     4     3    2
   102     5     2    1
   103     3     2    1
   104     2     1    1
