@<TRIPOS>MOLECULE
tmp/3fzlA01.pdb
 139 129 0 0 0
SMALL
GASTEIGER

@<TRIPOS>ATOM
      1  N         15.1910    4.8000    9.6130 N.3    11  TYR11      -0.1241
      2  CA        16.5660    5.2090    9.5270 C.3    11  TYR11       0.1605
      3  C         16.5900    6.7070    9.2530 C.2    11  TYR11       0.2264
      4  O         15.6150    7.2710    8.7760 O.2    11  TYR11      -0.2867
      5  CB        17.2550    4.4440    8.3940 C.3    11  TYR11       0.0534
      6  CG        17.5220    2.9880    8.7260 C.ar   11  TYR11      -0.0201
      7  CD1       18.6860    2.6120    9.4130 C.ar   11  TYR11      -0.0009
      8  CD2       16.6250    1.9750    8.3500 C.ar   11  TYR11      -0.0009
      9  CE1       18.9510    1.2790    9.7360 C.ar   11  TYR11       0.0417
     10  CE2       16.8930    0.6140    8.6720 C.ar   11  TYR11       0.0417
     11  CZ        18.0630    0.2980    9.3680 C.ar   11  TYR11       0.1957
     12  OH        18.3590   -0.9980    9.7080 O.3    11  TYR11      -0.2866
     13  N         28.3890    3.4880    9.7840 N.3    31  ASN31      -0.1225
     14  CA        27.1840    3.3170    8.9410 C.3    31  ASN31       0.1785
     15  C         26.6370    4.6460    8.4250 C.2    31  ASN31       0.2597
     16  O         26.4740    5.5980    9.2030 O.2    31  ASN31      -0.2718
     17  CB        26.0640    2.6430    9.7470 C.3    31  ASN31       0.1169
     18  CG        26.5230    1.3700   10.4850 C.2    31  ASN31       0.2627
     19  OD1       27.0350    0.4250    9.8820 O.2    31  ASN31      -0.2716
     20  ND2       26.3010    1.3410   11.7940 N.am   31  ASN31      -0.0877
     21  N         26.3020    4.7000    7.1400 N.am   32  ARG32      -0.1966
     22  CA        25.8260    5.9510    6.5290 C.3    32  ARG32       0.1729
     23  C         24.3340    6.2490    6.7660 C.2    32  ARG32       0.2616
     24  O         23.8480    7.3170    6.3910 O.2    32  ARG32      -0.2715
     25  CB        26.1740    5.9920    5.0500 C.3    32  ARG32       0.0348
     26  CG        27.6230    6.0090    4.8370 C.3    32  ARG32       0.0492
     27  CD        27.9490    5.1380    3.6680 C.3    32  ARG32       0.2205
     28  NE        27.7250    5.8780    2.4420 N.pl3  32  ARG32      -0.0865
     29  CZ        28.5890    6.7680    1.9440 C.cat  32  ARG32       0.5346
     30  NH1       29.7530    7.0270    2.5690 N.pl3  32  ARG32       0.1354
     31  NH2       28.2800    7.4070    0.8140 N.pl3  32  ARG32       0.1354
     32  N         23.6220    5.2810    7.3450 N.am   33  THR33      -0.1951
     33  CA        22.3240    5.5340    7.9280 C.3    33  THR33       0.1897
     34  C         22.4070    5.2660    9.4170 C.2    33  THR33       0.2313
     35  O         23.2470    4.4860    9.8750 O.2    33  THR33      -0.2863
     36  CB        21.1990    4.6570    7.3320 C.3    33  THR33       0.1794
     37  OG1       21.4980    3.2600    7.5350 O.3    33  THR33      -0.2208
     38  CG2       21.0140    4.9520    5.8480 C.3    33  THR33       0.0378
     39  N         10.7070    1.6590    0.8230 N.3   197  GLY197     -0.1210
     40  CA        11.6550    1.3800    1.8900 C.3   197  GLY197      0.1956
     41  C         11.4870   -0.0060    2.4670 C.2   197  GLY197      0.2612
     42  O         11.3600   -1.0080    1.7450 O.2   197  GLY197     -0.2717
     43  N         11.4830   -0.0800    3.7910 N.am  198  GLY198     -0.1956
     44  CA        11.4960   -1.3770    4.4560 C.3   198  GLY198      0.1869
     45  C         10.1460   -1.6830    5.0220 C.2   198  GLY198      0.2309
     46  O          9.7180   -2.8500    5.0910 O.2   198  GLY198     -0.2863
     47  N         10.1340   -4.0460    2.1240 N.3   226  GLY226     -0.1210
     48  CA        11.0250   -5.1940    2.1250 C.3   226  GLY226      0.1956
     49  C         10.6970   -6.2740    3.1460 C.2   226  GLY226      0.2611
     50  O         11.1040   -7.4330    2.9830 O.2   226  GLY226     -0.2717
     51  N          9.9560   -5.9100    4.1920 N.am  227  GLU227     -0.1979
     52  CA         9.7170   -6.8410    5.2710 C.3   227  GLU227      0.1602
     53  C          8.6440   -7.8550    4.9570 C.2   227  GLU227      0.2287
     54  O          8.6970   -9.0280    5.3910 O.2   227  GLU227     -0.2864
     55  CB         9.4540   -6.0870    6.5350 C.3   227  GLU227      0.0415
     56  CG        10.7740   -5.7430    7.2080 C.3   227  GLU227      0.1163
     57  CD        10.5720   -5.2550    8.6000 C.2   227  GLU227      0.3649
     58  OE1       11.1470   -4.1920    8.9270 O.co2 227  GLU227     -0.2457
     59  OE2        9.8050   -5.9160    9.3520 O.co2 227  GLU227     -0.2457
     60  N         10.6160  -10.5090    2.9930 N.3   230  ASP230     -0.1239
     61  CA        11.4220  -11.4370    3.7740 C.3   230  ASP230      0.1674
     62  C         10.4730  -12.4910    4.3380 C.2   230  ASP230      0.2266
     63  O         10.8000  -13.6780    4.3210 O.2   230  ASP230     -0.2867
     64  CB        12.2330  -10.7370    4.8900 C.3   230  ASP230      0.1410
     65  CG        13.0170   -9.4680    4.4060 C.2   230  ASP230      0.3668
     66  OD1       13.5570   -9.4060    3.2710 O.co2 230  ASP230     -0.2456
     67  OD2       13.0950   -8.5060    5.1970 O.co2 230  ASP230     -0.2456
     68  N         16.4860  -11.8890    4.8270 N.3   264  GLU264     -0.1245
     69  CA        16.7190  -10.5110    4.4220 C.3   264  GLU264      0.1567
     70  C         18.0620  -10.3970    3.7120 C.2   264  GLU264      0.2260
     71  O         18.1780   -9.7050    2.7060 O.2   264  GLU264     -0.2867
     72  CB        16.6500   -9.5640    5.6200 C.3   264  GLU264      0.0388
     73  CG        16.6060   -8.0820    5.2790 C.3   264  GLU264      0.1160
     74  CD        17.9530   -7.4630    5.0880 C.2   264  GLU264      0.3649
     75  OE1       18.0730   -6.3960    4.4270 O.co2 264  GLU264     -0.2457
     76  OE2       18.9110   -8.0260    5.6290 O.co2 264  GLU264     -0.2457
     77  N         17.9370  -12.0270    0.3400 N.3   267  LYS267     -0.1231
     78  CA        17.2060  -11.0740   -0.4830 C.3   267  LYS267      0.1693
     79  C         18.1260  -10.0240   -1.0810 C.2   267  LYS267      0.2591
     80  O         18.0680   -9.7740   -2.2740 O.2   267  LYS267     -0.2718
     81  CB        16.0910  -10.3950    0.3130 C.3   267  LYS267      0.0285
     82  CG        15.5090   -9.2020   -0.3910 C.3   267  LYS267      0.0035
     83  CD        14.5420   -8.4540    0.4880 C.3   267  LYS267      0.0206
     84  CE        15.2230   -7.3990    1.3200 C.3   267  LYS267      0.1093
     85  NZ        14.2980   -7.0460    2.4570 N.3   267  LYS267     -0.1314
     86  N         18.9640   -9.4040   -0.2560 N.am  268  ARG268     -0.1980
     87  CA        19.8250   -8.3700   -0.7690 C.3   268  ARG268      0.1597
     88  C         20.7150   -8.9320   -1.8780 C.2   268  ARG268      0.2287
     89  O         20.8580   -8.3340   -2.9110 O.2   268  ARG268     -0.2864
     90  CB        20.5700   -7.6700    0.3650 C.3   268  ARG268      0.0334
     91  CG        19.5990   -6.9050    1.2290 C.3   268  ARG268      0.0492
     92  CD        20.2560   -6.0560    2.2820 C.3   268  ARG268      0.2205
     93  NE        20.5480   -6.8120    3.4940 N.pl3 268  ARG268     -0.0865
     94  CZ        21.7230   -7.3920    3.7440 C.cat 268  ARG268      0.5346
     95  NH1       22.7180   -7.3180    2.8640 N.pl3 268  ARG268      0.1354
     96  NH2       21.9100   -8.0620    4.8720 N.pl3 268  ARG268      0.1354
     97  N         19.4230   -9.2410   -5.5560 N.3   271  SER271     -0.1217
     98  CA        19.3450   -8.0400   -6.3940 C.3   271  SER271      0.1889
     99  C         20.5500   -7.8890   -7.3440 C.2   271  SER271      0.2288
    100  O         20.5200   -7.0580   -8.2600 O.2   271  SER271     -0.2866
    101  CB        19.1780   -6.8010   -5.5200 C.3   271  SER271      0.2089
    102  OG        18.1940   -7.0510   -4.5230 O.3   271  SER271     -0.2183
    103  N         15.5250    1.7060   -0.0990 N.3   335  GLY335     -0.1210
    104  CA        16.3840    0.6100   -0.4200 C.3   335  GLY335      0.1956
    105  C         15.7810   -0.6070   -1.0310 C.2   335  GLY335      0.2612
    106  O         16.5100   -1.4890   -1.3620 O.2   335  GLY335     -0.2717
    107  N         14.4680   -0.6890   -1.1890 N.am  336  SER336     -0.1952
    108  CA        13.8540   -1.8920   -1.7990 C.3   336  SER336      0.1924
    109  C         13.7890   -1.7930   -3.3080 C.2   336  SER336      0.2314
    110  O         13.7470   -2.8030   -3.9930 O.2   336  SER336     -0.2863
    111  CB        12.4760   -2.1390   -1.2480 C.3   336  SER336      0.2116
    112  OG        12.5460   -2.5640    0.1060 O.3   336  SER336     -0.2180
    113  N         15.9160   -1.4870   -5.1070 N.3   338  ARG338     -0.1231
    114  CA        17.1160   -2.1290   -5.6100 C.3   338  ARG338      0.1694
    115  C         16.7620   -3.4700   -6.2090 C.2   338  ARG338      0.2591
    116  O         17.6340   -4.0970   -6.8420 O.2   338  ARG338     -0.2718
    117  CB        18.1410   -2.3500   -4.5010 C.3   338  ARG338      0.0321
    118  CG        19.0290   -1.1770   -4.1980 C.3   338  ARG338      0.0489
    119  CD        20.0890   -1.5510   -3.1710 C.3   338  ARG338      0.2205
    120  NE        20.8680   -0.3820   -2.7750 N.pl3 338  ARG338     -0.0865
    121  CZ        20.6970    0.2960   -1.6350 C.cat 338  ARG338      0.5346
    122  NH1       19.7700   -0.0820   -0.7380 N.pl3 338  ARG338      0.1354
    123  NH2       21.4530    1.3610   -1.3790 N.pl3 338  ARG338      0.1354
    124  N         15.5190   -3.9260   -6.0050 N.am  339  ILE339     -0.1980
    125  CA        15.0460   -5.2410   -6.5190 C.3   339  ILE339      0.1595
    126  C         14.7410   -5.0820   -7.9990 C.2   339  ILE339      0.2287
    127  O         13.9340   -4.1980   -8.3620 O.2   339  ILE339     -0.2864
    128  CB        13.7480   -5.7010   -5.8470 C.3   339  ILE339      0.0276
    129  CG1       13.9340   -5.8930   -4.3450 C.3   339  ILE339      0.0022
    130  CG2       13.3110   -6.9620   -6.4570 C.3   339  ILE339      0.0022
    131  CD1       12.6330   -6.1830   -3.5630 C.3   339  ILE339      0.0001
    132  N         18.9440    4.7710   -0.7170 N.3   362  ASP362     -0.1239
    133  CA        18.7960    4.9810    0.7490 C.3   362  ASP362      0.1674
    134  C         19.2120    6.3820    1.1460 C.2   362  ASP362      0.2266
    135  O         18.8110    6.8810    2.1990 O.2   362  ASP362     -0.2867
    136  CB        19.7060    4.0210    1.5280 C.3   362  ASP362      0.1410
    137  CG        19.3860    2.5500    1.2780 C.2   362  ASP362      0.3668
    138  OD1       18.2280    2.1400    1.4890 O.co2 362  ASP362     -0.2456
    139  OD2       20.3000    1.7990    0.9040 O.co2 362  ASP362     -0.2456
@<TRIPOS>BOND
     1   127   126    2
     2   100    99    2
     3   126   125    1
     4    99    98    1
     5   116   115    2
     6   125   124    1
     7   125   128    1
     8   130   128    1
     9    98    97    1
    10    98   101    1
    11   115   124   am
    12   115   114    1
    13   128   129    1
    14   114   113    1
    15   114   117    1
    16   101   102    1
    17   117   118    1
    18   129   131    1
    19   118   119    1
    20   110   109    2
    21   109   108    1
    22   119   120    1
    23    89    88    2
    24   120   121    2
    25    80    79    2
    26    88    87    1
    27   108   111    1
    28   108   107    1
    29   121   123    1
    30   121   122    1
    31   106   105    2
    32   111   112    1
    33   107   105   am
    34    79    78    1
    35    79    86   am
    36   105   104    1
    37    87    86    1
    38    87    90    1
    39   132   133    1
    40    78    81    1
    41    78    77    1
    42   104   103    1
    43    82    81    1
    44    82    83    1
    45    90    91    1
    46    83    84    1
    47   133   134    1
    48   133   136    1
    49    31    29    1
    50    39    40    1
    51   139   137   ar
    52   134   135    2
    53    91    92    1
    54   137   138   ar
    55   137   136    1
    56    84    85    1
    57    42    41    2
    58    40    41    1
    59    29    28    2
    60    29    30    1
    61    47    48    1
    62    48    49    1
    63    92    93    1
    64    28    27    1
    65    41    43   am
    66    71    70    2
    67    95    94    1
    68    50    49    2
    69    60    61    1
    70    49    51   am
    71    66    65   ar
    72    93    94    2
    73    27    26    1
    74    70    69    1
    75    94    96    1
    76    61    62    1
    77    61    64    1
    78    43    44    1
    79    51    52    1
    80    63    62    2
    81    65    64    1
    82    65    67   ar
    83    69    68    1
    84    69    72    1
    85    75    74   ar
    86    44    45    1
    87    26    25    1
    88    53    52    1
    89    53    54    2
    90    45    46    2
    91    25    22    1
    92    74    73    1
    93    74    76   ar
    94    52    55    1
    95    73    72    1
    96    38    36    1
    97    24    23    2
    98    22    23    1
    99    22    21    1
   100    55    56    1
   101    23    32   am
   102    21    15   am
   103    56    57    1
   104    36    37    1
   105    36    33    1
   106    32    33    1
   107    33    34    1
   108     8    10   ar
   109     8     6   ar
   110     5     6    1
   111     5     2    1
   112    15    14    1
   113    15    16    2
   114    57    58   ar
   115    57    59   ar
   116    10    11   ar
   117     6     7   ar
   118     4     3    2
   119    14    17    1
   120    14    13    1
   121     3     2    1
   122    11    12    1
   123    11     9   ar
   124     7     9   ar
   125    34    35    2
   126     2     1    1
   127    17    18    1
   128    19    18    2
   129    18    20   am
