@<TRIPOS>MOLECULE
tmp/3fzmA00.pdb
 128 117 0 0 0
SMALL
GASTEIGER

@<TRIPOS>ATOM
      1  N         15.2720    4.8070    9.2290 N.3    11  TYR11      -0.1241
      2  CA        16.6720    5.2740    9.1310 C.3    11  TYR11       0.1605
      3  C         16.7790    6.7540    8.7630 C.2    11  TYR11       0.2264
      4  O         15.9630    7.2870    7.9980 O.2    11  TYR11      -0.2867
      5  CB        17.4600    4.4620    8.0870 C.3    11  TYR11       0.0534
      6  CG        17.7060    3.0240    8.4780 C.ar   11  TYR11      -0.0201
      7  CD1       16.7700    2.0230    8.1690 C.ar   11  TYR11      -0.0009
      8  CD2       18.8790    2.6490    9.1500 C.ar   11  TYR11      -0.0009
      9  CE1       17.0000    0.6760    8.5460 C.ar   11  TYR11       0.0417
     10  CE2       19.1050    1.3300    9.5220 C.ar   11  TYR11       0.0417
     11  CZ        18.1700    0.3560    9.2180 C.ar   11  TYR11       0.1957
     12  OH        18.4030   -0.9550    9.5740 O.3    11  TYR11      -0.2866
     13  N         28.4520    3.6930    9.6060 N.3    31  ASN31      -0.1240
     14  CA        27.2640    3.4390    8.7810 C.3    31  ASN31       0.1653
     15  C         26.7580    4.7540    8.1750 C.2    31  ASN31       0.2266
     16  O         26.6190    5.7470    8.8840 O.2    31  ASN31      -0.2867
     17  CB        26.1530    2.7460    9.5990 C.3    31  ASN31       0.1155
     18  CG        26.5680    1.3580   10.1390 C.2    31  ASN31       0.2627
     19  OD1       27.1380    0.5350    9.4250 O.2    31  ASN31      -0.2716
     20  ND2       26.2650    1.1040   11.3810 N.am   31  ASN31      -0.0877
     21  N         23.8080    5.2640    7.0000 N.3    33  THR33      -0.1218
     22  CA        22.5050    5.5410    7.6060 C.3    33  THR33       0.1862
     23  C         22.4870    5.1370    9.0680 C.2    33  THR33       0.2287
     24  O         23.2420    4.2630    9.4870 O.2    33  THR33      -0.2866
     25  CB        21.3100    4.9440    6.8440 C.3    33  THR33       0.1770
     26  OG1       21.4110    3.5180    6.7960 O.3    33  THR33      -0.2211
     27  CG2       21.2230    5.5420    5.4110 C.3    33  THR33       0.0375
     28  N         10.9490    1.5730    0.5660 N.3   197  GLY197     -0.1210
     29  CA        12.0010    1.1610    1.4910 C.3   197  GLY197      0.1956
     30  C         11.7670   -0.2040    2.1190 C.2   197  GLY197      0.2612
     31  O         11.2340   -1.1180    1.4720 O.2   197  GLY197     -0.2717
     32  N         12.1880   -0.3400    3.3870 N.am  198  GLY198     -0.1956
     33  CA        11.9370   -1.5460    4.1730 C.3   198  GLY198      0.1869
     34  C         10.5430   -1.5710    4.7750 C.2   198  GLY198      0.2309
     35  O         10.0510   -2.6490    5.2040 O.2   198  GLY198     -0.2863
     36  N         10.6130   -4.0740    2.1390 N.3   226  GLY226     -0.1210
     37  CA        11.3990   -5.2910    1.9850 C.3   226  GLY226      0.1956
     38  C         11.1110   -6.2790    3.0920 C.2   226  GLY226      0.2611
     39  O         11.4220   -7.4660    2.9680 O.2   226  GLY226     -0.2717
     40  N         10.5140   -5.7810    4.1710 N.am  227  GLU227     -0.1979
     41  CA        10.1230   -6.5890    5.3240 C.3   227  GLU227      0.1602
     42  C          9.1430   -7.6510    4.8680 C.2   227  GLU227      0.2287
     43  O          9.2030   -8.7910    5.3100 O.2   227  GLU227     -0.2864
     44  CB         9.4670   -5.6990    6.3860 C.3   227  GLU227      0.0415
     45  CG         9.7820   -6.0580    7.8250 C.3   227  GLU227      0.1163
     46  CD        11.2340   -5.8030    8.1860 C.2   227  GLU227      0.3649
     47  OE1       11.8310   -4.8590    7.6220 O.co2 227  GLU227     -0.2457
     48  OE2       11.7880   -6.5660    9.0170 O.co2 227  GLU227     -0.2457
     49  N         10.8980  -10.4410    2.5210 N.3   230  ASP230     -0.1239
     50  CA        11.5870  -11.3760    3.4170 C.3   230  ASP230      0.1674
     51  C         10.6250  -12.4420    3.9520 C.2   230  ASP230      0.2266
     52  O         10.9570  -13.6230    3.9510 O.2   230  ASP230     -0.2867
     53  CB        12.2320  -10.6330    4.5960 C.3   230  ASP230      0.1410
     54  CG        13.1430   -9.4780    4.1560 C.2   230  ASP230      0.3668
     55  OD1       13.6520   -9.4950    3.0070 O.co2 230  ASP230     -0.2456
     56  OD2       13.3460   -8.5450    4.9740 O.co2 230  ASP230     -0.2456
     57  N         16.7560  -11.9800    4.5710 N.3   264  GLU264     -0.1245
     58  CA        16.9240  -10.6150    4.0730 C.3   264  GLU264      0.1567
     59  C         18.3040  -10.3950    3.4540 C.2   264  GLU264      0.2260
     60  O         18.4460   -9.5980    2.5170 O.2   264  GLU264     -0.2867
     61  CB        16.5010   -9.5240    5.0870 C.3   264  GLU264      0.0388
     62  CG        17.5860   -8.8070    5.8600 C.3   264  GLU264      0.1160
     63  CD        18.4450   -7.8630    5.0390 C.2   264  GLU264      0.3649
     64  OE1       17.8930   -6.9440    4.4030 O.co2 264  GLU264     -0.2457
     65  OE2       19.6930   -8.0270    5.0660 O.co2 264  GLU264     -0.2457
     66  N         18.0440  -12.1240    0.0430 N.3   267  LYS267     -0.1231
     67  CA        17.3450  -11.1230   -0.7580 C.3   267  LYS267      0.1693
     68  C         18.2410  -10.0600   -1.3750 C.2   267  LYS267      0.2591
     69  O         18.0740   -9.7430   -2.5540 O.2   267  LYS267     -0.2718
     70  CB        16.2430  -10.4310    0.0520 C.3   267  LYS267      0.0285
     71  CG        15.5540   -9.2840   -0.7160 C.3   267  LYS267      0.0035
     72  CD        14.6860   -8.4390    0.1760 C.3   267  LYS267      0.0206
     73  CE        15.5190   -7.5030    1.0430 C.3   267  LYS267      0.1093
     74  NZ        14.5840   -6.7890    1.9640 N.3   267  LYS267     -0.1314
     75  N         19.1450   -9.4690   -0.5820 N.am  268  ARG268     -0.1980
     76  CA        20.0390   -8.4240   -1.0850 C.3   268  ARG268      0.1597
     77  C         21.0240   -8.9630   -2.1090 C.2   268  ARG268      0.2287
     78  O         21.3050   -8.2950   -3.1160 O.2   268  ARG268     -0.2864
     79  CB        20.7970   -7.7610    0.0490 C.3   268  ARG268      0.0334
     80  CG        19.9790   -6.7600    0.8540 C.3   268  ARG268      0.0492
     81  CD        20.8710   -6.0260    1.8700 C.3   268  ARG268      0.2205
     82  NE        21.0890   -6.8770    3.0360 N.pl3 268  ARG268     -0.0865
     83  CZ        22.2570   -7.3710    3.4410 C.cat 268  ARG268      0.5346
     84  NH1       23.3830   -7.0750    2.8150 N.pl3 268  ARG268      0.1354
     85  NH2       22.2890   -8.1510    4.5060 N.pl3 268  ARG268      0.1354
     86  N         19.7330   -9.2010   -5.5480 N.3   271  SER271     -0.1217
     87  CA        19.6050   -7.9700   -6.3270 C.3   271  SER271      0.1889
     88  C         20.7890   -7.7920   -7.2750 C.2   271  SER271      0.2288
     89  O         20.7240   -6.9910   -8.2080 O.2   271  SER271     -0.2866
     90  CB        19.4960   -6.7530   -5.4070 C.3   271  SER271      0.2089
     91  OG        18.1930   -6.6430   -4.8760 O.3   271  SER271     -0.2183
     92  N         15.6540    1.4360   -0.3270 N.3   335  GLY335     -0.1210
     93  CA        16.4440    0.2080   -0.5340 C.3   335  GLY335      0.1956
     94  C         15.7930   -0.8780   -1.3890 C.2   335  GLY335      0.2612
     95  O         16.4640   -1.5580   -2.1510 O.2   335  GLY335     -0.2717
     96  N         14.4750   -1.0270   -1.2830 N.am  336  SER336     -0.1952
     97  CA        13.7710   -2.0130   -2.0980 C.3   336  SER336      0.1924
     98  C         13.8020   -1.7480   -3.6200 C.2   336  SER336      0.2314
     99  O         13.6570   -2.6800   -4.4110 O.2   336  SER336     -0.2863
    100  CB        12.3650   -2.2190   -1.5750 C.3   336  SER336      0.2116
    101  OG        12.4360   -2.6490   -0.2340 O.3   336  SER336     -0.2180
    102  N         16.1960   -1.4060   -5.4140 N.3   338  ARG338     -0.1231
    103  CA        17.3360   -2.1280   -5.9460 C.3   338  ARG338      0.1694
    104  C         16.9600   -3.4970   -6.4960 C.2   338  ARG338      0.2591
    105  O         17.8270   -4.2040   -7.0170 O.2   338  ARG338     -0.2718
    106  CB        18.3270   -2.3860   -4.8340 C.3   338  ARG338      0.0321
    107  CG        18.9760   -1.1770   -4.2430 C.3   338  ARG338      0.0489
    108  CD        20.0710   -1.6260   -3.3130 C.3   338  ARG338      0.2205
    109  NE        20.8900   -0.5020   -2.8800 N.pl3 338  ARG338     -0.0865
    110  CZ        20.7510    0.1430   -1.7240 C.cat 338  ARG338      0.5346
    111  NH1       19.8180   -0.2140   -0.8380 N.pl3 338  ARG338      0.1354
    112  NH2       21.5710    1.1420   -1.4520 N.pl3 338  ARG338      0.1354
    113  N         15.7040   -3.9040   -6.3070 N.am  339  ILE339     -0.1980
    114  CA        15.2420   -5.1990   -6.7820 C.3   339  ILE339      0.1595
    115  C         15.0200   -5.0870   -8.2850 C.2   339  ILE339      0.2287
    116  O         14.2160   -4.2460   -8.7230 O.2   339  ILE339     -0.2864
    117  CB        13.9530   -5.6730   -6.0390 C.3   339  ILE339      0.0276
    118  CG1       14.2640   -5.9910   -4.5710 C.3   339  ILE339      0.0022
    119  CG2       13.3190   -6.8950   -6.7180 C.3   339  ILE339      0.0022
    120  CD1       13.0160   -6.0420   -3.6990 C.3   339  ILE339      0.0001
    121  N         19.0470    4.7110   -0.8740 N.3   362  ASP362     -0.1239
    122  CA        18.8830    4.9450    0.5650 C.3   362  ASP362      0.1674
    123  C         19.3350    6.3600    0.9320 C.2   362  ASP362      0.2266
    124  O         18.9810    6.8670    1.9920 O.2   362  ASP362     -0.2867
    125  CB        19.7220    3.9440    1.3770 C.3   362  ASP362      0.1410
    126  CG        19.2830    2.5130    1.1770 C.2   362  ASP362      0.3668
    127  OD1       18.0780    2.2320    1.3220 O.co2 362  ASP362     -0.2456
    128  OD2       20.1450    1.6540    0.9020 O.co2 362  ASP362     -0.2456
@<TRIPOS>BOND
     1   116   115    2
     2   115   114    1
     3    89    88    2
     4    88    87    1
     5   105   104    2
     6   114   113    1
     7   114   117    1
     8   119   117    1
     9   104   113   am
    10   104   103    1
    11    87    86    1
    12    87    90    1
    13   117   118    1
    14   103   102    1
    15   103   106    1
    16    90    91    1
    17   106   107    1
    18   118   120    1
    19    99    98    2
    20   107   108    1
    21    98    97    1
    22   108   109    1
    23    78    77    2
    24   109   110    2
    25    69    68    2
    26    95    94    2
    27    77    76    1
    28    97   100    1
    29    97    96    1
    30   110   112    1
    31   110   111    1
    32   100   101    1
    33    94    96   am
    34    94    93    1
    35    68    67    1
    36    68    75   am
    37    76    75    1
    38    76    79    1
    39   121   122    1
    40    67    66    1
    41    67    70    1
    42    71    70    1
    43    71    72    1
    44    93    92    1
    45    79    80    1
    46    72    73    1
    47   122   123    1
    48   122   125    1
    49    28    29    1
    50    80    81    1
    51   128   126   ar
    52   123   124    2
    53    73    74    1
    54   126   127   ar
    55   126   125    1
    56    31    30    2
    57    29    30    1
    58    81    82    1
    59    37    36    1
    60    37    38    1
    61    30    32   am
    62    60    59    2
    63    49    50    1
    64    84    83    1
    65    39    38    2
    66    55    54   ar
    67    82    83    2
    68    38    40   am
    69    32    33    1
    70    50    51    1
    71    50    53    1
    72    83    85    1
    73    59    58    1
    74    52    51    2
    75    58    57    1
    76    58    61    1
    77    54    53    1
    78    54    56   ar
    79    40    41    1
    80    33    34    1
    81    64    63   ar
    82    34    35    2
    83    42    43    2
    84    42    41    1
    85    63    65   ar
    86    63    62    1
    87    61    62    1
    88    41    44    1
    89    27    25    1
    90    44    45    1
    91    26    25    1
    92    25    22    1
    93    21    22    1
    94    22    23    1
    95    47    46   ar
    96    45    46    1
    97     4     3    2
    98     5     6    1
    99     5     2    1
   100     7     6   ar
   101     7     9   ar
   102    15    14    1
   103    15    16    2
   104    46    48   ar
   105     6     8   ar
   106     9    11   ar
   107     3     2    1
   108    14    17    1
   109    14    13    1
   110    23    24    2
   111     2     1    1
   112     8    10   ar
   113    11    10   ar
   114    11    12    1
   115    19    18    2
   116    17    18    1
   117    18    20   am
