@<TRIPOS>MOLECULE
tmp/3fznD00.pdb
 85 80 0 0 0
SMALL
GASTEIGER

@<TRIPOS>ATOM
      1  N        105.1490   72.0260   54.7750 N.3    22  ASN22      -0.1226
      2  CA       104.9120   73.5000   54.8740 C.3    22  ASN22       0.1770
      3  C        105.6880   73.9650   56.1270 C.2    22  ASN22       0.2439
      4  O        105.4130   73.4870   57.2180 O.2    22  ASN22      -0.2733
      5  CB       103.3990   73.8560   54.9610 C.3    22  ASN22       0.1168
      6  CG       103.1460   75.3700   54.9980 C.2    22  ASN22       0.2627
      7  OD1      103.0430   75.9750   56.0740 O.2    22  ASN22      -0.2716
      8  ND2      103.0970   76.0020   53.8080 N.am   22  ASN22      -0.0877
      9  N        106.7110   74.8280   55.9550 N.am   23  PRO23      -0.2718
     10  CA       107.6990   75.0720   57.0180 C.3    23  PRO23       0.1535
     11  C        107.2790   76.0830   58.0850 C.2    23  PRO23       0.2599
     12  O        106.3190   76.8060   57.9050 O.2    23  PRO23      -0.2715
     13  CB       108.9020   75.6210   56.2470 C.3    23  PRO23       0.0310
     14  CG       108.3090   76.3000   55.0660 C.3    23  PRO23       0.0237
     15  CD       107.0360   75.5680   54.7200 C.3    23  PRO23       0.0939
     16  N        108.0370   76.1110   59.1870 N.am   24  GLY24      -0.1941
     17  CA       107.8580   77.0960   60.2800 C.3    24  GLY24       0.2014
     18  C        109.0860   77.0660   61.1800 C.2    24  GLY24       0.2639
     19  O        109.9870   76.2250   60.9970 O.2    24  GLY24      -0.2714
     20  N        109.0910   77.9500   62.1880 N.am   25  SER25      -0.1949
     21  CA       110.2500   78.1560   63.0320 C.3    25  SER25       0.1924
     22  C        110.6620   76.8950   63.7940 C.2    25  SER25       0.2314
     23  O        111.8540   76.5590   63.8570 O.2    25  SER25      -0.2863
     24  CB       110.0180   79.3490   64.0050 C.3    25  SER25       0.2116
     25  OG       108.8860   79.1370   64.8270 O.3    25  SER25      -0.2180
     26  N        112.9280   74.6050   61.5080 N.3    28  LEU28      -0.1245
     27  CA       114.1510   75.0790   60.8550 C.3    28  LEU28       0.1561
     28  C        115.4220   74.2920   61.2430 C.2    28  LEU28       0.2260
     29  O        116.2780   74.0780   60.3900 O.2    28  LEU28      -0.2867
     30  CB       114.3590   76.5740   61.1330 C.3    28  LEU28       0.0270
     31  CG       113.3670   77.5400   60.4900 C.3    28  LEU28       0.0019
     32  CD1      113.6220   78.9330   61.0660 C.3    28  LEU28       0.0001
     33  CD2      113.4870   77.5410   58.9860 C.3    28  LEU28       0.0001
     34  N         98.2830   72.8180   54.7650 N.3    46  GLU46      -0.1245
     35  CA        98.6060   71.4850   55.2080 C.3    46  GLU46       0.1567
     36  C         97.6780   70.3550   54.7450 C.2    46  GLU46       0.2260
     37  O         98.1380   69.1950   54.5990 O.2    46  GLU46      -0.2867
     38  CB        98.8370   71.4800   56.7190 C.3    46  GLU46       0.0388
     39  CG       100.0390   72.3520   57.1530 C.3    46  GLU46       0.1160
     40  CD        99.7150   73.8360   57.3870 C.2    46  GLU46       0.3649
     41  OE1       98.5650   74.2910   57.1080 O.co2  46  GLU46      -0.2457
     42  OE2      100.6670   74.5500   57.7920 O.co2  46  GLU46      -0.2457
     43  N        104.0110   72.1640   60.8900 N.3    69  HIS69      -0.1241
     44  CA       104.2950   73.1700   61.9360 C.3    69  HIS69       0.1621
     45  C        103.3690   73.0960   63.1430 C.2    69  HIS69       0.2264
     46  O        102.2320   73.6120   63.1120 O.2    69  HIS69      -0.2867
     47  CB       104.2270   74.5890   61.3370 C.3    69  HIS69       0.0745
     48  CG       104.6450   75.6700   62.2900 C.ar   69  HIS69       0.0817
     49  ND1      105.8840   75.6780   62.9060 N.ar   69  HIS69      -0.2268
     50  CD2      104.0000   76.7790   62.7230 C.ar   69  HIS69       0.1154
     51  CE1      105.9740   76.7490   63.6790 C.ar   69  HIS69       0.1986
     52  NE2      104.8480   77.4370   63.5780 N.ar   69  HIS69      -0.2212
     53  N         98.8930   74.1280   64.8230 N.3    72  ALA72      -0.1231
     54  CA        98.1750   74.7930   63.7130 C.3    72  ALA72       0.1694
     55  C         98.3360   74.0240   62.3910 C.2    72  ALA72       0.2592
     56  O         97.3670   73.7700   61.6740 O.2    72  ALA72      -0.2718
     57  CB        98.6650   76.2350   63.5590 C.3    72  ALA72       0.0304
     58  N         99.5640   73.6480   62.0620 N.am   73  GLY73      -0.1957
     59  CA        99.7930   72.8300   60.8720 C.3    73  GLY73       0.1869
     60  C         99.1840   71.4270   60.9350 C.2    73  GLY73       0.2309
     61  O         98.5850   70.9410   59.9840 O.2    73  GLY73      -0.2863
     62  N         95.3260   71.7720   60.6630 N.3    76  ASN76      -0.1240
     63  CA        94.8710   72.0740   59.2940 C.3    76  ASN76       0.1653
     64  C         94.8480   70.7990   58.4210 C.2    76  ASN76       0.2266
     65  O         94.1350   70.7490   57.4190 O.2    76  ASN76      -0.2867
     66  CB        95.7730   73.1090   58.5910 C.3    76  ASN76       0.1155
     67  CG        95.4790   74.5520   58.9740 C.2    76  ASN76       0.2627
     68  OD1       94.4310   74.8700   59.5390 O.2    76  ASN76      -0.2716
     69  ND2       96.4140   75.4580   58.6180 N.am   76  ASN76      -0.0877
     70  N        103.8400   80.8730   72.6810 N.3   108  LEU108     -0.1231
     71  CA       103.2600   80.7450   71.3600 C.3   108  LEU108      0.1693
     72  C        103.9540   79.5920   70.5840 C.2   108  LEU108      0.2591
     73  O        105.1900   79.4580   70.6650 O.2   108  LEU108     -0.2718
     74  CB       103.3740   82.0950   70.6020 C.3   108  LEU108      0.0284
     75  CG       102.3970   82.2970   69.4370 C.3   108  LEU108      0.0019
     76  CD1      100.9920   82.6270   69.9530 C.3   108  LEU108      0.0001
     77  CD2      102.8900   83.3420   68.4580 C.3   108  LEU108      0.0001
     78  N        103.1550   78.8120   69.8470 N.am  109  LEU109     -0.1980
     79  CA       103.5800   77.6470   69.0170 C.3   109  LEU109      0.1596
     80  C        103.9180   76.3700   69.8220 C.2   109  LEU109      0.2287
     81  O        104.4160   75.3720   69.2560 O.2   109  LEU109     -0.2864
     82  CB       104.7410   78.0230   68.0890 C.3   109  LEU109      0.0297
     83  CG       104.5660   79.3040   67.2440 C.3   109  LEU109      0.0022
     84  CD1      105.8090   79.5460   66.3900 C.3   109  LEU109      0.0001
     85  CD2      103.3220   79.2350   66.3870 C.3   109  LEU109      0.0001
@<TRIPOS>BOND
     1     8     6   am
     2    37    36    2
     3    15    14    1
     4    15     9    1
     5    36    35    1
     6    34    35    1
     7     1     2    1
     8     2     5    1
     9     2     3    1
    10     5     6    1
    11     6     7    2
    12    14    13    1
    13    35    38    1
    14     9     3   am
    15     9    10    1
    16     3     4    2
    17    13    10    1
    18    38    39    1
    19    10    11    1
    20    41    40   ar
    21    39    40    1
    22    40    42   ar
    23    65    64    2
    24    12    11    2
    25    11    16   am
    26    64    63    1
    27    66    67    1
    28    66    63    1
    29    69    67   am
    30    67    68    2
    31    33    31    1
    32    16    17    1
    33    63    62    1
    34    61    60    2
    35    17    18    1
    36    29    28    2
    37    31    32    1
    38    31    30    1
    39    27    30    1
    40    27    28    1
    41    27    26    1
    42    59    60    1
    43    59    58    1
    44    43    44    1
    45    19    18    2
    46    18    20   am
    47    47    44    1
    48    47    48    1
    49    56    55    2
    50    44    45    1
    51    58    55   am
    52    20    21    1
    53    48    50   ar
    54    48    49   ar
    55    55    54    1
    56    50    52   ar
    57    49    51   ar
    58    21    22    1
    59    21    24    1
    60    46    45    2
    61    57    54    1
    62    52    51   ar
    63    54    53    1
    64    22    23    2
    65    24    25    1
    66    85    83    1
    67    84    83    1
    68    83    82    1
    69    82    79    1
    70    77    75    1
    71    79    80    1
    72    79    78    1
    73    81    80    2
    74    75    76    1
    75    75    74    1
    76    78    72   am
    77    72    73    2
    78    72    71    1
    79    74    71    1
    80    71    70    1
