@<TRIPOS>MOLECULE
tmp/3fznD01.pdb
 167 163 0 0 0
SMALL
GASTEIGER

@<TRIPOS>ATOM
      1  N         76.8760   53.4120   53.1400 N.3   280  HIS280     -0.1241
      2  CA        76.8410   54.8750   53.1200 C.3   280  HIS280      0.1621
      3  C         75.3890   55.3300   53.3720 C.2   280  HIS280      0.2264
      4  O         75.0480   55.7560   54.4940 O.2   280  HIS280     -0.2867
      5  CB        77.4500   55.3990   51.7830 C.3   280  HIS280      0.0745
      6  CG        77.4830   56.8940   51.6280 C.ar  280  HIS280      0.0817
      7  ND1       78.0810   57.5040   50.5390 N.ar  280  HIS280     -0.2268
      8  CD2       77.0210   57.9010   52.4080 C.ar  280  HIS280      0.1154
      9  CE1       77.9690   58.8160   50.6520 C.ar  280  HIS280      0.1986
     10  NE2       77.3330   59.0850   51.7780 N.ar  280  HIS280     -0.2212
     11  N         86.5680   62.9480   42.3560 N.3   374  GLU374     -0.1231
     12  CA        85.8740   63.7050   43.4170 C.3   374  GLU374      0.1699
     13  C         84.6990   64.5170   42.8370 C.2   374  GLU374      0.2593
     14  O         84.4490   65.6910   43.2050 O.2   374  GLU374     -0.2718
     15  CB        86.8600   64.5620   44.2190 C.3   374  GLU374      0.0402
     16  CG        86.4350   64.8440   45.6500 C.3   374  GLU374      0.1161
     17  CD        87.6000   65.3260   46.5120 C.2   374  GLU374      0.3649
     18  OE1       88.3820   64.4680   47.0150 O.co2 374  GLU374     -0.2457
     19  OE2       87.7270   66.5650   46.7070 O.co2 374  GLU374     -0.2457
     20  N         84.0070   63.8520   41.9140 N.am  375  SER375     -0.1938
     21  CA        82.7730   64.3270   41.2900 C.3   375  SER375      0.2055
     22  C         81.6340   63.4760   41.8910 C.2   375  SER375      0.2644
     23  O         81.3120   62.4020   41.3860 O.2   375  SER375     -0.2714
     24  CB        82.8980   64.1390   39.7780 C.3   375  SER375      0.2130
     25  OG        81.7640   64.6120   39.0760 O.3   375  SER375     -0.2179
     26  N         81.0470   63.9450   42.9930 N.am  376  THR376     -0.1936
     27  CA        80.3390   63.0040   43.8860 C.3   376  THR376      0.2028
     28  C         78.9750   62.4970   43.3920 C.2   376  THR376      0.2643
     29  O         78.4750   61.4350   43.8640 O.2   376  THR376     -0.2714
     30  CB        80.2160   63.6050   45.3230 C.3   376  THR376      0.1808
     31  OG1       79.8490   64.9880   45.2290 O.3   376  THR376     -0.2208
     32  CG2       81.5430   63.4930   46.0800 C.3   376  THR376      0.0379
     33  N         78.3420   63.2070   42.4590 N.am  377  SER377     -0.1935
     34  CA        77.0550   62.7690   41.9380 C.3   377  SER377      0.2055
     35  C         77.1940   61.8720   40.6780 C.2   377  SER377      0.2643
     36  O         76.1800   61.3900   40.1810 O.2   377  SER377     -0.2714
     37  CB        76.1370   63.9640   41.6560 C.3   377  SER377      0.2130
     38  OG        76.5220   64.6700   40.4700 O.3   377  SER377     -0.2179
     39  N         78.4230   61.6470   40.1850 N.am  378  THR378     -0.1950
     40  CA        78.6500   60.9320   38.8830 C.3   378  THR378      0.1897
     41  C         79.4770   59.6040   38.9730 C.2   378  THR378      0.2313
     42  O         79.8350   59.0010   37.9420 O.2   378  THR378     -0.2863
     43  CB        79.3030   61.9020   37.8610 C.3   378  THR378      0.1794
     44  OG1       80.6190   62.2600   38.2810 O.3   378  THR378     -0.2208
     45  CG2       78.4610   63.1680   37.7220 C.3   378  THR378      0.0378
     46  N         89.8520   57.4690   45.0460 N.3   396  PHE396     -0.1227
     47  CA        88.6460   58.2030   45.5370 C.3   396  PHE396      0.1736
     48  C         88.7960   58.3460   47.0400 C.2   396  PHE396      0.2595
     49  O         89.2220   57.3660   47.6890 O.2   396  PHE396     -0.2718
     50  CB        87.3830   57.3650   45.2200 C.3   396  PHE396      0.0547
     51  CG        86.1330   57.7770   45.9780 C.ar  396  PHE396     -0.0202
     52  CD1       85.3230   58.7910   45.4870 C.ar  396  PHE396     -0.0042
     53  CD2       85.7510   57.1080   47.1660 C.ar  396  PHE396     -0.0042
     54  CE1       84.1440   59.1780   46.1630 C.ar  396  PHE396     -0.0003
     55  CE2       84.5730   57.4810   47.8500 C.ar  396  PHE396     -0.0003
     56  CZ        83.7780   58.5100   47.3470 C.ar  396  PHE396     -0.0000
     57  N         88.4200   59.5070   47.6010 N.am  397  CYS397     -0.1970
     58  CA        88.5990   59.7790   49.0250 C.3   397  CYS397      0.1712
     59  C         88.0760   58.6570   49.9280 C.2   397  CYS397      0.2296
     60  O         86.8500   58.4380   49.9980 O.2   397  CYS397     -0.2864
     61  CB        87.9610   61.1280   49.3900 C.3   397  CYS397      0.0983
     62  SG        86.2480   61.4130   48.7760 S.3   397  CYS397     -0.0798
     63  N         85.5610   59.6140   52.5470 N.3   400  GLY400     -0.1210
     64  CA        84.5230   60.5180   52.0570 C.3   400  GLY400      0.1956
     65  C         84.8010   61.9960   52.3110 C.2   400  GLY400      0.2612
     66  O         83.9110   62.8460   52.1260 O.2   400  GLY400     -0.2717
     67  N         86.0390   62.3110   52.6860 N.am  401  GLY401     -0.1942
     68  CA        86.4380   63.6790   52.9940 C.3   401  GLY401      0.2014
     69  C         86.8920   64.4470   51.7680 C.2   401  GLY401      0.2638
     70  O         87.9200   64.1340   51.1610 O.2   401  GLY401     -0.2714
     71  N         86.1360   65.4690   51.4120 N.am  402  LEU402     -0.1977
     72  CA        86.4780   66.2650   50.2260 C.3   402  LEU402      0.1596
     73  C         87.7620   67.0810   50.4640 C.2   402  LEU402      0.2287
     74  O         88.0980   67.4160   51.6050 O.2   402  LEU402     -0.2864
     75  CB        85.2820   67.1320   49.8100 C.3   402  LEU402      0.0297
     76  CG        83.9590   66.3870   49.6110 C.3   402  LEU402      0.0022
     77  CD1       82.8690   67.3590   49.1550 C.3   402  LEU402      0.0001
     78  CD2       84.1030   65.2080   48.6140 C.3   402  LEU402      0.0001
     79  N         84.4610   67.7010   41.1180 N.3   426  GLY426     -0.1210
     80  CA        83.3020   68.6120   41.0470 C.3   426  GLY426      0.1956
     81  C         83.6040   70.0630   41.4190 C.2   426  GLY426      0.2612
     82  O         84.6510   70.3470   42.0260 O.2   426  GLY426     -0.2717
     83  N         82.7110   70.9930   41.0250 N.am  427  ASP427     -0.1959
     84  CA        82.8870   72.4290   41.3330 C.3   427  ASP427      0.1840
     85  C         82.8940   72.7020   42.8430 C.2   427  ASP427      0.2623
     86  O         83.6810   73.4980   43.3250 O.2   427  ASP427     -0.2715
     87  CB        81.8770   73.3750   40.6060 C.3   427  ASP427      0.1450
     88  CG        80.3940   73.0410   40.8630 C.2   427  ASP427      0.3671
     89  OD1       80.0500   71.8500   41.0600 O.co2 427  ASP427     -0.2456
     90  OD2       79.5410   73.9860   40.8350 O.co2 427  ASP427     -0.2456
     91  N         82.0580   72.0010   43.5910 N.am  428  GLY428     -0.1940
     92  CA        82.0750   72.1570   45.0560 C.3   428  GLY428      0.2014
     93  C         83.3740   71.6310   45.6720 C.2   428  GLY428      0.2639
     94  O         84.0470   72.3210   46.4380 O.2   428  GLY428     -0.2714
     95  N         83.7490   70.4100   45.2810 N.am  429  SER429     -0.1949
     96  CA        84.9190   69.7190   45.8520 C.3   429  SER429      0.1924
     97  C         86.2390   70.4440   45.5700 C.2   429  SER429      0.2314
     98  O         87.1970   70.3400   46.3120 O.2   429  SER429     -0.2863
     99  CB        84.9950   68.2970   45.2920 C.3   429  SER429      0.2116
    100  OG        83.9560   67.5030   45.8440 O.3   429  SER429     -0.2180
    101  N         87.9900   72.9410   48.4020 N.3   432  TYR432     -0.1241
    102  CA        88.5130   72.5180   49.6990 C.3   432  TYR432      0.1605
    103  C         90.0500   72.6140   49.7670 C.2   432  TYR432      0.2264
    104  O         90.6010   73.1290   50.7670 O.2   432  TYR432     -0.2867
    105  CB        87.9910   71.1190   50.0980 C.3   432  TYR432      0.0534
    106  CG        86.4820   71.0630   50.3740 C.ar  432  TYR432     -0.0201
    107  CD1       85.5790   70.8440   49.3560 C.ar  432  TYR432     -0.0009
    108  CD2       85.9650   71.2440   51.6630 C.ar  432  TYR432     -0.0009
    109  CE1       84.1710   70.8080   49.6040 C.ar  432  TYR432      0.0417
    110  CE2       84.5650   71.1880   51.9220 C.ar  432  TYR432      0.0417
    111  CZ        83.6790   70.9950   50.8910 C.ar  432  TYR432      0.1957
    112  OH        82.3100   70.9310   51.1010 O.3   432  TYR432     -0.2866
    113  N         78.5880   72.0590   37.5710 N.3   454  ASN454     -0.1240
    114  CA        77.1040   72.0460   37.5520 C.3   454  ASN454      0.1653
    115  C         76.4210   73.1210   38.4470 C.2   454  ASN454      0.2266
    116  O         75.1960   73.1370   38.5730 O.2   454  ASN454     -0.2867
    117  CB        76.5600   70.6270   37.8510 C.3   454  ASN454      0.1155
    118  CG        76.9360   70.1190   39.2390 C.2   454  ASN454      0.2627
    119  OD1       77.4580   70.8720   40.0450 O.2   454  ASN454     -0.2716
    120  ND2       76.6600   68.8360   39.5070 N.am  454  ASN454     -0.0877
    121  N         76.3860   73.4990   41.7310 N.3   456  THR456     -0.1203
    122  CA        75.7220   73.0180   42.9500 C.3   456  THR456      0.1994
    123  C         76.4490   71.8710   43.6200 C.2   456  THR456      0.2618
    124  O         77.3030   71.2180   43.0150 O.2   456  THR456     -0.2717
    125  CB        74.2430   72.5970   42.6250 C.3   456  THR456      0.1784
    126  OG1       73.5000   72.3110   43.8250 O.3   456  THR456     -0.2211
    127  CG2       74.2110   71.3690   41.7160 C.3   456  THR456      0.0376
    128  N         76.1020   71.6460   44.8830 N.am  457  TYR457     -0.1961
    129  CA        76.4880   70.4370   45.5930 C.3   457  TYR457      0.1771
    130  C         75.4770   69.3390   45.1820 C.2   457  TYR457      0.2620
    131  O         74.5060   69.0570   45.9000 O.2   457  TYR457     -0.2715
    132  CB        76.4520   70.6790   47.1070 C.3   457  TYR457      0.0574
    133  CG        77.5270   71.5820   47.7000 C.ar  457  TYR457     -0.0198
    134  CD1       78.8760   71.4830   47.3120 C.ar  457  TYR457     -0.0009
    135  CD2       77.2120   72.4570   48.7670 C.ar  457  TYR457     -0.0009
    136  CE1       79.8550   72.2730   47.9160 C.ar  457  TYR457      0.0417
    137  CE2       78.1790   73.2560   49.3670 C.ar  457  TYR457      0.0417
    138  CZ        79.5050   73.1710   48.9520 C.ar  457  TYR457      0.1957
    139  OH        80.4790   73.9550   49.5560 O.3   457  TYR457     -0.2866
    140  N         75.6850   68.7460   43.9950 N.am  458  GLY458     -0.1940
    141  CA        74.6780   67.8890   43.3570 C.3   458  GLY458      0.2014
    142  C         74.2420   66.6830   44.1730 C.2   458  GLY458      0.2639
    143  O         73.0340   66.3550   44.2670 O.2   458  GLY458     -0.2714
    144  N         75.2370   66.0080   44.7490 N.am  459  ALA459     -0.1963
    145  CA        75.0000   64.7980   45.5230 C.3   459  ALA459      0.1728
    146  C         74.1290   65.1060   46.7400 C.2   459  ALA459      0.2616
    147  O         73.2940   64.2700   47.1340 O.2   459  ALA459     -0.2715
    148  CB        76.3310   64.1320   45.9360 C.3   459  ALA459      0.0334
    149  N         74.3030   66.3020   47.3110 N.am  460  LEU460     -0.1977
    150  CA        73.4870   66.7240   48.4700 C.3   460  LEU460      0.1596
    151  C         72.0440   66.9930   48.1060 C.2   460  LEU460      0.2287
    152  O         71.1280   66.5860   48.8350 O.2   460  LEU460     -0.2864
    153  CB        74.0730   67.9370   49.1800 C.3   460  LEU460      0.0297
    154  CG        75.2830   67.6700   50.0720 C.3   460  LEU460      0.0022
    155  CD1       75.6340   68.9270   50.8680 C.3   460  LEU460      0.0001
    156  CD2       75.0280   66.5050   51.0350 C.3   460  LEU460      0.0001
    157  N         70.4840   63.5190   47.9400 N.3   463  PHE463     -0.1241
    158  CA        70.2100   62.9330   49.2670 C.3   463  PHE463      0.1605
    159  C         69.0000   63.6210   49.9180 C.2   463  PHE463      0.2264
    160  O         68.2290   62.9790   50.6340 O.2   463  PHE463     -0.2867
    161  CB        71.4270   63.0230   50.2050 C.3   463  PHE463      0.0534
    162  CG        72.3200   61.7910   50.2000 C.ar  463  PHE463     -0.0203
    163  CD1       73.0920   61.4710   49.0880 C.ar  463  PHE463     -0.0042
    164  CD2       72.4120   60.9740   51.3250 C.ar  463  PHE463     -0.0042
    165  CE1       73.9260   60.3480   49.0880 C.ar  463  PHE463     -0.0003
    166  CE2       73.2470   59.8520   51.3370 C.ar  463  PHE463     -0.0003
    167  CZ        74.0030   59.5380   50.2180 C.ar  463  PHE463     -0.0000
@<TRIPOS>BOND
     1   114   113    1
     2   114   117    1
     3   114   115    1
     4    45    43    1
     5   117   118    1
     6    43    44    1
     7    43    40    1
     8    42    41    2
     9   115   116    2
    10    40    41    1
    11    40    39    1
    12    25    24    1
    13   118   120   am
    14   118   119    2
    15    24    21    1
    16    36    35    2
    17    39    35   am
    18    38    37    1
    19    87    88    1
    20    87    84    1
    21    35    34    1
    22    90    88   ar
    23    88    89   ar
    24    83    84    1
    25    83    81   am
    26    80    79    1
    27    80    81    1
    28    21    22    1
    29    21    20    1
    30    84    85    1
    31    23    22    2
    32    81    82    2
    33    37    34    1
    34   127   125    1
    35   121   122    1
    36    22    26   am
    37    20    13   am
    38    34    33    1
    39    11    12    1
    40    33    28   am
    41   125   122    1
    42   125   126    1
    43    13    14    2
    44    13    12    1
    45    85    86    2
    46    85    91   am
    47   122   123    1
    48    26    27    1
    49   124   123    2
    50   141   140    1
    51   141   142    1
    52    28    29    2
    53    28    27    1
    54    12    15    1
    55    91    92    1
    56   123   128   am
    57    27    30    1
    58   140   130   am
    59   142   143    2
    60   142   144   am
    61    15    16    1
    62   144   145    1
    63   128   129    1
    64    46    47    1
    65    92    93    1
    66   130   129    1
    67   130   131    2
    68    50    47    1
    69    50    51    1
    70    31    30    1
    71    95    93   am
    72    95    96    1
    73    99   100    1
    74    99    96    1
    75    30    32    1
    76    52    51   ar
    77    52    54   ar
    78   145   148    1
    79   145   146    1
    80    47    48    1
    81    97    96    1
    82    97    98    2
    83   129   132    1
    84    16    17    1
    85    93    94    2
    86    51    53   ar
    87    54    56   ar
    88    17    19   ar
    89    17    18   ar
    90   146   147    2
    91   146   149   am
    92    48    57   am
    93    48    49    2
    94   132   133    1
    95    53    55   ar
    96   149   150    1
    97   134   133   ar
    98   134   136   ar
    99    56    55   ar
   100    57    58    1
   101   133   135   ar
   102   136   138   ar
   103   157   158    1
   104   151   150    1
   105   151   152    2
   106   101   102    1
   107   150   153    1
   108    78    76    1
   109   135   137   ar
   110    62    61    1
   111   138   137   ar
   112   138   139    1
   113    58    61    1
   114    58    59    1
   115   163   165   ar
   116   163   162   ar
   117   165   167   ar
   118    77    76    1
   119   153   154    1
   120   158   159    1
   121   158   161    1
   122   107   109   ar
   123   107   106   ar
   124   109   111   ar
   125    76    75    1
   126   102   103    1
   127   102   105    1
   128   103   104    2
   129    75    72    1
   130   159   160    2
   131    59    60    2
   132   154   155    1
   133   154   156    1
   134   105   106    1
   135   162   161    1
   136   162   164   ar
   137   167   166   ar
   138    72    73    1
   139    72    71    1
   140   106   108   ar
   141    73    74    2
   142     7     9   ar
   143     7     6   ar
   144     9    10   ar
   145   111   112    1
   146   111   110   ar
   147    70    69    2
   148   164   166   ar
   149    71    69   am
   150     6     5    1
   151     6     8   ar
   152   108   110   ar
   153    69    68    1
   154    10     8   ar
   155     5     2    1
   156    64    65    1
   157    64    63    1
   158    66    65    2
   159    65    67   am
   160    67    68    1
   161     2     1    1
   162     2     3    1
   163     3     4    2
