@<TRIPOS>MOLECULE
tmp/3fzpA00.pdb
 210 202 0 0 0
SMALL
GASTEIGER

@<TRIPOS>ATOM
      1  N         15.9580  -17.9660    2.6980 N.3    13  LEU13      -0.1231
      2  CA        16.5590  -16.6290    2.6830 C.3    13  LEU13       0.1693
      3  C         17.4970  -16.4420    3.9040 C.2    13  LEU13       0.2593
      4  O         18.5650  -15.8630    3.7830 O.2    13  LEU13      -0.2718
      5  CB        15.5150  -15.5150    2.6980 C.3    13  LEU13       0.0284
      6  CG        14.9740  -14.7770    1.4980 C.3    13  LEU13       0.0019
      7  CD1       13.9130  -13.7590    1.9360 C.3    13  LEU13       0.0001
      8  CD2       16.0990  -14.0700    0.6450 C.3    13  LEU13       0.0001
      9  N         17.0670  -16.8670    5.0710 N.am   14  GLY14      -0.1942
     10  CA        17.8850  -16.6730    6.2360 C.3    14  GLY14       0.2014
     11  C         17.1160  -16.8150    7.5520 C.2    14  GLY14       0.2639
     12  O         15.8890  -16.7500    7.5740 O.2    14  GLY14      -0.2714
     13  N         17.8650  -17.0090    8.6370 N.am   15  GLU15      -0.1963
     14  CA        17.3100  -17.1280    9.9800 C.3    15  GLU15       0.1733
     15  C         16.9000  -15.7890   10.5880 C.2    15  GLU15       0.2617
     16  O         17.7460  -14.9120   10.8020 O.2    15  GLU15      -0.2715
     17  CB        18.3210  -17.7830   10.9170 C.3    15  GLU15       0.0429
     18  CG        18.0250  -19.1970   11.2910 C.3    15  GLU15       0.1163
     19  CD        16.6550  -19.4130   11.9760 C.2    15  GLU15       0.3649
     20  OE1       16.2270  -18.5320   12.7740 O.co2  15  GLU15      -0.2457
     21  OE2       16.0390  -20.4940   11.7310 O.co2  15  GLU15      -0.2457
     22  N         15.6150  -15.6350   10.8590 N.am   16  GLY16      -0.1940
     23  CA        15.1410  -14.5120   11.6810 C.3    16  GLY16       0.2014
     24  C         15.0040  -14.9160   13.1620 C.2    16  GLY16       0.2639
     25  O         15.1220  -16.1050   13.4950 O.2    16  GLY16      -0.2714
     26  N         14.7360  -13.9570   14.0500 N.am   17  PHE17      -0.1959
     27  CA        14.7480  -14.2480   15.4930 C.3    17  PHE17       0.1771
     28  C         13.8520  -15.4210   15.7880 C.2    17  PHE17       0.2620
     29  O         14.2700  -16.4160   16.3740 O.2    17  PHE17      -0.2715
     30  CB        14.2980  -13.0300   16.3320 C.3    17  PHE17       0.0574
     31  CG        14.4000  -13.2450   17.8300 C.ar   17  PHE17      -0.0200
     32  CD1       15.1650  -12.3830   18.6170 C.ar   17  PHE17      -0.0042
     33  CD2       13.7570  -14.3300   18.4520 C.ar   17  PHE17      -0.0042
     34  CE1       15.2410  -12.6000   20.0470 C.ar   17  PHE17      -0.0003
     35  CE2       13.8420  -14.5730   19.8610 C.ar   17  PHE17      -0.0003
     36  CZ        14.5720  -13.7150   20.6470 C.ar   17  PHE17      -0.0000
     37  N         12.6090  -15.3280   15.3610 N.am   18  PHE18      -0.1960
     38  CA        11.6590  -16.3970   15.5990 C.3    18  PHE18       0.1771
     39  C         11.7530  -17.6200   14.6940 C.2    18  PHE18       0.2620
     40  O         11.0030  -18.5930   14.9030 O.2    18  PHE18      -0.2715
     41  CB        10.2560  -15.8380   15.4790 C.3    18  PHE18       0.0574
     42  CG        10.0040  -14.6310   16.3430 C.ar   18  PHE18      -0.0200
     43  CD1       10.2840  -13.3610   15.8750 C.ar   18  PHE18      -0.0042
     44  CD2        9.4780  -14.7780   17.6190 C.ar   18  PHE18      -0.0042
     45  CE1       10.0260  -12.2540   16.6650 C.ar   18  PHE18      -0.0003
     46  CE2        9.2300  -13.6950   18.3990 C.ar   18  PHE18      -0.0003
     47  CZ         9.4750  -12.4230   17.9140 C.ar   18  PHE18      -0.0000
     48  N         12.5610  -17.5670   13.6350 N.am   19  GLY19      -0.1954
     49  CA        12.5160  -18.6860   12.6990 C.3    19  GLY19       0.1869
     50  C         13.0000  -18.3740   11.2990 C.2    19  GLY19       0.2309
     51  O         13.4320  -17.2450   11.0020 O.2    19  GLY19      -0.2863
     52  N         13.4310  -17.5660    7.3030 N.3    21  VAL21      -0.1245
     53  CA        12.7760  -16.7790    6.2880 C.3    21  VAL21       0.1561
     54  C         13.0870  -17.3730    4.9690 C.2    21  VAL21       0.2260
     55  O         14.2040  -17.7630    4.7340 O.2    21  VAL21      -0.2867
     56  CB        13.1870  -15.2850    6.2960 C.3    21  VAL21       0.0252
     57  CG1       12.3780  -14.5090    5.2920 C.3    21  VAL21       0.0019
     58  CG2       12.9620  -14.6890    7.6890 C.3    21  VAL21       0.0019
     59  N          9.1140  -12.6460    0.5090 N.3    37  ALA37      -0.1245
     60  CA         9.8400  -13.3260    1.5620 C.3    37  ALA37       0.1562
     61  C          8.8260  -13.8670    2.5660 C.2    37  ALA37       0.2260
     62  O          7.8800  -13.1790    2.9260 O.2    37  ALA37      -0.2867
     63  CB        10.8700  -12.3700    2.2710 C.3    37  ALA37       0.0290
     64  N          8.1130  -15.0920    6.2160 N.3    39  LYS39      -0.1231
     65  CA         8.6050  -15.3360    7.5910 C.3    39  LYS39       0.1693
     66  C          7.8320  -16.4090    8.3120 C.2    39  LYS39       0.2592
     67  O          6.6190  -16.5050    8.2460 O.2    39  LYS39      -0.2718
     68  CB         8.6660  -14.0790    8.4410 C.3    39  LYS39       0.0285
     69  CG         9.1620  -12.8880    7.6610 C.3    39  LYS39       0.0035
     70  CD         9.1290  -11.6390    8.5370 C.3    39  LYS39       0.0206
     71  CE        10.4100  -11.5830    9.3750 C.3    39  LYS39       0.1093
     72  NZ        10.4950  -10.3880   10.2670 N.3    39  LYS39      -0.1314
     73  N          8.6040  -17.2040    9.0330 N.am   40  THR40      -0.1953
     74  CA         8.1510  -18.4110    9.7070 C.3    40  THR40       0.1897
     75  C          8.4920  -18.3170   11.2400 C.2    40  THR40       0.2313
     76  O          9.4460  -17.6420   11.6390 O.2    40  THR40      -0.2863
     77  CB         8.8660  -19.5700    8.9610 C.3    40  THR40       0.1794
     78  OG1        7.9300  -20.2200    8.0430 O.3    40  THR40      -0.2208
     79  CG2        9.5620  -20.4610    9.8780 C.3    40  THR40       0.0378
     80  N          5.3790  -12.9530   17.8130 N.3    53  PHE53      -0.1241
     81  CA         5.5300  -13.1210   16.3550 C.3    53  PHE53       0.1605
     82  C          4.3400  -12.5260   15.6620 C.2    53  PHE53       0.2264
     83  O          4.4840  -11.7580   14.7000 O.2    53  PHE53      -0.2867
     84  CB         5.5970  -14.6180   15.9790 C.3    53  PHE53       0.0534
     85  CG         5.9570  -14.8820   14.5340 C.ar   53  PHE53      -0.0203
     86  CD1        7.1830  -14.4880   14.0260 C.ar   53  PHE53      -0.0042
     87  CD2        5.0630  -15.5450   13.6850 C.ar   53  PHE53      -0.0042
     88  CE1        7.5020  -14.7420   12.6920 C.ar   53  PHE53      -0.0003
     89  CE2        5.3830  -15.7940   12.3860 C.ar   53  PHE53      -0.0003
     90  CZ         6.6010  -15.4010   11.8850 C.ar   53  PHE53      -0.0000
     91  N          3.8090   -8.7350   16.1310 N.3    56  GLU56      -0.1245
     92  CA         4.6830   -7.8720   15.3630 C.3    56  GLU56       0.1567
     93  C          4.2170   -7.8280   13.8980 C.2    56  GLU56       0.2260
     94  O          4.2370   -6.8120   13.2810 O.2    56  GLU56      -0.2867
     95  CB         6.1320   -8.3340   15.4800 C.3    56  GLU56       0.0388
     96  CG         7.1310   -7.3740   14.7770 C.3    56  GLU56       0.1160
     97  CD         8.1270   -8.1090   13.8850 C.2    56  GLU56       0.3649
     98  OE1        8.8090   -9.0750   14.3570 O.co2  56  GLU56      -0.2457
     99  OE2        8.2170   -7.7080   12.6880 O.co2  56  GLU56      -0.2457
    100  N          9.2340   -1.6940    5.1390 N.3    69  VAL69      -0.1245
    101  CA         8.9530   -2.9720    4.5520 C.3    69  VAL69       0.1561
    102  C          7.4630   -3.2740    4.4550 C.2    69  VAL69       0.2260
    103  O          6.6620   -3.0090    5.4100 O.2    69  VAL69      -0.2867
    104  CB         9.7150   -4.1330    5.2430 C.3    69  VAL69       0.0252
    105  CG1       11.2460   -3.9310    4.9650 C.3    69  VAL69       0.0019
    106  CG2        9.3330   -4.2380    6.7910 C.3    69  VAL69       0.0019
    107  N          4.1190  -15.2740    7.5710 N.3    82  ILE82      -0.1245
    108  CA         4.0580  -13.8350    7.2210 C.3    82  ILE82       0.1561
    109  C          4.7120  -13.5870    5.8240 C.2    82  ILE82       0.2260
    110  O          5.9080  -13.8030    5.6540 O.2    82  ILE82      -0.2867
    111  CB         4.8250  -12.9760    8.2170 C.3    82  ILE82       0.0252
    112  CG1        4.4820  -13.3390    9.6570 C.3    82  ILE82       0.0019
    113  CG2        4.6170  -11.4600    7.9430 C.3    82  ILE82       0.0019
    114  CD1        5.3830  -12.5130   10.7020 C.3    82  ILE82       0.0001
    115  N          5.9420  -11.1030    3.0420 N.3    84  MET84      -0.1230
    116  CA         6.4360   -9.7580    2.8850 C.3    84  MET84       0.1702
    117  C          6.8570   -9.5830    1.4170 C.2    84  MET84       0.2592
    118  O          7.1460  -10.5890    0.7820 O.2    84  MET84      -0.2718
    119  CB         7.6940   -9.6320    3.6930 C.3    84  MET84       0.0401
    120  CG         7.5150   -9.9750    5.1870 C.3    84  MET84       0.0596
    121  SD         6.2930   -8.8890    6.0230 S.3    84  MET84      -0.1393
    122  CE         7.0870   -7.2750    5.9280 C.3    84  MET84       0.0692
    123  N          6.9860   -8.3480    0.9170 N.am   85  GLU85      -0.1966
    124  CA         7.6180   -8.1310   -0.4230 C.3    85  GLU85       0.1733
    125  C          9.0270   -8.5460   -0.3370 C.2    85  GLU85       0.2616
    126  O          9.6800   -8.2500    0.7090 O.2    85  GLU85      -0.2715
    127  CB         7.7520   -6.6600   -0.7220 C.3    85  GLU85       0.0429
    128  CG         6.6510   -6.0470   -1.5100 C.3    85  GLU85       0.1163
    129  CD         7.0780   -4.6790   -2.0620 C.2    85  GLU85       0.3649
    130  OE1        7.2250   -3.7190   -1.2600 O.co2  85  GLU85      -0.2457
    131  OE2        7.2970   -4.5780   -3.2930 O.co2  85  GLU85      -0.2457
    132  N          9.5660   -9.1460   -1.4180 N.am   86  LEU86      -0.1963
    133  CA        10.9560   -9.5670   -1.3890 C.3    86  LEU86       0.1728
    134  C         11.7630   -8.4080   -1.8950 C.2    86  LEU86       0.2616
    135  O         11.3970   -7.8150   -2.8870 O.2    86  LEU86      -0.2715
    136  CB        11.2300  -10.7470   -2.3100 C.3    86  LEU86       0.0311
    137  CG        12.7380  -11.1410   -2.3770 C.3    86  LEU86       0.0022
    138  CD1       13.0910  -11.8070   -1.1820 C.3    86  LEU86       0.0001
    139  CD2       12.9940  -12.0440   -3.5180 C.3    86  LEU86       0.0001
    140  N         12.8390   -8.0750   -1.2270 N.am   87  TYR87      -0.1974
    141  CA        13.6430   -6.9090   -1.6220 C.3    87  TYR87       0.1639
    142  C         14.9240   -7.5220   -2.1100 C.2    87  TYR87       0.2290
    143  O         15.7440   -8.0440   -1.3080 O.2    87  TYR87      -0.2864
    144  CB        13.8220   -5.8600   -0.4780 C.3    87  TYR87       0.0560
    145  CG        12.4870   -5.2560   -0.0690 C.ar   87  TYR87      -0.0198
    146  CD1       11.9630   -5.4640    1.1900 C.ar   87  TYR87      -0.0009
    147  CD2       11.7170   -4.5470   -0.9740 C.ar   87  TYR87      -0.0009
    148  CE1       10.7350   -4.9580    1.5460 C.ar   87  TYR87       0.0417
    149  CE2       10.4480   -4.0750   -0.6360 C.ar   87  TYR87       0.0417
    150  CZ         9.9790   -4.2680    0.6430 C.ar   87  TYR87       0.1957
    151  OH         8.7400   -3.7750    0.9930 O.3    87  TYR87      -0.2866
    152  N         18.7070   -7.1510   -0.9620 N.3    90  GLY90      -0.1210
    153  CA        19.1120   -7.5840    0.4130 C.3    90  GLY90       0.1956
    154  C         19.3560   -6.4040    1.3450 C.2    90  GLY90       0.2611
    155  O         18.7680   -5.3490    1.1680 O.2    90  GLY90      -0.2717
    156  N         20.1730   -6.6070    2.3710 N.am   91  GLU91      -0.1979
    157  CA        20.4100   -5.6100    3.3940 C.3    91  GLU91       0.1602
    158  C         21.3010   -4.4670    2.9290 C.2    91  GLU91       0.2287
    159  O         22.2930   -4.6800    2.1870 O.2    91  GLU91      -0.2864
    160  CB        21.0140   -6.2270    4.6620 C.3    91  GLU91       0.0415
    161  CG        20.1230   -7.3070    5.3370 C.3    91  GLU91       0.1163
    162  CD        20.8400   -8.0340    6.4880 C.2    91  GLU91       0.3649
    163  OE1       22.0450   -7.6990    6.8170 O.co2  91  GLU91      -0.2457
    164  OE2       20.1770   -8.9340    7.0650 O.co2  91  GLU91      -0.2457
    165  N         21.9140   -2.9620    8.9840 N.3   135  ARG135     -0.1182
    166  CA        21.5610   -4.3910    8.9840 C.3   135  ARG135      0.1910
    167  C         20.0060   -4.6000    8.9410 C.2   135  ARG135      0.2634
    168  O         19.5410   -5.5510    8.3470 O.2   135  ARG135     -0.2714
    169  CB        22.2040   -5.1700   10.1590 C.2   135  ARG135      0.0007
    170  CG        21.9860   -6.7090   10.1560 C.2   135  ARG135      0.0176
    171  CD        22.9440   -7.5460   11.1430 C.3   135  ARG135      0.2464
    172  NE        22.2090   -8.6630   11.7870 N.pl3 135  ARG135     -0.0815
    173  CZ        22.7240   -9.8250   12.2450 C.cat 135  ARG135      0.5349
    174  NH1       24.0350  -10.0930   12.1790 N.pl3 135  ARG135      0.1354
    175  NH2       21.9050  -10.7390   12.7830 N.pl3 135  ARG135      0.1354
    176  N         19.2330   -3.6570    9.4660 N.am  136  ASN136     -0.1972
    177  CA        17.7580   -3.7590    9.5080 C.3   136  ASN136      0.1688
    178  C         16.9940   -2.9240    8.4460 C.2   136  ASN136      0.2292
    179  O         15.8660   -2.5360    8.6670 O.2   136  ASN136     -0.2864
    180  CB        17.2510   -3.3890   10.9490 C.3   136  ASN136      0.1181
    181  CG        15.7180   -3.7590   11.1540 C.2   136  ASN136      0.2629
    182  OD1       14.9270   -2.9510   11.5790 O.2   136  ASN136     -0.2716
    183  ND2       15.3470   -4.9450   10.7930 N.am  136  ASN136     -0.0877
    184  N         16.2550   -2.6820    4.2080 N.3   138  LEU138     -0.1245
    185  CA        16.2680   -3.5720    3.0330 C.3   138  LEU138      0.1561
    186  C         16.3770   -2.7370    1.7600 C.2   138  LEU138      0.2260
    187  O         15.9470   -1.6330    1.7770 O.2   138  LEU138     -0.2867
    188  CB        15.0380   -4.5250    2.9520 C.3   138  LEU138      0.0270
    189  CG        15.1840   -5.5960    4.0320 C.3   138  LEU138      0.0019
    190  CD1       13.8850   -6.3090    4.2180 C.3   138  LEU138      0.0001
    191  CD2       16.2860   -6.5930    3.6400 C.3   138  LEU138      0.0001
    192  N         11.6150   -4.5920   10.1880 N.3   149  ASP149     -0.1225
    193  CA        10.5500   -4.7250   11.1370 C.3   149  ASP149      0.1805
    194  C         11.1250   -5.0090   12.4720 C.2   149  ASP149      0.2597
    195  O         11.1470   -6.1780   12.8800 O.2   149  ASP149     -0.2718
    196  CB         9.5180   -5.8250   10.7130 C.3   149  ASP149      0.1424
    197  CG        10.1240   -7.2190   10.4850 C.2   149  ASP149      0.3668
    198  OD1       11.0590   -7.6510   11.2110 O.co2 149  ASP149     -0.2456
    199  OD2        9.6160   -7.9060    9.5480 O.co2 149  ASP149     -0.2456
    200  N         11.6400   -3.9940   13.1580 N.am  150  PHE150     -0.1976
    201  CA        12.2680   -4.3420   14.4310 C.3   150  PHE150      0.1639
    202  C         11.7970   -3.5510   15.6520 C.2   150  PHE150      0.2290
    203  O         12.5410   -3.3960   16.6410 O.2   150  PHE150     -0.2864
    204  CB        13.7970   -4.3710   14.3140 C.3   150  PHE150      0.0560
    205  CG        14.3880   -5.7570   14.3710 C.ar  150  PHE150     -0.0200
    206  CD1       15.1680   -6.2420   13.3250 C.ar  150  PHE150     -0.0042
    207  CD2       14.1120   -6.6040   15.4480 C.ar  150  PHE150     -0.0042
    208  CE1       15.7150   -7.5120   13.3850 C.ar  150  PHE150     -0.0003
    209  CE2       14.6240   -7.9020   15.5040 C.ar  150  PHE150     -0.0003
    210  CZ        15.4410   -8.3550   14.4790 C.ar  150  PHE150     -0.0000
@<TRIPOS>BOND
     1   139   137    1
     2   131   129   ar
     3   135   134    2
     4   137   136    1
     5   137   138    1
     6   136   133    1
     7   142   141    1
     8   142   143    2
     9   129   128    1
    10   129   130   ar
    11   134   133    1
    12   134   140   am
    13   141   140    1
    14   141   144    1
    15   128   127    1
    16   132   133    1
    17   132   125   am
    18   147   149   ar
    19   147   145   ar
    20   152   153    1
    21   127   124    1
    22   149   150   ar
    23   144   145    1
    24   124   125    1
    25   124   123    1
    26   125   126    2
    27   145   146   ar
    28   153   154    1
    29    59    60    1
    30   150   151    1
    31   150   148   ar
    32     8     6    1
    33   118   117    2
    34   123   117   am
    35   155   154    2
    36   146   148   ar
    37   154   156   am
    38   117   116    1
    39     6     7    1
    40     6     5    1
    41    60    63    1
    42    60    61    1
    43   186   187    2
    44   186   185    1
    45   159   158    2
    46   156   157    1
    47    61    62    2
    48     2     5    1
    49     2     1    1
    50     2     3    1
    51   116   115    1
    52   116   119    1
    53   158   157    1
    54   188   185    1
    55   188   189    1
    56   185   184    1
    57   157   160    1
    58   191   189    1
    59   119   120    1
    60     4     3    2
    61     3     9   am
    62   189   190    1
    63   102   101    1
    64   102   103    2
    65   101   100    1
    66   101   104    1
    67   160   161    1
    68    55    54    2
    69   105   104    1
    70    54    53    1
    71     9    10    1
    72   120   121    1
    73   104   106    1
    74    57    56    1
    75   161   162    1
    76   110   109    2
    77   109   108    1
    78   122   121    1
    79    64    65    1
    80    10    11    1
    81    53    56    1
    82    53    52    1
    83    56    58    1
    84   162   163   ar
    85   162   164   ar
    86   108   107    1
    87   108   111    1
    88    11    12    2
    89    11    13   am
    90    65    66    1
    91    65    68    1
    92    69    68    1
    93    69    70    1
    94   113   111    1
    95    78    77    1
    96   111   112    1
    97    67    66    2
    98    66    73   am
    99   168   167    2
   100   178   179    2
   101   178   177    1
   102    70    71    1
   103    13    14    1
   104   167   166    1
   105   167   176   am
   106    77    74    1
   107    77    79    1
   108   165   166    1
   109   166   169    1
   110    73    74    1
   111    71    72    1
   112   176   177    1
   113   177   180    1
   114   199   197   ar
   115   112   114    1
   116    74    75    1
   117    14    15    1
   118    14    17    1
   119   170   169    2
   120   170   171    1
   121   192   193    1
   122   197   196    1
   123   197   198   ar
   124    15    16    2
   125    15    22   am
   126   196   193    1
   127   183   181   am
   128    22    23    1
   129    17    18    1
   130   180   181    1
   131    51    50    2
   132   193   194    1
   133   171   172    1
   134   181   182    2
   135    75    76    2
   136    18    19    1
   137    50    49    1
   138    23    24    1
   139    21    19   ar
   140   172   173    2
   141    90    89   ar
   142    90    88   ar
   143    19    20   ar
   144   174   173    1
   145   173   175    1
   146    89    87   ar
   147   194   195    2
   148   194   200   am
   149    99    97   ar
   150    88    86   ar
   151    49    48    1
   152   200   201    1
   153    24    25    2
   154    24    26   am
   155    94    93    2
   156   206   208   ar
   157   206   205   ar
   158   208   210   ar
   159    48    39   am
   160    87    85   ar
   161    97    98   ar
   162    97    96    1
   163    93    92    1
   164    86    85   ar
   165    26    27    1
   166   204   205    1
   167   204   201    1
   168   205   207   ar
   169   201   202    1
   170   210   209   ar
   171    85    84    1
   172    39    40    2
   173    39    38    1
   174    83    82    2
   175    96    95    1
   176    37    38    1
   177    37    28   am
   178    92    95    1
   179    92    91    1
   180   207   209   ar
   181    41    38    1
   182    41    42    1
   183    27    28    1
   184    27    30    1
   185   202   203    2
   186    82    81    1
   187    28    29    2
   188    43    42   ar
   189    43    45   ar
   190    84    81    1
   191    30    31    1
   192    42    44   ar
   193    81    80    1
   194    45    47   ar
   195    44    46   ar
   196    31    33   ar
   197    31    32   ar
   198    47    46   ar
   199    33    35   ar
   200    32    34   ar
   201    35    36   ar
   202    34    36   ar
