@<TRIPOS>MOLECULE
tmp/3fzrA00.pdb
 169 164 0 0 0
SMALL
GASTEIGER

@<TRIPOS>ATOM
      1  N         16.7810   70.2480   19.7340 N.3    13  LEU13      -0.1231
      2  CA        17.5700   69.1340   19.1710 C.3    13  LEU13       0.1693
      3  C         17.3200   67.8210   19.9190 C.2    13  LEU13       0.2593
      4  O         17.1890   66.7610   19.3110 O.2    13  LEU13      -0.2718
      5  CB        19.0530   69.4560   19.1840 C.3    13  LEU13       0.0284
      6  CG        19.4870   69.4440   17.7360 C.3    13  LEU13       0.0019
      7  CD1       20.9340   69.8770   17.5680 C.3    13  LEU13       0.0001
      8  CD2       19.2410   68.0670   17.2310 C.3    13  LEU13       0.0001
      9  N         17.2380   67.9190   21.2400 N.am   14  GLY14      -0.1942
     10  CA        16.9840   66.8040   22.1210 C.3    14  GLY14       0.2014
     11  C         17.3040   67.1970   23.5530 C.2    14  GLY14       0.2639
     12  O         17.4570   68.3670   23.9150 O.2    14  GLY14      -0.2714
     13  N         17.4580   66.1830   24.3750 N.am   15  GLU15      -0.1963
     14  CA        17.7930   66.4000   25.7540 C.3    15  GLU15       0.1733
     15  C         19.1530   65.8180   26.0340 C.2    15  GLU15       0.2616
     16  O         19.3010   64.6000   26.0970 O.2    15  GLU15      -0.2715
     17  CB        16.7710   65.6910   26.6370 C.3    15  GLU15       0.0429
     18  CG        15.5740   66.5560   26.9600 C.3    15  GLU15       0.1163
     19  CD        15.5300   66.9100   28.4200 C.2    15  GLU15       0.3649
     20  OE1       16.6050   66.8390   29.0630 O.co2  15  GLU15      -0.2457
     21  OE2       14.4200   67.1970   28.9270 O.co2  15  GLU15      -0.2457
     22  N         20.1380   66.6720   26.2610 N.am   16  GLY16      -0.1955
     23  CA        21.4400   66.1820   26.6310 C.3    16  GLY16       0.1869
     24  C         21.4370   65.6730   28.0690 C.2    16  GLY16       0.2309
     25  O         20.4160   65.6780   28.7580 O.2    16  GLY16      -0.2863
     26  N         19.2250   70.7560   24.1740 N.3    21  VAL21      -0.1245
     27  CA        20.1780   71.3090   23.2220 C.3    21  VAL21       0.1561
     28  C         19.2300   71.8320   22.1660 C.2    21  VAL21       0.2260
     29  O         18.1970   71.1930   21.8690 O.2    21  VAL21      -0.2867
     30  CB        21.1380   70.1850   22.6840 C.3    21  VAL21       0.0252
     31  CG1       22.1530   70.7260   21.6670 C.3    21  VAL21       0.0019
     32  CG2       21.8190   69.4910   23.8870 C.3    21  VAL21       0.0019
     33  N         24.3660   74.8020   17.5790 N.3    37  ALA37      -0.1245
     34  CA        23.7110   73.9050   18.5530 C.3    37  ALA37       0.1562
     35  C         24.0100   74.5340   19.9140 C.2    37  ALA37       0.2260
     36  O         25.0890   75.0980   20.0980 O.2    37  ALA37      -0.2867
     37  CB        24.2610   72.4660   18.4570 C.3    37  ALA37       0.0290
     38  N         23.9800   74.3090   23.9500 N.3    39  LYS39      -0.1245
     39  CA        23.9340   73.4310   25.0960 C.3    39  LYS39       0.1561
     40  C         23.4640   74.2750   26.2710 C.2    39  LYS39       0.2260
     41  O         23.9420   75.4050   26.4710 O.2    39  LYS39      -0.2867
     42  CB        25.3150   72.7830   25.3380 C.3    39  LYS39       0.0271
     43  CG        25.2890   71.2890   25.6620 C.3    39  LYS39       0.0035
     44  CD        26.6900   70.6690   25.6330 C.3    39  LYS39       0.0206
     45  CE        26.6390   69.1290   25.7240 C.3    39  LYS39       0.1093
     46  NZ        27.0370   68.5620   27.0640 N.3    39  LYS39      -0.1314
     47  N         34.3740   68.4720   18.1720 N.3    69  VAL69      -0.1245
     48  CA        33.2980   69.4550   17.8920 C.3    69  VAL69       0.1561
     49  C         33.7880   70.8620   18.0250 C.2    69  VAL69       0.2260
     50  O         34.5400   71.1750   18.9410 O.2    69  VAL69      -0.2867
     51  CB        32.0110   69.2400   18.6960 C.3    69  VAL69       0.0252
     52  CG1       31.2290   68.0090   18.1720 C.3    69  VAL69       0.0019
     53  CG2       32.3110   69.1890   20.1830 C.3    69  VAL69       0.0019
     54  N         27.9100   75.5820   19.8880 N.3    84  MET84      -0.1230
     55  CA        28.7400   74.7000   19.1030 C.3    84  MET84       0.1702
     56  C         28.2590   74.7870   17.6720 C.2    84  MET84       0.2592
     57  O         27.1110   75.1580   17.4150 O.2    84  MET84      -0.2718
     58  CB        28.5340   73.2450   19.5610 C.3    84  MET84       0.0401
     59  CG        28.5640   73.0040   21.0700 C.3    84  MET84       0.0596
     60  SD        30.2450   73.1830   21.6780 S.3    84  MET84      -0.1393
     61  CE        30.6080   71.5610   22.1540 C.3    84  MET84       0.0692
     62  N         29.1090   74.3600   16.7480 N.am   85  GLU85      -0.1966
     63  CA        28.7320   74.3070   15.3540 C.3    85  GLU85       0.1733
     64  C         27.7430   73.1560   15.2310 C.2    85  GLU85       0.2616
     65  O         27.7930   72.1700   15.9880 O.2    85  GLU85      -0.2715
     66  CB        29.9700   74.0370   14.5050 C.3    85  GLU85       0.0429
     67  CG        29.7010   73.7180   13.0360 C.3    85  GLU85       0.1163
     68  CD        30.9300   73.9430   12.1420 C.2    85  GLU85       0.3649
     69  OE1       32.0540   74.0320   12.6890 O.co2  85  GLU85      -0.2457
     70  OE2       30.7710   74.0190   10.8970 O.co2  85  GLU85      -0.2457
     71  N         26.8020   73.2960   14.3150 N.am   86  LEU86      -0.1963
     72  CA        25.8470   72.2230   14.1130 C.3    86  LEU86       0.1728
     73  C         26.3800   71.3090   13.0120 C.2    86  LEU86       0.2616
     74  O         27.0520   71.7660   12.0650 O.2    86  LEU86      -0.2715
     75  CB        24.4720   72.7750   13.7220 C.3    86  LEU86       0.0311
     76  CG        23.3880   71.7130   13.5270 C.3    86  LEU86       0.0022
     77  CD1       22.8970   71.1190   14.8730 C.3    86  LEU86       0.0001
     78  CD2       22.2260   72.2690   12.7090 C.3    86  LEU86       0.0001
     79  N         26.0830   70.0170   13.1480 N.am   87  TYR87      -0.1960
     80  CA        26.4600   69.0030   12.1500 C.3    87  TYR87       0.1756
     81  C         25.1700   68.2460   11.8630 C.2    87  TYR87       0.2461
     82  O         24.7530   67.3530   12.6010 O.2    87  TYR87      -0.2730
     83  CB        27.6000   68.0690   12.6570 C.3    87  TYR87       0.0574
     84  CG        28.8180   68.8400   13.1170 C.ar   87  TYR87      -0.0198
     85  CD1       29.1440   68.9120   14.4480 C.ar   87  TYR87      -0.0009
     86  CD2       29.5830   69.5720   12.2270 C.ar   87  TYR87      -0.0009
     87  CE1       30.2080   69.6590   14.8850 C.ar   87  TYR87       0.0417
     88  CE2       30.6720   70.3360   12.6640 C.ar   87  TYR87       0.0417
     89  CZ        30.9640   70.3760   13.9990 C.ar   87  TYR87       0.1957
     90  OH        32.0110   71.1350   14.4710 O.3    87  TYR87      -0.2866
     91  N         24.4650   68.6880   10.8320 N.am   88  PRO88      -0.2716
     92  CA        23.1750   68.2620   10.2900 C.3    88  PRO88       0.1536
     93  C         23.0610   66.7640   10.1450 C.2    88  PRO88       0.2599
     94  O         21.9880   66.2040   10.3530 O.2    88  PRO88      -0.2715
     95  CB        23.1260   68.9330    8.9190 C.3    88  PRO88       0.0310
     96  CG        24.2970   69.9290    8.9020 C.3    88  PRO88       0.0237
     97  CD        25.3240   69.2750    9.8010 C.3    88  PRO88       0.0939
     98  N         24.1620   66.1080    9.7930 N.am   89  TYR89      -0.1960
     99  CA        24.1540   64.6560    9.6130 C.3    89  TYR89       0.1771
    100  C         23.8350   63.8880   10.9160 C.2    89  TYR89       0.2620
    101  O         23.4620   62.7080   10.8810 O.2    89  TYR89      -0.2715
    102  CB        25.4930   64.2060    9.0360 C.3    89  TYR89       0.0574
    103  CG        25.6880   64.5130    7.5610 C.ar   89  TYR89      -0.0198
    104  CD1       26.3860   65.6430    7.1520 C.ar   89  TYR89      -0.0009
    105  CD2       25.2810   63.6150    6.5820 C.ar   89  TYR89      -0.0009
    106  CE1       26.6380   65.8950    5.8090 C.ar   89  TYR89       0.0417
    107  CE2       25.5030   63.8650    5.2420 C.ar   89  TYR89       0.0417
    108  CZ        26.1670   65.0150    4.8600 C.ar   89  TYR89       0.1957
    109  OH        26.3920   65.2620    3.5190 O.3    89  TYR89      -0.2866
    110  N         24.0280   64.5240   12.0720 N.am   90  GLY90      -0.1940
    111  CA        23.7590   63.8430   13.3350 C.3    90  GLY90       0.2014
    112  C         24.7920   62.8280   13.8230 C.2    90  GLY90       0.2638
    113  O         25.9470   62.8550   13.4090 O.2    90  GLY90      -0.2714
    114  N         24.3750   61.9690   14.7510 N.am   91  GLU91      -0.1977
    115  CA        25.2280   60.9510   15.3580 C.3    91  GLU91       0.1602
    116  C         25.7230   59.9150   14.3620 C.2    91  GLU91       0.2287
    117  O         24.9650   59.4320   13.5330 O.2    91  GLU91      -0.2864
    118  CB        24.4330   60.1580   16.3900 C.3    91  GLU91       0.0415
    119  CG        23.9750   60.9150   17.5890 C.3    91  GLU91       0.1163
    120  CD        22.8640   60.1580   18.2870 C.2    91  GLU91       0.3649
    121  OE1       22.7240   58.9490   17.9740 O.co2  91  GLU91      -0.2457
    122  OE2       22.1140   60.7610   19.0970 O.co2  91  GLU91      -0.2457
    123  N         27.2830   57.0040   19.3570 N.3   135  ARG135     -0.1231
    124  CA        26.2060   57.9700   19.5780 C.3   135  ARG135      0.1694
    125  C         26.7000   59.3060   20.1430 C.2   135  ARG135      0.2592
    126  O         25.9360   60.2290   20.2090 O.2   135  ARG135     -0.2718
    127  CB        25.1040   57.4250   20.4900 C.3   135  ARG135      0.0321
    128  CG        25.5390   56.4610   21.5710 C.3   135  ARG135      0.0489
    129  CD        25.0200   56.8950   22.9430 C.3   135  ARG135      0.2205
    130  NE        26.0700   56.8610   23.9690 N.pl3 135  ARG135     -0.0865
    131  CZ        26.8300   55.7980   24.2240 C.cat 135  ARG135      0.5346
    132  NH1       26.6690   54.6800   23.5220 N.pl3 135  ARG135      0.1354
    133  NH2       27.7470   55.8500   25.1820 N.pl3 135  ARG135      0.1354
    134  N         27.9730   59.4170   20.5340 N.am  136  ASN136     -0.1960
    135  CA        28.5230   60.6670   21.0480 C.3   136  ASN136      0.1819
    136  C         29.5380   61.2420   20.0910 C.2   136  ASN136      0.2621
    137  O         30.3880   62.0510   20.4860 O.2   136  ASN136     -0.2715
    138  CB        29.1900   60.4160   22.3990 C.3   136  ASN136      0.1195
    139  CG        29.5620   61.7040   23.1380 C.2   136  ASN136      0.2630
    140  OD1       30.5750   61.7610   23.8240 O.2   136  ASN136     -0.2716
    141  ND2       28.7470   62.7270   23.0030 N.am  136  ASN136     -0.0877
    142  N         29.5070   60.7730   18.8470 N.am  137  ILE137     -0.1963
    143  CA        30.4140   61.2500   17.8050 C.3   137  ILE137      0.1727
    144  C         29.5460   61.7940   16.7100 C.2   137  ILE137      0.2616
    145  O         28.6000   61.1380   16.2800 O.2   137  ILE137     -0.2715
    146  CB        31.3170   60.0980   17.2000 C.3   137  ILE137      0.0290
    147  CG1       32.4340   59.6920   18.1650 C.3   137  ILE137      0.0022
    148  CG2       31.9890   60.5890   15.8860 C.3   137  ILE137      0.0023
    149  CD1       32.7400   58.2450   18.0900 C.3   137  ILE137      0.0001
    150  N         29.9300   62.9400   16.1810 N.am  138  LEU138     -0.1977
    151  CA        29.1630   63.5780   15.1300 C.3   138  LEU138      0.1596
    152  C         29.7450   63.4310   13.7360 C.2   138  LEU138      0.2287
    153  O         30.9680   63.4260   13.5440 O.2   138  LEU138     -0.2864
    154  CB        29.0180   65.0580   15.4820 C.3   138  LEU138      0.0297
    155  CG        28.1510   65.1020   16.7490 C.3   138  LEU138      0.0022
    156  CD1       28.7590   65.5450   18.0920 C.3   138  LEU138      0.0001
    157  CD2       26.7210   65.4790   16.5300 C.3   138  LEU138      0.0001
    158  N         32.8340   63.9820   20.3300 N.3   148  GLY148     -0.1210
    159  CA        32.0270   64.4710   21.4320 C.3   148  GLY148      0.1956
    160  C         32.0520   65.8810   21.9540 C.2   148  GLY148      0.2611
    161  O         31.6540   66.7810   21.2410 O.2   148  GLY148     -0.2717
    162  N         32.3950   66.0370   23.2310 N.am  149  ASP149     -0.1973
    163  CA        32.2570   67.2890   24.0340 C.3   149  ASP149      0.1709
    164  C         31.2210   66.8010   25.0030 C.2   149  ASP149      0.2293
    165  O         30.0350   66.9790   24.8070 O.2   149  ASP149     -0.2864
    166  CB        31.6900   68.4860   23.2350 C.3   149  ASP149      0.1436
    167  CG        30.5470   69.2450   23.9720 C.2   149  ASP149      0.3671
    168  OD1       30.7900   69.7520   25.0860 O.co2 149  ASP149     -0.2456
    169  OD2       29.3900   69.2760   23.4730 O.co2 149  ASP149     -0.2456
@<TRIPOS>BOND
     1   109   108    1
     2   108   107   ar
     3   108   106   ar
     4   107   105   ar
     5   106   104   ar
     6   105   103   ar
     7   104   103   ar
     8   103   102    1
     9    96    95    1
    10    96    97    1
    11    95    92    1
    12   102    99    1
    13    99    98    1
    14    99   100    1
    15    98    93   am
    16    97    91    1
    17    93    92    1
    18    93    94    2
    19    92    91    1
    20    91    81   am
    21   101   100    2
    22    70    68   ar
    23   100   110   am
    24    81    80    1
    25    81    82    2
    26    74    73    2
    27   110   111    1
    28    68    69   ar
    29    68    67    1
    30    80    83    1
    31    80    79    1
    32    86    88   ar
    33    86    84   ar
    34    83    84    1
    35    88    89   ar
    36    78    76    1
    37    73    79   am
    38    73    72    1
    39    67    66    1
    40    84    85   ar
    41   111   112    1
    42   113   112    2
    43    76    75    1
    44    76    77    1
    45   117   116    2
    46   153   152    2
    47    75    72    1
    48   152   151    1
    49   112   114   am
    50    89    90    1
    51    89    87   ar
    52    72    71    1
    53    71    64   am
    54   116   115    1
    55    85    87   ar
    56    66    63    1
    57   114   115    1
    58   151   154    1
    59   151   150    1
    60    64    63    1
    61    64    65    2
    62    63    62    1
    63   115   118    1
    64   154   155    1
    65   148   146    1
    66   150   144   am
    67   145   144    2
    68   118   119    1
    69   157   155    1
    70   144   143    1
    71    62    56   am
    72   155   156    1
    73   146   143    1
    74   146   147    1
    75     8     6    1
    76    57    56    2
    77     7     6    1
    78    33    34    1
    79   119   120    1
    80    56    55    1
    81     6     5    1
    82   143   142    1
    83    48    49    1
    84    48    47    1
    85    48    51    1
    86   121   120   ar
    87    49    50    2
    88   149   147    1
    89    52    51    1
    90   120   122   ar
    91    37    34    1
    92    34    35    1
    93    51    53    1
    94   142   136   am
    95    55    58    1
    96    55    54    1
    97     2     5    1
    98     2     1    1
    99     2     3    1
   100     4     3    2
   101   123   124    1
   102    58    59    1
   103   124   125    1
   104   124   127    1
   105    35    36    2
   106     3     9   am
   107   136   137    2
   108   136   135    1
   109   125   126    2
   110   125   134   am
   111   158   159    1
   112   127   128    1
   113   134   135    1
   114   135   138    1
   115    59    60    1
   116     9    10    1
   117   161   160    2
   118   159   160    1
   119   128   129    1
   120    31    30    1
   121    60    61    1
   122    29    28    2
   123   160   162   am
   124    10    11    1
   125    28    27    1
   126   138   139    1
   127    30    27    1
   128    30    32    1
   129   129   130    1
   130   141   139   am
   131   139   140    2
   132    27    26    1
   133   162   163    1
   134   166   167    1
   135   166   163    1
   136   169   167   ar
   137   132   131    1
   138    11    12    2
   139    11    13   am
   140    38    39    1
   141   130   131    2
   142   167   168   ar
   143   163   164    1
   144   131   133    1
   145    13    14    1
   146   165   164    2
   147    39    42    1
   148    39    40    1
   149    42    43    1
   150    44    43    1
   151    44    45    1
   152    45    46    1
   153    14    15    1
   154    14    17    1
   155    15    16    2
   156    15    22   am
   157    22    23    1
   158    40    41    2
   159    23    24    1
   160    17    18    1
   161    18    19    1
   162    24    25    2
   163    19    21   ar
   164    19    20   ar
