@<TRIPOS>MOLECULE
tmp/3fzsA00.pdb
 198 185 0 0 0
SMALL
GASTEIGER

@<TRIPOS>ATOM
      1  N          2.3840  -13.8090   17.6960 N.3    12  LEU12      -0.1231
      2  CA         3.0380  -12.8010   16.8570 C.3    12  LEU12       0.1693
      3  C          3.6050  -11.6420   17.6630 C.2    12  LEU12       0.2592
      4  O          4.6410  -11.0760   17.3050 O.2    12  LEU12      -0.2718
      5  CB         2.0730  -12.2570   15.8020 C.3    12  LEU12       0.0284
      6  CG         1.7290  -13.1340   14.6030 C.3    12  LEU12       0.0019
      7  CD1        0.6170  -12.4850   13.7970 C.3    12  LEU12       0.0001
      8  CD2        2.9580  -13.4180   13.7270 C.3    12  LEU12       0.0001
      9  N          2.9230  -11.2880   18.7450 N.am   13  GLY13      -0.1957
     10  CA         3.3570  -10.2020   19.6120 C.3    13  GLY13       0.1869
     11  C          2.3710   -9.9750   20.7360 C.2    13  GLY13       0.2309
     12  O          1.3040  -10.5930   20.7690 O.2    13  GLY13      -0.2863
     13  N         -1.3390  -11.2270   20.3370 N.3    20  VAL20      -0.1245
     14  CA        -1.7710  -11.3590   18.9630 C.3    20  VAL20       0.1561
     15  C         -1.1880  -12.6690   18.4490 C.2    20  VAL20       0.2260
     16  O          0.0160  -12.9010   18.5380 O.2    20  VAL20      -0.2867
     17  CB        -1.2800  -10.1780   18.0890 C.3    20  VAL20       0.0252
     18  CG1       -1.7450  -10.3390   16.6460 C.3    20  VAL20       0.0019
     19  CG2       -1.7820   -8.8610   18.6570 C.3    20  VAL20       0.0019
     20  N         -4.2140  -12.7910   11.4790 N.3    36  ALA36      -0.1245
     21  CA        -3.7560  -12.3400   12.7820 C.3    36  ALA36       0.1562
     22  C         -4.9840  -12.2380   13.6670 C.2    36  ALA36       0.2260
     23  O         -6.0110  -11.6670   13.2500 O.2    36  ALA36      -0.2867
     24  CB        -3.0520  -10.9790   12.6680 C.3    36  ALA36       0.0290
     25  N         -6.3820  -11.0120   17.2850 N.3    38  LYS38      -0.1245
     26  CA        -6.1770  -10.1890   18.4700 C.3    38  LYS38       0.1561
     27  C         -7.0560  -10.6590   19.6150 C.2    38  LYS38       0.2260
     28  O         -8.2280  -10.9620   19.4190 O.2    38  LYS38      -0.2867
     29  CB        -6.4590   -8.7200   18.1660 C.3    38  LYS38       0.0271
     30  CG        -5.5230   -8.1600   17.0790 C.3    38  LYS38       0.0035
     31  CD        -5.7010   -6.6710   16.8930 C.3    38  LYS38       0.0206
     32  CE        -5.1060   -5.8960   18.0630 C.3    38  LYS38       0.1093
     33  NZ        -4.9770   -4.4460   17.7420 N.3    38  LYS38      -0.1314
     34  N        -12.9790   -0.4070   24.0870 N.3    51  LYS51      -0.1245
     35  CA       -11.8980    0.0550   23.2120 C.3    51  LYS51       0.1561
     36  C        -11.3770   -1.0870   22.3390 C.2    51  LYS51       0.2260
     37  O        -11.2160   -0.9160   21.1300 O.2    51  LYS51      -0.2867
     38  CB       -10.7520    0.6680   24.0300 C.3    51  LYS51       0.0271
     39  CG        -9.6530    1.3640   23.2060 C.3    51  LYS51       0.0035
     40  CD       -10.2310    2.3710   22.2050 C.3    51  LYS51       0.0206
     41  CE        -9.2550    3.4950   21.9030 C.3    51  LYS51       0.1093
     42  NZ        -9.9860    4.7320   21.4910 N.3    51  LYS51      -0.1314
     43  N        -13.7600   -1.7960   19.6310 N.3    54  SER54      -0.1202
     44  CA       -13.9800   -0.6850   18.7110 C.3    54  SER54       0.2020
     45  C        -13.1830   -0.8570   17.4230 C.2    54  SER54       0.2618
     46  O        -13.6070   -0.3980   16.3630 O.2    54  SER54      -0.2717
     47  CB       -13.6630    0.6600   19.3720 C.3    54  SER54       0.2103
     48  OG       -12.2680    0.8630   19.5350 O.3    54  SER54      -0.2182
     49  N        -12.0330   -1.5180   17.5170 N.am   55  GLU55      -0.1979
     50  CA       -11.2420   -1.7960   16.3270 C.3    55  GLU55       0.1602
     51  C        -12.0490   -2.6200   15.3260 C.2    55  GLU55       0.2287
     52  O        -12.0060   -2.3510   14.1320 O.2    55  GLU55      -0.2864
     53  CB        -9.9300   -2.4990   16.6750 C.3    55  GLU55       0.0415
     54  CG        -9.0220   -2.7350   15.4500 C.3    55  GLU55       0.1163
     55  CD        -7.6830   -3.3330   15.8190 C.2    55  GLU55       0.3649
     56  OE1       -7.6030   -4.0560   16.8320 O.co2  55  GLU55      -0.2457
     57  OE2       -6.6970   -3.0790   15.0950 O.co2  55  GLU55      -0.2457
     58  N        -14.9630   -0.3920   13.9160 N.3    58  ILE58      -0.1231
     59  CA       -14.3700    0.5130   12.9230 C.3    58  ILE58       0.1692
     60  C        -13.9230   -0.2030   11.6380 C.2    58  ILE58       0.2591
     61  O        -14.3560    0.1590   10.5310 O.2    58  ILE58      -0.2718
     62  CB       -13.1850    1.3290   13.5340 C.3    58  ILE58       0.0266
     63  CG1      -13.7160    2.3010   14.6010 C.3    58  ILE58       0.0019
     64  CG2      -12.3740    2.0650   12.4460 C.3    58  ILE58       0.0020
     65  CD1      -12.6700    2.7770   15.5940 C.3    58  ILE58       0.0001
     66  N        -13.0740   -1.2260   11.7880 N.am   59  MET59      -0.1979
     67  CA       -12.4040   -1.8440   10.6340 C.3    59  MET59       0.1605
     68  C        -13.3530   -2.5760    9.6980 C.2    59  MET59       0.2287
     69  O        -13.0290   -2.7580    8.5260 O.2    59  MET59      -0.2864
     70  CB       -11.2540   -2.7510   11.0690 C.3    59  MET59       0.0413
     71  CG       -10.1070   -1.9890   11.7470 C.3    59  MET59       0.0598
     72  SD        -9.3900   -0.7160   10.6770 S.3    59  MET59      -0.1393
     73  CE        -8.4350   -1.7450    9.5500 C.3    59  MET59       0.0692
     74  N        -13.9180   -0.5580    6.5930 N.3    62  LEU62      -0.1245
     75  CA       -12.8290   -0.2720    5.6690 C.3    62  LEU62       0.1561
     76  C        -12.7770   -1.3360    4.5890 C.2    62  LEU62       0.2260
     77  O        -12.7070   -2.5310    4.8920 O.2    62  LEU62      -0.2867
     78  CB       -11.4950   -0.1440    6.4280 C.3    62  LEU62       0.0270
     79  CG       -11.3830    1.1610    7.2340 C.3    62  LEU62       0.0019
     80  CD1      -10.1110    1.1970    8.0300 C.3    62  LEU62       0.0001
     81  CD2      -11.4620    2.3950    6.3490 C.3    62  LEU62       0.0001
     82  N         -5.7340   -0.7520    2.1670 N.3    67  ILE67      -0.1231
     83  CA        -5.8540   -0.7700    3.6340 C.3    67  ILE67       0.1692
     84  C         -6.1140   -2.2110    4.0460 C.2    67  ILE67       0.2591
     85  O         -6.7570   -2.9530    3.3150 O.2    67  ILE67      -0.2718
     86  CB        -6.9310    0.2080    4.1690 C.3    67  ILE67       0.0266
     87  CG1       -6.4930    1.6680    3.8980 C.3    67  ILE67       0.0019
     88  CG2       -7.1340    0.0220    5.6840 C.3    67  ILE67       0.0020
     89  CD1       -7.5420    2.7270    4.2460 C.3    67  ILE67       0.0001
     90  N         -5.5490   -2.6080    5.1840 N.am   68  VAL68      -0.1980
     91  CA        -5.7200   -3.9700    5.7140 C.3    68  VAL68       0.1595
     92  C         -7.2000   -4.3040    5.9160 C.2    68  VAL68       0.2287
     93  O         -8.0470   -3.4050    5.9530 O.2    68  VAL68      -0.2864
     94  CB        -4.9700   -4.1460    7.0420 C.3    68  VAL68       0.0276
     95  CG1       -3.4610   -4.0690    6.8090 C.3    68  VAL68       0.0022
     96  CG2       -5.4620   -3.1040    8.0670 C.3    68  VAL68       0.0022
     97  N         -8.0020  -10.5910   11.6740 N.3    83  MET83      -0.1230
     98  CA        -7.5680   -9.7470   10.5590 C.3    83  MET83       0.1702
     99  C         -6.8610  -10.5610    9.4940 C.2    83  MET83       0.2592
    100  O         -6.2010  -11.5560    9.7880 O.2    83  MET83      -0.2718
    101  CB        -6.6110   -8.6710   11.0680 C.3    83  MET83       0.0401
    102  CG        -7.1640   -7.8450   12.2150 C.3    83  MET83       0.0596
    103  SD        -8.5880   -6.8730   11.7480 S.3    83  MET83      -0.1393
    104  CE        -7.9770   -5.7450   10.5160 C.3    83  MET83       0.0692
    105  N         -6.9590  -10.1110    8.2500 N.am   84  GLU84      -0.1966
    106  CA        -6.3140  -10.8150    7.1600 C.3    84  GLU84       0.1733
    107  C         -4.8170  -10.5370    7.0930 C.2    84  GLU84       0.2616
    108  O         -4.3890   -9.3820    7.1400 O.2    84  GLU84      -0.2715
    109  CB        -6.9630  -10.4350    5.8380 C.3    84  GLU84       0.0429
    110  CG        -6.5770  -11.3500    4.7050 C.3    84  GLU84       0.1163
    111  CD        -7.4210  -11.1170    3.4850 C.2    84  GLU84       0.3649
    112  OE1       -7.9270  -12.1080    2.9310 O.co2  84  GLU84      -0.2457
    113  OE2       -7.5830   -9.9470    3.0870 O.co2  84  GLU84      -0.2457
    114  N         -4.0480  -11.6130    6.9640 N.am   85  LEU85      -0.1977
    115  CA        -2.6150  -11.5520    6.7000 C.3    85  LEU85       0.1596
    116  C         -2.3840  -12.1800    5.3230 C.2    85  LEU85       0.2287
    117  O         -3.3030  -12.7350    4.7210 O.2    85  LEU85      -0.2864
    118  CB        -1.8100  -12.3130    7.7590 C.3    85  LEU85       0.0297
    119  CG        -1.5430  -11.7980    9.1780 C.3    85  LEU85       0.0022
    120  CD1       -0.6620  -12.7970    9.9510 C.3    85  LEU85       0.0001
    121  CD2       -0.8870  -10.4060    9.1940 C.3    85  LEU85       0.0001
    122  N          4.3870  -10.9840    4.3890 N.3    89  GLY89      -0.1210
    123  CA         4.7930  -10.2980    5.6090 C.3    89  GLY89       0.1956
    124  C          4.8400   -8.7970    5.4750 C.2    89  GLY89       0.2611
    125  O          4.2810   -8.2260    4.5270 O.2    89  GLY89      -0.2717
    126  N          5.4930   -8.1590    6.4420 N.am   90  GLU90      -0.1979
    127  CA         5.6950   -6.7200    6.4250 C.3    90  GLU90       0.1602
    128  C          6.4960   -6.3310    5.1920 C.2    90  GLU90       0.2287
    129  O          7.3790   -7.0780    4.7300 O.2    90  GLU90      -0.2864
    130  CB         6.4010   -6.2350    7.6980 C.3    90  GLU90       0.0415
    131  CG         5.5340   -6.3320    8.9550 C.3    90  GLU90       0.1163
    132  CD         6.1810   -5.7500   10.1990 C.2    90  GLU90       0.3649
    133  OE1        7.3160   -5.2230   10.1290 O.co2  90  GLU90      -0.2457
    134  OE2        5.5260   -5.8060   11.2650 O.co2  90  GLU90      -0.2457
    135  N         -8.0780    8.2770    4.0310 N.3   121  LEU121     -0.1245
    136  CA        -8.1280    8.6850    5.4400 C.3   121  LEU121      0.1561
    137  C         -8.2320   10.2070    5.6100 C.2   121  LEU121      0.2260
    138  O         -8.9530   10.7010    6.4830 O.2   121  LEU121     -0.2867
    139  CB        -6.9360    8.1190    6.2140 C.3   121  LEU121      0.0270
    140  CG        -6.9760    6.5840    6.2810 C.3   121  LEU121      0.0019
    141  CD1       -5.7880    6.0600    7.0360 C.3   121  LEU121      0.0001
    142  CD2       -8.2860    6.1120    6.9280 C.3   121  LEU121      0.0001
    143  N         -6.3720   10.6430   11.1110 N.3   127  VAL127     -0.1231
    144  CA        -4.9200   10.7260   11.1580 C.3   127  VAL127      0.1692
    145  C         -4.3390    9.3790   11.5590 C.2   127  VAL127      0.2592
    146  O         -4.8370    8.7330   12.4630 O.2   127  VAL127     -0.2718
    147  CB        -4.4280   11.8860   12.0580 C.3   127  VAL127      0.0266
    148  CG1       -5.0700   13.2080   11.5900 C.3   127  VAL127      0.0020
    149  CG2       -4.7060   11.6380   13.5140 C.3   127  VAL127      0.0020
    150  N         -3.2960    8.9500   10.8580 N.am  128  HIS128     -0.1976
    151  CA        -2.6800    7.6660   11.1460 C.3   128  HIS128      0.1656
    152  C         -1.7270    7.7270   12.3530 C.2   128  HIS128      0.2291
    153  O         -1.8450    6.9200   13.2770 O.2   128  HIS128     -0.2864
    154  CB        -1.9400    7.1660    9.9090 C.3   128  HIS128      0.0771
    155  CG        -1.4560    5.7650   10.0410 C.ar  128  HIS128      0.0820
    156  ND1       -0.4030    5.4160   10.8590 N.ar  128  HIS128     -0.2267
    157  CD2       -1.8910    4.6170    9.4710 C.ar  128  HIS128      0.1154
    158  CE1       -0.2070    4.1120   10.7860 C.ar  128  HIS128      0.1986
    159  NE2       -1.1020    3.6020    9.9540 N.ar  128  HIS128     -0.2212
    160  N          1.6220   -4.2200    4.9530 N.3   137  LEU137     -0.1245
    161  CA         1.6720   -5.6320    4.5650 C.3   137  LEU137      0.1561
    162  C          1.7820   -5.7470    3.0600 C.2   137  LEU137      0.2260
    163  O          1.2700   -4.9020    2.3180 O.2   137  LEU137     -0.2867
    164  CB         0.4000   -6.3780    5.0110 C.3   137  LEU137      0.0270
    165  CG         0.1660   -6.6310    6.4980 C.3   137  LEU137      0.0019
    166  CD1       -1.2020   -7.3470    6.6790 C.3   137  LEU137      0.0001
    167  CD2        1.3000   -7.4350    7.0710 C.3   137  LEU137      0.0001
    168  N         -1.9390   -0.7430    3.9090 N.3   146  LEU146     -0.1231
    169  CA        -1.5750    0.0030    5.1020 C.3   146  LEU146      0.1693
    170  C         -2.3750   -0.4790    6.3030 C.2   146  LEU146      0.2593
    171  O         -3.6050   -0.6270    6.2200 O.2   146  LEU146     -0.2718
    172  CB        -1.8260    1.5130    4.8920 C.3   146  LEU146      0.0284
    173  CG        -1.4870    2.4500    6.0620 C.3   146  LEU146      0.0019
    174  CD1        0.0360    2.4490    6.3610 C.3   146  LEU146      0.0001
    175  CD2       -1.9870    3.8470    5.7370 C.3   146  LEU146      0.0001
    176  N         -1.6690   -0.7230    7.4110 N.am  147  GLY147     -0.1942
    177  CA        -2.3080   -1.0350    8.6810 C.3   147  GLY147      0.2014
    178  C         -1.8260   -0.1510    9.8100 C.2   147  GLY147      0.2639
    179  O         -1.1540    0.8580    9.5740 O.2   147  GLY147     -0.2714
    180  N         -2.1940   -0.5270   11.0290 N.am  148  ASP148     -0.1957
    181  CA        -1.7040    0.1420   12.2390 C.3   148  ASP148      0.1840
    182  C         -1.5130   -0.9370   13.3080 C.2   148  ASP148      0.2622
    183  O         -2.4500   -1.3050   14.0180 O.2   148  ASP148     -0.2715
    184  CB        -2.6270    1.2950   12.6870 C.3   148  ASP148      0.1450
    185  CG        -2.1080    2.0110   13.9300 C.2   148  ASP148      0.3671
    186  OD1       -1.0540    1.5980   14.4430 O.co2 148  ASP148     -0.2456
    187  OD2       -2.7690    2.9610   14.4110 O.co2 148  ASP148     -0.2456
    188  N         -0.2930   -1.4540   13.3810 N.am  149  PHE149     -0.1974
    189  CA         0.0030   -2.6300   14.2030 C.3   149  PHE149      0.1639
    190  C          0.6070   -2.2420   15.5570 C.2   149  PHE149      0.2290
    191  O          0.9230   -3.1120   16.3710 O.2   149  PHE149     -0.2864
    192  CB         0.9450   -3.5870   13.4560 C.3   149  PHE149      0.0560
    193  CG         0.5690   -3.8430   12.0090 C.ar  149  PHE149     -0.0200
    194  CD1       -0.7660   -3.9350   11.6080 C.ar  149  PHE149     -0.0042
    195  CD2        1.5660   -4.0290   11.0530 C.ar  149  PHE149     -0.0042
    196  CE1       -1.1000   -4.1780   10.2650 C.ar  149  PHE149     -0.0003
    197  CE2        1.2520   -4.2820    9.7190 C.ar  149  PHE149     -0.0003
    198  CZ        -0.0850   -4.3560    9.3200 C.ar  149  PHE149     -0.0000
@<TRIPOS>BOND
     1    82    83    1
     2   163   162    2
     3   112   111   ar
     4   162   161    1
     5   113   111   ar
     6    85    84    2
     7   111   110    1
     8    83    84    1
     9    83    86    1
    10    87    86    1
    11    87    89    1
    12   168   169    1
    13   135   136    1
    14    84    90   am
    15    86    88    1
    16   122   123    1
    17   125   124    2
    18   161   160    1
    19   161   164    1
    20    76    77    2
    21    76    75    1
    22   110   109    1
    23   117   116    2
    24   129   128    2
    25   172   169    1
    26   172   173    1
    27   164   165    1
    28   169   170    1
    29    90    91    1
    30   128   127    1
    31   116   115    1
    32   136   137    1
    33   136   139    1
    34   124   123    1
    35   124   126   am
    36   137   138    2
    37    75    78    1
    38    75    74    1
    39    91    92    1
    40    91    94    1
    41   175   173    1
    42   109   106    1
    43    92    93    2
    44   173   174    1
    45   139   140    1
    46   171   170    2
    47   140   142    1
    48   140   141    1
    49   170   176   am
    50    81    79    1
    51   127   126    1
    52   127   130    1
    53    78    79    1
    54   165   166    1
    55   165   167    1
    56   115   114    1
    57   115   118    1
    58    95    94    1
    59   114   107   am
    60    94    96    1
    61   107   108    2
    62   107   106    1
    63   106   105    1
    64    79    80    1
    65   176   177    1
    66   130   131    1
    67   118   119    1
    68   105    99   am
    69    69    68    2
    70   177   178    1
    71   131   132    1
    72   119   121    1
    73   119   120    1
    74   198   197   ar
    75   198   196   ar
    76   157   159   ar
    77   157   155   ar
    78    99   100    2
    79    99    98    1
    80    73    72    1
    81   179   178    2
    82    68    67    1
    83   197   195   ar
    84   178   180   am
    85   154   155    1
    86   154   151    1
    87   159   158   ar
    88   155   156   ar
    89   133   132   ar
    90   132   134   ar
    91   196   194   ar
    92   104   103    1
    93    61    60    2
    94    98   101    1
    95    98    97    1
    96    67    70    1
    97    67    66    1
    98    72    71    1
    99   158   156   ar
   100   150   151    1
   101   150   145   am
   102   180   181    1
   103   195   193   ar
   104   101   102    1
   105    70    71    1
   106   143   144    1
   107   151   152    1
   108   144   145    1
   109   144   147    1
   110    20    21    1
   111   145   146    2
   112   148   147    1
   113   194   193   ar
   114    60    66   am
   115    60    59    1
   116   103   102    1
   117   193   192    1
   118   147   149    1
   119   181   184    1
   120   181   182    1
   121   152   153    2
   122    64    62    1
   123    24    21    1
   124   184   185    1
   125    21    22    1
   126    59    62    1
   127    59    58    1
   128    23    22    2
   129   182   188   am
   130   182   183    2
   131   188   189    1
   132   192   189    1
   133    62    63    1
   134     8     6    1
   135     7     6    1
   136   185   187   ar
   137   185   186   ar
   138    52    51    2
   139   189   190    1
   140    63    65    1
   141     6     5    1
   142    57    55   ar
   143    51    50    1
   144    54    55    1
   145    54    53    1
   146   190   191    2
   147     5     2    1
   148    55    56   ar
   149    50    53    1
   150    50    49    1
   151    46    45    2
   152    18    17    1
   153     2     3    1
   154     2     1    1
   155    31    30    1
   156    31    32    1
   157    30    29    1
   158    25    26    1
   159     4     3    2
   160    45    49   am
   161    45    44    1
   162     3     9   am
   163    33    32    1
   164    17    19    1
   165    17    14    1
   166    29    26    1
   167    15    16    2
   168    15    14    1
   169    26    27    1
   170    44    47    1
   171    44    43    1
   172     9    10    1
   173    14    13    1
   174    47    48    1
   175    28    27    2
   176    10    11    1
   177    11    12    2
   178    37    36    2
   179    42    41    1
   180    41    40    1
   181    40    39    1
   182    36    35    1
   183    39    38    1
   184    35    38    1
   185    35    34    1
