@<TRIPOS>MOLECULE
tmp/3fztA00.pdb
 234 220 0 0 0
SMALL
GASTEIGER

@<TRIPOS>ATOM
      1  N          1.8230  -14.6010   16.6090 N.3    12  LEU12      -0.1245
      2  CA         2.3240  -13.6380   15.6290 C.3    12  LEU12       0.1561
      3  C          3.0950  -12.5380   16.3490 C.2    12  LEU12       0.2260
      4  O          4.1780  -12.1520   15.9200 O.2    12  LEU12      -0.2867
      5  CB         1.1690  -13.0100   14.8390 C.3    12  LEU12       0.0270
      6  CG         1.2770  -12.5880   13.3680 C.3    12  LEU12       0.0019
      7  CD1        0.4880  -11.2930   13.1130 C.3    12  LEU12       0.0001
      8  CD2        2.7090  -12.4880   12.8250 C.3    12  LEU12       0.0001
      9  N         -1.4120  -11.9630   19.6920 N.3    20  VAL20      -0.1245
     10  CA        -1.9910  -12.0240   18.3570 C.3    20  VAL20       0.1561
     11  C         -1.4610  -13.3210   17.7640 C.2    20  VAL20       0.2260
     12  O         -0.2520  -13.5860   17.8100 O.2    20  VAL20      -0.2867
     13  CB        -1.5630  -10.7970   17.4890 C.3    20  VAL20       0.0252
     14  CG1       -2.2430  -10.8090   16.1080 C.3    20  VAL20       0.0019
     15  CG2       -1.8720   -9.4950   18.2180 C.3    20  VAL20       0.0019
     16  N         -4.9050  -13.2200   11.1240 N.3    36  ALA36      -0.1245
     17  CA        -4.2070  -12.8030   12.3350 C.3    36  ALA36       0.1562
     18  C         -5.3040  -12.6460   13.3650 C.2    36  ALA36       0.2260
     19  O         -6.2220  -11.8480   13.1600 O.2    36  ALA36      -0.2867
     20  CB        -3.4900  -11.4660   12.1150 C.3    36  ALA36       0.0290
     21  N         -6.5150  -11.5800   16.9710 N.3    38  LYS38      -0.1245
     22  CA        -6.1590  -10.7060   18.0770 C.3    38  LYS38       0.1561
     23  C         -7.0190  -10.9970   19.2960 C.2    38  LYS38       0.2260
     24  O         -8.2250  -11.1070   19.1920 O.2    38  LYS38      -0.2867
     25  CB        -6.3270   -9.2320   17.6660 C.3    38  LYS38       0.0271
     26  CG        -5.7300   -8.8850   16.2630 C.3    38  LYS38       0.0035
     27  CD        -5.9410   -7.4190   15.9290 C.3    38  LYS38       0.0206
     28  CE        -5.2020   -6.5270   16.9100 C.3    38  LYS38       0.1093
     29  NZ        -4.9320   -5.1660   16.3110 N.3    38  LYS38      -0.1314
     30  N        -12.6780   -0.5470   23.9580 N.3    51  LYS51      -0.1245
     31  CA       -11.5750   -0.1170   23.0610 C.3    51  LYS51       0.1561
     32  C        -11.0690   -1.2450   22.1620 C.2    51  LYS51       0.2260
     33  O        -10.8850   -1.0440   20.9590 O.2    51  LYS51      -0.2867
     34  CB       -10.4010    0.4980   23.8500 C.3    51  LYS51       0.0271
     35  CG       -10.7620    1.8080   24.5190 C.3    51  LYS51       0.0035
     36  CD        -9.5770    2.5220   25.1380 C.3    51  LYS51       0.0206
     37  CE       -10.0660    3.8220   25.8080 C.3    51  LYS51       0.1093
     38  NZ        -8.9800    4.4540   26.6240 N.3    51  LYS51      -0.1314
     39  N        -13.7360   -2.0110   19.5950 N.3    54  SER54      -0.1202
     40  CA       -13.9970   -0.8570   18.7160 C.3    54  SER54       0.2020
     41  C        -13.2220   -0.9480   17.3960 C.2    54  SER54       0.2618
     42  O        -13.6550   -0.3950   16.3900 O.2    54  SER54      -0.2717
     43  CB       -13.6860    0.4660   19.4250 C.3    54  SER54       0.2103
     44  OG       -12.2900    0.7290   19.4590 O.3    54  SER54      -0.2182
     45  N        -12.0800   -1.6380   17.4050 N.am   55  GLU55      -0.1979
     46  CA       -11.3410   -1.8820   16.1730 C.3    55  GLU55       0.1602
     47  C        -12.1730   -2.6240   15.1430 C.2    55  GLU55       0.2287
     48  O        -12.1240   -2.2980   13.9650 O.2    55  GLU55      -0.2864
     49  CB       -10.0200   -2.6250   16.4120 C.3    55  GLU55       0.0415
     50  CG        -9.2250   -2.8290   15.1000 C.3    55  GLU55       0.1163
     51  CD        -7.8160   -3.3540   15.3300 C.2    55  GLU55       0.3649
     52  OE1       -7.6300   -4.1440   16.2850 O.co2  55  GLU55      -0.2457
     53  OE2       -6.8990   -2.9970   14.5430 O.co2  55  GLU55      -0.2457
     54  N        -15.0740   -0.3960   13.8570 N.3    58  ILE58      -0.1231
     55  CA       -14.5800    0.5750   12.8850 C.3    58  ILE58       0.1692
     56  C        -14.1660   -0.0900   11.5640 C.2    58  ILE58       0.2591
     57  O        -14.6450    0.3020   10.4940 O.2    58  ILE58      -0.2718
     58  CB       -13.4190    1.4390   13.4590 C.3    58  ILE58       0.0266
     59  CG1      -13.9540    2.3620   14.5540 C.3    58  ILE58       0.0019
     60  CG2      -12.7230    2.2840   12.3220 C.3    58  ILE58       0.0020
     61  CD1      -12.9450    2.7180   15.6090 C.3    58  ILE58       0.0001
     62  N        -13.2990   -1.1010   11.6480 N.am   59  MET59      -0.1979
     63  CA       -12.6670   -1.6960   10.4690 C.3    59  MET59       0.1605
     64  C        -13.6330   -2.4230    9.5210 C.2    59  MET59       0.2287
     65  O        -13.3330   -2.6040    8.3390 O.2    59  MET59      -0.2864
     66  CB       -11.5090   -2.6140   10.8730 C.3    59  MET59       0.0413
     67  CG       -10.2880   -1.9020   11.4700 C.3    59  MET59       0.0598
     68  SD        -9.6320   -0.5690   10.4240 S.3    59  MET59      -0.1393
     69  CE        -8.8210   -1.5480    9.1370 C.3    59  MET59       0.0692
     70  N        -14.0760   -0.3270    6.5210 N.3    62  LEU62      -0.1245
     71  CA       -12.9690   -0.0260    5.6230 C.3    62  LEU62       0.1561
     72  C        -12.8560   -1.1090    4.5470 C.2    62  LEU62       0.2260
     73  O        -12.7430   -2.3040    4.8600 O.2    62  LEU62      -0.2867
     74  CB       -11.6750    0.1640    6.4110 C.3    62  LEU62       0.0270
     75  CG       -11.6330    1.5440    7.0940 C.3    62  LEU62       0.0019
     76  CD1      -10.9350    1.5260    8.3920 C.3    62  LEU62       0.0001
     77  CD2      -10.9990    2.6060    6.1660 C.3    62  LEU62       0.0001
     78  N         -5.8160   -0.6480    2.1330 N.3    67  ILE67      -0.1231
     79  CA        -5.9590   -0.7050    3.5750 C.3    67  ILE67       0.1692
     80  C         -6.1610   -2.1690    3.9530 C.2    67  ILE67       0.2591
     81  O         -6.8060   -2.9300    3.2020 O.2    67  ILE67      -0.2718
     82  CB        -7.1070    0.2140    4.0850 C.3    67  ILE67       0.0266
     83  CG1       -6.7890    1.6960    3.7500 C.3    67  ILE67       0.0019
     84  CG2       -7.3220    0.0300    5.6080 C.3    67  ILE67       0.0020
     85  CD1       -7.7830    2.7350    4.3550 C.3    67  ILE67       0.0001
     86  N         -5.6050   -2.5740    5.0960 N.am   68  VAL68      -0.1980
     87  CA        -5.7880   -3.9390    5.6200 C.3    68  VAL68       0.1595
     88  C         -7.2540   -4.3170    5.7860 C.2    68  VAL68       0.2287
     89  O         -8.1030   -3.4490    5.9750 O.2    68  VAL68      -0.2864
     90  CB        -5.0820   -4.1550    6.9870 C.3    68  VAL68       0.0276
     91  CG1       -3.5470   -4.0400    6.8270 C.3    68  VAL68       0.0022
     92  CG2       -5.6260   -3.2010    8.0160 C.3    68  VAL68       0.0022
     93  N         -8.2830  -10.5620   11.5600 N.3    83  MET83      -0.1230
     94  CA        -7.8050   -9.7110   10.4840 C.3    83  MET83       0.1702
     95  C         -7.2550  -10.6220    9.4360 C.2    83  MET83       0.2592
     96  O         -6.8370  -11.7540    9.7480 O.2    83  MET83      -0.2718
     97  CB        -6.6800   -8.8000   10.9890 C.3    83  MET83       0.0401
     98  CG        -7.0870   -7.7750   12.0700 C.3    83  MET83       0.0596
     99  SD        -8.3850   -6.6240   11.5990 S.3    83  MET83      -0.1393
    100  CE        -7.5690   -5.6230   10.3510 C.3    83  MET83       0.0692
    101  N         -7.2280  -10.1490    8.1950 N.am   84  GLU84      -0.1966
    102  CA        -6.5180  -10.8670    7.1650 C.3    84  GLU84       0.1733
    103  C         -5.0250  -10.8780    7.4450 C.2    84  GLU84       0.2616
    104  O         -4.4460   -9.8590    7.8580 O.2    84  GLU84      -0.2715
    105  CB        -6.7840  -10.2870    5.7730 C.3    84  GLU84       0.0429
    106  CG        -6.2410  -11.1930    4.6660 C.3    84  GLU84       0.1163
    107  CD        -6.7460  -10.8350    3.2890 C.2    84  GLU84       0.3649
    108  OE1       -6.2360  -11.4080    2.3030 O.co2  84  GLU84      -0.2457
    109  OE2       -7.6480   -9.9950    3.1880 O.co2  84  GLU84      -0.2457
    110  N         -4.4130  -12.0360    7.2370 N.am   85  LEU85      -0.1963
    111  CA        -2.9720  -12.1890    7.3900 C.3    85  LEU85       0.1728
    112  C         -2.3300  -12.1910    6.0150 C.2    85  LEU85       0.2616
    113  O         -2.8180  -12.8380    5.0830 O.2    85  LEU85      -0.2715
    114  CB        -2.6220  -13.4760    8.1510 C.3    85  LEU85       0.0311
    115  CG        -1.1560  -13.7120    8.5120 C.3    85  LEU85       0.0022
    116  CD1       -0.9010  -13.3240    9.9580 C.3    85  LEU85       0.0001
    117  CD2       -0.7940  -15.1570    8.2670 C.3    85  LEU85       0.0001
    118  N         -1.2460  -11.4290    5.8940 N.am   86  TYR86      -0.1974
    119  CA        -0.5160  -11.2950    4.6520 C.3    86  TYR86       0.1639
    120  C          0.8340  -11.9850    4.8710 C.2    86  TYR86       0.2290
    121  O          1.7100  -11.4340    5.5320 O.2    86  TYR86      -0.2864
    122  CB        -0.3870   -9.8020    4.2970 C.3    86  TYR86       0.0560
    123  CG        -1.7500   -9.1080    4.2610 C.ar   86  TYR86      -0.0198
    124  CD1       -2.5960   -9.2440    3.1470 C.ar   86  TYR86      -0.0009
    125  CD2       -2.2070   -8.3510    5.3450 C.ar   86  TYR86      -0.0009
    126  CE1       -3.8420   -8.6560    3.1180 C.ar   86  TYR86       0.0417
    127  CE2       -3.4670   -7.7340    5.3110 C.ar   86  TYR86       0.0417
    128  CZ        -4.2700   -7.8900    4.1910 C.ar   86  TYR86       0.1957
    129  OH        -5.5180   -7.3040    4.1430 O.3    86  TYR86      -0.2866
    130  N          4.2690  -10.4580    4.8600 N.3    89  GLY89      -0.1210
    131  CA         4.5750   -9.6470    6.0330 C.3    89  GLY89       0.1956
    132  C          4.8030   -8.1860    5.7060 C.2    89  GLY89       0.2611
    133  O          4.3760   -7.7010    4.6560 O.2    89  GLY89      -0.2717
    134  N          5.5240   -7.5120    6.5950 N.am   90  GLU90      -0.1979
    135  CA         5.7540   -6.0730    6.5150 C.3    90  GLU90       0.1602
    136  C          6.5850   -5.6930    5.3190 C.2    90  GLU90       0.2287
    137  O          7.4900   -6.4250    4.9010 O.2    90  GLU90      -0.2864
    138  CB         6.4260   -5.5790    7.7810 C.3    90  GLU90       0.0415
    139  CG         5.5620   -5.7190    9.0220 C.3    90  GLU90       0.1163
    140  CD         6.3490   -5.4040   10.2770 C.2    90  GLU90       0.3649
    141  OE1        7.4850   -4.8960   10.1340 O.co2  90  GLU90      -0.2457
    142  OE2        5.8430   -5.6790   11.3920 O.co2  90  GLU90      -0.2457
    143  N         -8.1680    8.5960    4.0230 N.3   121  LEU121     -0.1245
    144  CA        -8.2290    9.0120    5.4450 C.3   121  LEU121      0.1561
    145  C         -8.3270   10.5380    5.5900 C.2   121  LEU121      0.2260
    146  O         -9.0780   11.0410    6.4210 O.2   121  LEU121     -0.2867
    147  CB        -7.0450    8.4790    6.2350 C.3   121  LEU121      0.0270
    148  CG        -7.0190    6.9500    6.4000 C.3   121  LEU121      0.0019
    149  CD1       -5.7640    6.5750    7.1600 C.3   121  LEU121      0.0001
    150  CD2       -8.2940    6.3720    7.0690 C.3   121  LEU121      0.0001
    151  N         -6.3950   10.9070   11.0970 N.3   127  VAL127     -0.1231
    152  CA        -4.9390   10.9100   11.0680 C.3   127  VAL127      0.1692
    153  C         -4.4270    9.5290   11.4250 C.2   127  VAL127      0.2592
    154  O         -5.0280    8.8260   12.2400 O.2   127  VAL127     -0.2718
    155  CB        -4.2930   12.0110   11.9780 C.3   127  VAL127      0.0266
    156  CG1       -4.9040   13.3980   11.6780 C.3   127  VAL127      0.0020
    157  CG2       -4.4330   11.6670   13.4480 C.3   127  VAL127      0.0020
    158  N         -3.3230    9.1380   10.8100 N.am  128  HIS128     -0.1976
    159  CA        -2.7240    7.8410   11.0850 C.3   128  HIS128      0.1656
    160  C         -1.7730    7.8950   12.3010 C.2   128  HIS128      0.2291
    161  O         -1.8700    7.0550   13.1770 O.2   128  HIS128     -0.2864
    162  CB        -1.9970    7.3360    9.8470 C.3   128  HIS128      0.0771
    163  CG        -1.5130    5.9240    9.9680 C.ar  128  HIS128      0.0820
    164  ND1       -0.4420    5.5680   10.7570 N.ar  128  HIS128     -0.2267
    165  CD2       -1.9590    4.7780    9.4040 C.ar  128  HIS128      0.1154
    166  CE1       -0.2380    4.2630   10.6670 C.ar  128  HIS128      0.1986
    167  NE2       -1.1480    3.7610    9.8530 N.ar  128  HIS128     -0.2212
    168  N          1.7490   -3.7570    4.8820 N.3   137  LEU137     -0.1245
    169  CA         1.9070   -5.1980    4.6130 C.3   137  LEU137      0.1561
    170  C          1.7650   -5.4870    3.1370 C.2   137  LEU137      0.2260
    171  O          1.0070   -4.8180    2.4280 O.2   137  LEU137     -0.2867
    172  CB         0.9040   -6.0380    5.4130 C.3   137  LEU137      0.0270
    173  CG         0.8600   -5.6540    6.8930 C.3   137  LEU137      0.0019
    174  CD1       -0.3930   -6.1590    7.4960 C.3   137  LEU137      0.0001
    175  CD2        2.0810   -6.1580    7.6410 C.3   137  LEU137      0.0001
    176  N         -2.0820   -0.5670    3.9220 N.3   146  LEU146     -0.1231
    177  CA        -1.7230    0.2080    5.1050 C.3   146  LEU146      0.1693
    178  C         -2.4820   -0.3060    6.3140 C.2   146  LEU146      0.2593
    179  O         -3.7040   -0.5110    6.2500 O.2   146  LEU146     -0.2718
    180  CB        -2.0360    1.6970    4.8790 C.3   146  LEU146      0.0284
    181  CG        -1.7710    2.6980    6.0150 C.3   146  LEU146      0.0019
    182  CD1       -0.2650    2.8500    6.2410 C.3   146  LEU146      0.0001
    183  CD2       -2.4340    4.0440    5.7020 C.3   146  LEU146      0.0001
    184  N         -1.7580   -0.4990    7.4170 N.am  147  GLY147     -0.1942
    185  CA        -2.3720   -0.8490    8.6810 C.3   147  GLY147      0.2014
    186  C         -2.0090    0.1530    9.7460 C.2   147  GLY147      0.2639
    187  O         -1.3010    1.1370    9.4620 O.2   147  GLY147     -0.2714
    188  N         -2.4920   -0.0930   10.9660 N.am  148  ASP148     -0.1957
    189  CA        -2.1490    0.7220   12.1400 C.3   148  ASP148      0.1840
    190  C         -2.2050   -0.2330   13.3500 C.2   148  ASP148      0.2622
    191  O         -3.2510   -0.4090   13.9910 O.2   148  ASP148     -0.2715
    192  CB        -3.1330    1.8920   12.2750 C.3   148  ASP148      0.1450
    193  CG        -2.8010    2.8250   13.4260 C.2   148  ASP148      0.3671
    194  OD1       -1.6380    2.8600   13.8880 O.co2 148  ASP148     -0.2456
    195  OD2       -3.7190    3.5550   13.8570 O.co2 148  ASP148     -0.2456
    196  N         -1.0760   -0.8820   13.6190 N.am  149  PHE149     -0.1974
    197  CA        -1.0420   -1.9820   14.5720 C.3   149  PHE149      0.1639
    198  C          0.2160   -1.9830   15.4510 C.2   149  PHE149      0.2290
    199  O          0.5290   -2.9830   16.0900 O.2   149  PHE149     -0.2864
    200  CB        -1.2520   -3.3330   13.8440 C.3   149  PHE149      0.0560
    201  CG        -0.2420   -3.6160   12.7540 C.ar  149  PHE149     -0.0200
    202  CD1       -0.4590   -3.1830   11.4520 C.ar  149  PHE149     -0.0042
    203  CD2        0.9140   -4.3360   13.0310 C.ar  149  PHE149     -0.0042
    204  CE1        0.4670   -3.4370   10.4490 C.ar  149  PHE149     -0.0003
    205  CE2        1.8500   -4.6120   12.0310 C.ar  149  PHE149     -0.0003
    206  CZ         1.6280   -4.1580   10.7380 C.ar  149  PHE149     -0.0000
    207  N         -1.1360    3.6960   20.2290 N.3   153  ARG153     -0.1245
    208  CA        -2.3700    3.9930   19.4830 C.3   153  ARG153      0.1563
    209  C         -3.3650    4.8960   20.1990 C.2   153  ARG153      0.2260
    210  O         -4.3290    5.3590   19.5880 O.2   153  ARG153     -0.2867
    211  CB        -3.0680    2.7140   19.0080 C.3   153  ARG153      0.0307
    212  CG        -2.6810    2.3070   17.5870 C.3   153  ARG153      0.0489
    213  CD        -3.8450    1.6490   16.8670 C.3   153  ARG153      0.2205
    214  NE        -4.7330    2.6320   16.2400 N.pl3 153  ARG153     -0.0865
    215  CZ        -5.8510    3.1230   16.7700 C.cat 153  ARG153      0.5346
    216  NH1       -6.2580    2.7550   17.9870 N.pl3 153  ARG153      0.1354
    217  NH2       -6.5700    4.0060   16.0790 N.pl3 153  ARG153      0.1354
    218  N        -10.5250    6.7570   13.2900 N.3   154  ASP154     -0.1225
    219  CA       -10.4710    6.7080   14.7510 C.3   154  ASP154      0.1805
    220  C         -9.5530    7.7710   15.4070 C.2   154  ASP154      0.2597
    221  O         -9.9200    8.3110   16.4390 O.2   154  ASP154     -0.2718
    222  CB       -10.2250    5.2640   15.2200 C.3   154  ASP154      0.1424
    223  CG       -10.1010    5.1150   16.7230 C.2   154  ASP154      0.3668
    224  OD1       -8.9690    5.1600   17.2000 O.co2 154  ASP154     -0.2456
    225  OD2      -11.1110    4.8790   17.4280 O.co2 154  ASP154     -0.2456
    226  N         -8.4030    8.1170   14.8150 N.am  155  GLU155     -0.1979
    227  CA        -7.6100    9.2300   15.3780 C.3   155  GLU155      0.1602
    228  C         -7.9930   10.5680   14.7110 C.2   155  GLU155      0.2287
    229  O         -8.0280   10.6780   13.4790 O.2   155  GLU155     -0.2864
    230  CB        -6.0900    8.9620   15.3250 C.3   155  GLU155      0.0415
    231  CG        -5.5690    7.9660   16.4140 C.3   155  GLU155      0.1163
    232  CD        -4.5640    6.9550   15.8820 C.2   155  GLU155      0.3649
    233  OE1       -4.3060    6.9210   14.6630 O.co2 155  GLU155     -0.2457
    234  OE2       -4.0310    6.1720   16.6910 O.co2 155  GLU155     -0.2457
@<TRIPOS>BOND
     1    78    79    1
     2   108   107   ar
     3   171   170    2
     4   126   124   ar
     5   126   128   ar
     6   170   169    1
     7   124   123   ar
     8   109   107   ar
     9    81    80    2
    10   107   106    1
    11    79    80    1
    12    79    82    1
    13    83    82    1
    14    83    85    1
    15   176   177    1
    16    80    86   am
    17   143   144    1
    18    82    84    1
    19   129   128    1
    20   128   127   ar
    21   123   122    1
    22   123   125   ar
    23   122   119    1
    24    72    73    2
    25    72    71    1
    26   169   168    1
    27   169   172    1
    28   119   120    1
    29   119   118    1
    30   133   132    2
    31   106   105    1
    32   130   131    1
    33   120   121    2
    34   180   177    1
    35   180   181    1
    36   137   136    2
    37   113   112    2
    38    86    87    1
    39   177   178    1
    40   127   125   ar
    41   136   135    1
    42   172   173    1
    43   144   145    1
    44   144   147    1
    45   145   146    2
    46    87    88    1
    47    87    90    1
    48    71    74    1
    49    71    70    1
    50   183   181    1
    51   132   131    1
    52   132   134   am
    53   105   102    1
    54    88    89    2
    55   118   112   am
    56   112   111    1
    57   181   182    1
    58    77    75    1
    59   147   148    1
    60   179   178    2
    61   178   184   am
    62   148   150    1
    63   148   149    1
    64    74    75    1
    65   135   134    1
    66   135   138    1
    67    91    90    1
    68   173   174    1
    69   173   175    1
    70    90    92    1
    71    75    76    1
    72   102   103    1
    73   102   101    1
    74   110   111    1
    75   110   103   am
    76   111   114    1
    77   184   185    1
    78   103   104    2
    79   138   139    1
    80   114   115    1
    81   101    95   am
    82   117   115    1
    83    65    64    2
    84   115   116    1
    85   185   186    1
    86   139   140    1
    87    69    68    1
    88   165   167   ar
    89   165   163   ar
    90    95    96    2
    91    95    94    1
    92   187   186    2
    93    64    63    1
    94   186   188   am
    95   162   163    1
    96   162   159    1
    97   167   166   ar
    98   163   164   ar
    99   141   140   ar
   100   140   142   ar
   101   100    99    1
   102    68    67    1
   103   204   206   ar
   104   204   202   ar
   105    63    66    1
   106    63    62    1
   107    94    97    1
   108    94    93    1
   109    57    56    2
   110   166   164   ar
   111   206   205   ar
   112   158   159    1
   113   158   153   am
   114    66    67    1
   115   188   189    1
   116    97    98    1
   117   152   151    1
   118   152   153    1
   119   152   155    1
   120   159   160    1
   121    16    17    1
   122   153   154    2
   123   202   201   ar
   124    56    62   am
   125    56    55    1
   126    99    98    1
   127   156   155    1
   128   155   157    1
   129   205   203   ar
   130    20    17    1
   131   189   192    1
   132   189   190    1
   133   192   193    1
   134   160   161    2
   135    60    58    1
   136    17    18    1
   137   201   203   ar
   138   201   200    1
   139     8     6    1
   140    55    58    1
   141    55    54    1
   142     7     6    1
   143    19    18    2
   144   218   219    1
   145   190   196   am
   146   190   191    2
   147     6     5    1
   148   193   195   ar
   149   193   194   ar
   150    58    59    1
   151   229   228    2
   152   196   197    1
   153   200   197    1
   154    48    47    2
   155    53    51   ar
   156    59    61    1
   157   197   198    1
   158   233   232   ar
   159   228   227    1
   160   219   222    1
   161   219   220    1
   162   226   227    1
   163   226   220   am
   164     5     2    1
   165    50    51    1
   166    50    49    1
   167    47    46    1
   168   222   223    1
   169   230   227    1
   170   230   231    1
   171    51    52   ar
   172   220   221    2
   173   198   199    2
   174     2     3    1
   175     2     1    1
   176   232   231    1
   177   232   234   ar
   178     4     3    2
   179    27    26    1
   180    27    28    1
   181   217   215    1
   182    14    13    1
   183    46    49    1
   184    46    45    1
   185   214   215    2
   186   214   213    1
   187    26    25    1
   188    29    28    1
   189    42    41    2
   190   223   224   ar
   191   223   225   ar
   192   215   216    1
   193   213   212    1
   194    21    22    1
   195    41    45   am
   196    41    40    1
   197    13    15    1
   198    13    10    1
   199   212   211    1
   200    25    22    1
   201    11    12    2
   202    11    10    1
   203    22    23    1
   204    10     9    1
   205    40    43    1
   206    40    39    1
   207   211   208    1
   208    24    23    2
   209    43    44    1
   210   208   209    1
   211   208   207    1
   212   210   209    2
   213    33    32    2
   214    32    31    1
   215    31    34    1
   216    31    30    1
   217    34    35    1
   218    35    36    1
   219    36    37    1
   220    37    38    1
