@<TRIPOS>MOLECULE
tmp/3fzwB00.pdb
 140 132 0 0 0
SMALL
GASTEIGER

@<TRIPOS>ATOM
      1  N         14.8970    4.6910   12.8470 N.3    14  TYR14      -0.1241
      2  CA        14.1400    3.4760   12.8150 C.3    14  TYR14       0.1605
      3  C         15.0720    2.2850   13.1160 C.2    14  TYR14       0.2264
      4  O         14.7330    1.3990   13.9300 O.2    14  TYR14      -0.2867
      5  CB        13.4500    3.3450   11.4270 C.3    14  TYR14       0.0534
      6  CG        12.8900    1.9330   11.2030 C.ar   14  TYR14      -0.0201
      7  CD1       11.5690    1.6470   11.5720 C.ar   14  TYR14      -0.0009
      8  CD2       13.6620    0.9410   10.6230 C.ar   14  TYR14      -0.0009
      9  CE1       11.0590    0.3880   11.4230 C.ar   14  TYR14       0.0417
     10  CE2       13.1780   -0.3480   10.4520 C.ar   14  TYR14       0.0417
     11  CZ        11.8420   -0.6060   10.8750 C.ar   14  TYR14       0.1957
     12  OH        11.3440   -1.9020   10.7310 O.3    14  TYR14      -0.2866
     13  N         14.7490   -0.4580   16.2060 N.3    18  VAL18      -0.1245
     14  CA        14.6870   -1.9040   16.0520 C.3    18  VAL18       0.1561
     15  C         15.8640   -2.5180   16.8550 C.2    18  VAL18       0.2260
     16  O         15.7020   -3.5570   17.5340 O.2    18  VAL18      -0.2867
     17  CB        14.7700   -2.2770   14.5740 C.3    18  VAL18       0.0252
     18  CG1       14.9810   -3.7680   14.3910 C.3    18  VAL18       0.0019
     19  CG2       13.5410   -1.7460   13.8440 C.3    18  VAL18       0.0019
     20  N          6.5310   -6.9490    4.4950 N.3    38  ASN38      -0.1240
     21  CA         7.7800   -7.4370    5.1230 C.3    38  ASN38       0.1653
     22  C          7.6300   -8.9150    5.3560 C.2    38  ASN38       0.2266
     23  O          6.9510   -9.3230    6.3030 O.2    38  ASN38      -0.2867
     24  CB         7.9850   -6.7230    6.4320 C.3    38  ASN38       0.1155
     25  CG         9.3210   -7.1100    7.0400 C.2    38  ASN38       0.2627
     26  OD1        9.9610   -8.0700    6.6010 O.2    38  ASN38      -0.2716
     27  ND2        9.7650   -6.3810    8.0630 N.am   38  ASN38      -0.0877
     28  N          3.1900   -7.0770   14.6250 N.3    54  PHE54      -0.1227
     29  CA         4.3290   -7.5280   13.8600 C.3    54  PHE54       0.1736
     30  C          5.6730   -7.3490   14.5880 C.2    54  PHE54       0.2595
     31  O          6.5060   -8.2550   14.6900 O.2    54  PHE54      -0.2718
     32  CB         4.3300   -6.8060   12.4930 C.3    54  PHE54       0.0547
     33  CG         5.4720   -7.1890   11.6950 C.ar   54  PHE54      -0.0202
     34  CD1        5.3600   -8.2660   10.8100 C.ar   54  PHE54      -0.0042
     35  CD2        6.7430   -6.5960   11.9260 C.ar   54  PHE54      -0.0042
     36  CE1        6.4320   -8.6300   10.0750 C.ar   54  PHE54      -0.0003
     37  CE2        7.8740   -6.9730   11.1990 C.ar   54  PHE54      -0.0003
     38  CZ         7.7140   -8.0510   10.2730 C.ar   54  PHE54      -0.0000
     39  N          5.8680   -6.1640   15.1310 N.am   55  TYR55      -0.1976
     40  CA         7.1340   -5.8800   15.8290 C.3    55  TYR55       0.1639
     41  C          7.2070   -6.5940   17.1540 C.2    55  TYR55       0.2290
     42  O          8.3120   -7.0140   17.5830 O.2    55  TYR55      -0.2864
     43  CB         7.3780   -4.3640   15.9800 C.3    55  TYR55       0.0560
     44  CG         7.7870   -3.7560   14.6480 C.ar   55  TYR55      -0.0198
     45  CD1        9.1230   -3.8650   14.2260 C.ar   55  TYR55      -0.0009
     46  CD2        6.8490   -3.1040   13.7970 C.ar   55  TYR55      -0.0009
     47  CE1        9.5030   -3.3400   13.0420 C.ar   55  TYR55       0.0417
     48  CE2        7.2200   -2.5540   12.6230 C.ar   55  TYR55       0.0417
     49  CZ         8.5530   -2.7140   12.1970 C.ar   55  TYR55       0.1957
     50  OH         8.9740   -2.1720   10.9670 O.3    55  TYR55      -0.2866
     51  N          8.1790  -10.1340   16.1990 N.3    58  GLY58      -0.1210
     52  CA         9.5690  -10.2410   15.7380 C.3    58  GLY58       0.1956
     53  C         10.6120   -9.8510   16.7080 C.2    58  GLY58       0.2611
     54  O         11.7260  -10.4000   16.6300 O.2    58  GLY58      -0.2717
     55  N         10.3480   -8.9020   17.6060 N.am   59  LEU59      -0.1979
     56  CA        11.4020   -8.4000   18.4930 C.3    59  LEU59       0.1596
     57  C         11.1460   -8.7200   19.9550 C.2    59  LEU59       0.2287
     58  O         12.0850   -8.5830   20.7460 O.2    59  LEU59      -0.2864
     59  CB        11.5330   -6.8740   18.3820 C.3    59  LEU59       0.0297
     60  CG        11.6500   -6.3110   16.9640 C.3    59  LEU59       0.0022
     61  CD1       11.7740   -4.8030   16.9880 C.3    59  LEU59       0.0001
     62  CD2       12.9700   -6.9050   16.3140 C.3    59  LEU59       0.0001
     63  N         17.4020   -9.9360   19.2830 N.3    64  VAL64      -0.1245
     64  CA        17.5200   -9.4400   17.8850 C.3    64  VAL64       0.1561
     65  C         18.2620   -8.1200   17.8710 C.2    64  VAL64       0.2260
     66  O         17.9970   -7.2520   18.7290 O.2    64  VAL64      -0.2867
     67  CB        16.0790   -9.2110   17.2910 C.3    64  VAL64       0.0252
     68  CG1       16.1380   -8.6000   15.9010 C.3    64  VAL64       0.0019
     69  CG2       15.3660  -10.5510   17.1980 C.3    64  VAL64       0.0019
     70  N         20.6900   -3.0190    5.6660 N.3    84  PHE84      -0.1241
     71  CA        20.9930   -3.3380    7.0420 C.3    84  PHE84       0.1605
     72  C         20.9940   -4.8400    7.2510 C.2    84  PHE84       0.2264
     73  O         20.7160   -5.5960    6.3460 O.2    84  PHE84      -0.2867
     74  CB        20.1020   -2.6840    8.0660 C.3    84  PHE84       0.0534
     75  CG        18.6020   -3.0380    7.8860 C.ar   84  PHE84      -0.0203
     76  CD1       17.8140   -2.5430    6.8330 C.ar   84  PHE84      -0.0042
     77  CD2       18.0250   -3.9150    8.8250 C.ar   84  PHE84      -0.0042
     78  CE1       16.4630   -2.8590    6.7530 C.ar   84  PHE84      -0.0003
     79  CE2       16.6560   -4.2670    8.7220 C.ar   84  PHE84      -0.0003
     80  CZ        15.9240   -3.7120    7.6450 C.ar   84  PHE84      -0.0000
     81  N         20.0700   -7.8260   10.0890 N.3    86  VAL86      -0.1245
     82  CA        19.3350   -8.2240   11.2820 C.3    86  VAL86       0.1561
     83  C         20.0350   -9.4760   11.8640 C.2    86  VAL86       0.2260
     84  O         20.2840  -10.4580   11.1360 O.2    86  VAL86      -0.2867
     85  CB        17.8450   -8.5520   11.0000 C.3    86  VAL86       0.0252
     86  CG1       17.1580   -8.9920   12.2880 C.3    86  VAL86       0.0019
     87  CG2       17.1360   -7.3070   10.4330 C.3    86  VAL86       0.0019
     88  N         19.8580  -12.6180   14.7280 N.3    88  MET88      -0.1245
     89  CA        18.8630  -13.3910   15.4970 C.3    88  MET88       0.1570
     90  C         19.4710  -14.7260   15.8710 C.2    88  MET88       0.2261
     91  O         20.5910  -15.0910   15.3740 O.2    88  MET88      -0.2867
     92  CB        17.6370  -13.6930   14.6000 C.3    88  MET88       0.0387
     93  CG        17.9260  -14.5890   13.4040 C.3    88  MET88       0.0595
     94  SD        16.6600  -14.3870   12.2250 S.3    88  MET88      -0.1393
     95  CE        17.1830  -12.7820   11.6180 C.3    88  MET88       0.0692
     96  N         20.5700  -11.6920    8.6990 N.3    97  LEU97      -0.1245
     97  CA        19.6700  -11.6020    7.5710 C.3    97  LEU97       0.1561
     98  C         19.9420  -10.2290    6.9670 C.2    97  LEU97       0.2260
     99  O         19.8000   -9.2080    7.6520 O.2    97  LEU97      -0.2867
    100  CB        18.2110  -11.6870    8.0700 C.3    97  LEU97       0.0270
    101  CG        17.1590  -11.6160    6.9430 C.3    97  LEU97       0.0019
    102  CD1       17.2100  -12.7840    5.9670 C.3    97  LEU97       0.0001
    103  CD2       15.7970  -11.5190    7.6450 C.3    97  LEU97       0.0001
    104  N         18.9120   -7.1190    4.6360 N.3    99  VAL99      -0.1245
    105  CA        17.5780   -6.6190    4.2710 C.3    99  VAL99       0.1561
    106  C         17.8050   -5.2010    3.6590 C.2    99  VAL99       0.2260
    107  O         18.7880   -4.5090    4.0500 O.2    99  VAL99      -0.2867
    108  CB        16.7270   -6.4300    5.5480 C.3    99  VAL99       0.0252
    109  CG1       15.2500   -5.9530    5.2000 C.3    99  VAL99       0.0019
    110  CG2       16.5610   -7.7430    6.2620 C.3    99  VAL99       0.0019
    111  N         15.3460   -1.8170    3.3270 N.3   101  ASN101     -0.1240
    112  CA        14.0070   -1.2530    3.5180 C.3   101  ASN101      0.1653
    113  C         13.8640   -0.0590    2.6160 C.2   101  ASN101      0.2266
    114  O         14.7380    0.7760    2.5360 O.2   101  ASN101     -0.2867
    115  CB        13.7620   -0.7760    4.9490 C.3   101  ASN101      0.1155
    116  CG        13.3860   -1.9270    5.8810 C.2   101  ASN101      0.2627
    117  OD1       13.3490   -3.1070    5.4720 O.2   101  ASN101     -0.2716
    118  ND2       13.2230   -1.5920    7.1800 N.am  101  ASN101     -0.0877
    119  N          6.1990    1.0210    4.0390 N.3   114  MET114     -0.1245
    120  CA         7.5170    0.4010    4.1700 C.3   114  MET114      0.1570
    121  C          7.5230   -0.9150    3.4650 C.2   114  MET114      0.2261
    122  O          6.5600   -1.6750    3.5290 O.2   114  MET114     -0.2867
    123  CB         7.8870    0.1420    5.5930 C.3   114  MET114      0.0387
    124  CG         9.3460   -0.1750    5.6920 C.3   114  MET114      0.0595
    125  SD         9.5560   -1.9740    5.5760 S.3   114  MET114     -0.1393
    126  CE         9.4910   -2.5610    7.3100 C.3   114  MET114      0.0692
    127  N         13.8690   -8.9100    1.1450 N.3   118  TRP118     -0.1241
    128  CA        14.7500  -10.0250    1.6410 C.3   118  TRP118      0.1605
    129  C         14.0250  -11.3100    1.3780 C.2   118  TRP118      0.2264
    130  O         12.7560  -11.3310    1.2780 O.2   118  TRP118     -0.2867
    131  CB        15.0400   -9.8750    3.1350 C.3   118  TRP118      0.0550
    132  CG        13.8600  -10.0190    4.0170 C.ar  118  TRP118      0.0003
    133  CD1       13.0350   -8.9600    4.5310 C.ar  118  TRP118      0.0946
    134  CD2       13.4100  -11.2430    4.6890 C.ar  118  TRP118      0.0152
    135  NE1       12.1050   -9.5360    5.4010 N.ar  118  TRP118     -0.2442
    136  CE2       12.2570  -10.9030    5.4550 C.ar  118  TRP118      0.0810
    137  CE3       13.8130  -12.5840    4.6100 C.ar  118  TRP118      0.0012
    138  CZ2       11.5910  -11.8600    6.2380 C.ar  118  TRP118      0.0191
    139  CZ3       13.1310  -13.5340    5.3090 C.ar  118  TRP118      0.0001
    140  CH2       12.0180  -13.1860    6.0960 C.ar  118  TRP118      0.0015
@<TRIPOS>BOND
     1   127   128    1
     2   130   129    2
     3   129   128    1
     4   128   131    1
     5   114   113    2
     6   113   112    1
     7   131   132    1
     8   111   112    1
     9   121   122    2
    10   121   120    1
    11   112   115    1
    12   106   107    2
    13   106   105    1
    14   132   133   ar
    15   132   134   ar
    16   119   120    1
    17   120   123    1
    18   105   104    1
    19   105   108    1
    20    20    21    1
    21   133   135   ar
    22   137   134   ar
    23   137   139   ar
    24   134   136   ar
    25   115   116    1
    26    21    22    1
    27    21    24    1
    28   109   108    1
    29   139   140   ar
    30    22    23    2
    31   135   136   ar
    32   136   138   ar
    33   117   116    2
    34   108   110    1
    35   125   124    1
    36   125   126    1
    37   123   124    1
    38    70    71    1
    39   116   118   am
    40   102   101    1
    41   140   138   ar
    42    73    72    2
    43    24    25    1
    44    26    25    2
    45    78    76   ar
    46    78    80   ar
    47    76    75   ar
    48   101   103    1
    49   101   100    1
    50    98    97    1
    51    98    99    2
    52    25    27   am
    53    71    72    1
    54    71    74    1
    55    97   100    1
    56    97    96    1
    57    80    79   ar
    58    75    74    1
    59    75    77   ar
    60    79    77   ar
    61    36    38   ar
    62    36    34   ar
    63    81    82    1
    64    38    37   ar
    65    87    85    1
    66    10     8   ar
    67    10    11   ar
    68     8     6   ar
    69    12    11    1
    70    34    33   ar
    71    11     9   ar
    72    50    49    1
    73    85    82    1
    74    85    86    1
    75    84    83    2
    76    37    35   ar
    77     6     5    1
    78     6     7   ar
    79    82    83    1
    80     9     7   ar
    81     5     2    1
    82    95    94    1
    83    33    35   ar
    84    33    32    1
    85    49    48   ar
    86    49    47   ar
    87    94    93    1
    88    32    29    1
    89    48    46   ar
    90     2     1    1
    91     2     3    1
    92    47    45   ar
    93     3     4    2
    94    93    92    1
    95    46    44   ar
    96    19    17    1
    97    29    30    1
    98    29    28    1
    99    45    44   ar
   100    18    17    1
   101    17    14    1
   102    30    31    2
   103    30    39   am
   104    92    89    1
   105    44    43    1
   106    88    89    1
   107    39    40    1
   108    91    90    2
   109    89    90    1
   110    52    51    1
   111    52    53    1
   112    40    43    1
   113    40    41    1
   114    68    67    1
   115    14    13    1
   116    14    15    1
   117    62    60    1
   118    54    53    2
   119    53    55   am
   120    15    16    2
   121    60    61    1
   122    60    59    1
   123    41    42    2
   124    69    67    1
   125    67    64    1
   126    55    56    1
   127    65    64    1
   128    65    66    2
   129    64    63    1
   130    59    56    1
   131    56    57    1
   132    57    58    2
