@<TRIPOS>MOLECULE
tmp/3fzyA00.pdb
 182 172 0 0 0
SMALL
GASTEIGER

@<TRIPOS>ATOM
      1  N          7.9720   28.0820   40.0820 N.3    36  GLY36      -0.1210
      2  CA         8.0930   28.2420   41.5350 C.3    36  GLY36       0.1956
      3  C          8.8780   27.1980   42.3290 C.2    36  GLY36       0.2612
      4  O         10.0670   26.9280   42.0470 O.2    36  GLY36      -0.2717
      5  N          8.2120   26.6000   43.3220 N.am   37  GLU37      -0.1965
      6  CA         8.8760   25.7040   44.2550 C.3    37  GLU37       0.1733
      7  C          9.1880   24.2890   43.7240 C.2    37  GLU37       0.2617
      8  O          8.3440   23.6220   43.1040 O.2    37  GLU37      -0.2715
      9  CB         8.1120   25.6270   45.6070 C.3    37  GLU37       0.0429
     10  CG         8.2800   26.8770   46.5060 C.3    37  GLU37       0.1163
     11  CD         7.9090   26.6570   47.9730 C.2    37  GLU37       0.3649
     12  OE1        7.2910   25.6270   48.3130 O.co2  37  GLU37      -0.2457
     13  OE2        8.2420   27.5290   48.7990 O.co2  37  GLU37      -0.2457
     14  N         10.4300   23.8740   44.0000 N.am   38  THR38      -0.1937
     15  CA        10.9610   22.5440   43.7000 C.3    38  THR38       0.2028
     16  C         11.4740   21.9410   45.0180 C.2    38  THR38       0.2642
     17  O         11.9870   22.6630   45.8870 O.2    38  THR38      -0.2714
     18  CB        12.1170   22.5980   42.6860 C.3    38  THR38       0.1808
     19  OG1       12.5420   21.2660   42.3320 O.3    38  THR38      -0.2208
     20  CG2       13.3190   23.4040   43.2550 C.3    38  THR38       0.0379
     21  N         11.3300   20.6320   45.1930 N.am   39  ARG39      -0.1963
     22  CA        11.8650   20.0230   46.4150 C.3    39  ARG39       0.1729
     23  C         13.3470   19.6660   46.3130 C.2    39  ARG39       0.2616
     24  O         13.9590   19.3230   47.3130 O.2    39  ARG39      -0.2715
     25  CB        11.0100   18.8420   46.8640 C.3    39  ARG39       0.0348
     26  CG        10.8930   17.7200   45.9320 C.3    39  ARG39       0.0492
     27  CD         9.7450   16.7210   46.3240 C.3    39  ARG39       0.2205
     28  NE         9.6470   15.7270   45.2560 N.pl3  39  ARG39      -0.0865
     29  CZ         9.9230   14.4280   45.3300 C.cat  39  ARG39       0.5346
     30  NH1       10.2250   13.8310   46.4810 N.pl3  39  ARG39       0.1354
     31  NH2        9.8310   13.7030   44.2140 N.pl3  39  ARG39       0.1354
     32  N         13.9250   19.8240   45.1160 N.am   40  PHE40      -0.1974
     33  CA        15.3130   19.4670   44.8470 C.3    40  PHE40       0.1639
     34  C         16.2260   20.6750   44.9460 C.2    40  PHE40       0.2290
     35  O         15.9750   21.7280   44.3670 O.2    40  PHE40      -0.2864
     36  CB        15.4340   18.7900   43.4700 C.3    40  PHE40       0.0560
     37  CG        14.5620   17.5800   43.3560 C.ar   40  PHE40      -0.0200
     38  CD1       14.8900   16.4350   44.0550 C.ar   40  PHE40      -0.0042
     39  CD2       13.3620   17.6250   42.6820 C.ar   40  PHE40      -0.0042
     40  CE1       14.0820   15.3250   44.0320 C.ar   40  PHE40      -0.0003
     41  CE2       12.5460   16.4980   42.6460 C.ar   40  PHE40      -0.0003
     42  CZ        12.9050   15.3580   43.3390 C.ar   40  PHE40      -0.0000
     43  N         14.1110   26.1390   33.5940 N.3    64  LYS64      -0.1231
     44  CA        13.1130   26.2960   34.6470 C.3    64  LYS64       0.1693
     45  C         13.7690   26.5070   36.0140 C.2    64  LYS64       0.2592
     46  O         13.2110   27.1760   36.8650 O.2    64  LYS64      -0.2718
     47  CB        12.1940   25.0820   34.7200 C.3    64  LYS64       0.0285
     48  CG        10.9710   25.2800   35.6250 C.3    64  LYS64       0.0035
     49  CD        10.1880   23.9830   35.8540 C.3    64  LYS64       0.0206
     50  CE         9.0120   24.2160   36.8140 C.3    64  LYS64       0.1093
     51  NZ         8.4120   22.9340   37.3360 N.3    64  LYS64      -0.1314
     52  N         14.9570   25.9470   36.2240 N.am   65  HIS65      -0.1976
     53  CA        15.6600   26.0920   37.5290 C.3    65  HIS65       0.1656
     54  C         17.1170   26.3000   37.1870 C.2    65  HIS65       0.2291
     55  O         17.9790   25.5080   37.5690 O.2    65  HIS65      -0.2864
     56  CB        15.5150   24.8210   38.3580 C.3    65  HIS65       0.0771
     57  CG        14.0970   24.4810   38.7190 C.ar   65  HIS65       0.0820
     58  ND1       13.3710   25.2080   39.6330 N.ar   65  HIS65      -0.2267
     59  CD2       13.2780   23.4930   38.2880 C.ar   65  HIS65       0.1154
     60  CE1       12.1570   24.6950   39.7370 C.ar   65  HIS65       0.1986
     61  NE2       12.0830   23.6310   38.9500 N.ar   65  HIS65      -0.2212
     62  N         17.7830   15.4670   41.9120 N.3    95  ARG95      -0.1245
     63  CA        17.0000   14.7560   40.9290 C.3    95  ARG95       0.1563
     64  C         17.8290   14.6480   39.6750 C.2    95  ARG95       0.2260
     65  O         18.7080   15.4880   39.4180 O.2    95  ARG95      -0.2867
     66  CB        15.6990   15.5180   40.6040 C.3    95  ARG95       0.0307
     67  CG        14.9670   15.0250   39.3430 C.3    95  ARG95       0.0489
     68  CD        13.5520   15.6300   39.2390 C.3    95  ARG95       0.2205
     69  NE        13.6370   17.0730   39.1420 N.pl3  95  ARG95      -0.0865
     70  CZ        12.6330   17.9260   39.2930 C.cat  95  ARG95       0.5346
     71  NH1       11.3920   17.5110   39.5620 N.pl3  95  ARG95       0.1354
     72  NH2       12.8860   19.2260   39.1820 N.pl3  95  ARG95       0.1354
     73  N         16.8060   14.2020   35.6620 N.3    97  GLN97      -0.1245
     74  CA        15.7340   14.0540   34.6700 C.3    97  GLN97       0.1566
     75  C         16.4230   13.5200   33.4270 C.2    97  GLN97       0.2260
     76  O         17.3650   14.1380   32.9260 O.2    97  GLN97      -0.2867
     77  CB        15.0080   15.3500   34.3740 C.3    97  GLN97       0.0367
     78  CG        14.5870   16.0710   35.6010 C.3    97  GLN97       0.0905
     79  CD        13.3870   16.9710   35.3930 C.2    97  GLN97       0.2608
     80  OE1       12.3750   16.5640   34.7810 O.2    97  GLN97      -0.2717
     81  NE2       13.4550   18.1770   35.9510 N.am   97  GLN97      -0.0878
     82  N         15.6610   11.0540   43.2370 N.3   144  HIS144     -0.1241
     83  CA        14.5680   10.8510   42.3110 C.3   144  HIS144      0.1621
     84  C         15.0470   10.9140   40.8850 C.2   144  HIS144      0.2264
     85  O         15.9250   11.7430   40.5340 O.2   144  HIS144     -0.2867
     86  CB        13.4770   11.9200   42.5380 C.3   144  HIS144      0.0745
     87  CG        12.2140   11.6910   41.7650 C.ar  144  HIS144      0.0817
     88  ND1       11.1730   10.9240   42.2430 N.ar  144  HIS144     -0.2268
     89  CD2       11.8160   12.1500   40.5540 C.ar  144  HIS144      0.1154
     90  CE1       10.1890   10.9170   41.3530 C.ar  144  HIS144      0.1986
     91  NE2       10.5620   11.6440   40.3150 N.ar  144  HIS144     -0.2212
     92  N         13.3180   11.3230   37.1490 N.3   146  SER146     -0.1217
     93  CA        12.1360   11.6180   36.3460 C.3   146  SER146      0.1889
     94  C         12.4780   11.2100   34.9230 C.2   146  SER146      0.2288
     95  O         13.4120   11.7380   34.3110 O.2   146  SER146     -0.2866
     96  CB        11.7660   13.1140   36.4040 C.3   146  SER146      0.2089
     97  OG        10.6500   13.4210   35.5760 O.3   146  SER146     -0.2183
     98  N          9.7400    8.5590   38.4550 N.3   179  SER179     -0.1217
     99  CA         8.4790    9.0150   37.8930 C.3   179  SER179      0.1889
    100  C          8.5480    8.7420   36.3980 C.2   179  SER179      0.2288
    101  O          9.6040    8.8560   35.7670 O.2   179  SER179     -0.2866
    102  CB         8.1770   10.4710   38.2410 C.3   179  SER179      0.2089
    103  OG         9.2010   11.3590   37.8780 O.3   179  SER179     -0.2183
    104  N          5.9880    8.1520   32.5780 N.3   181  ARG181     -0.1245
    105  CA         4.7180    8.4680   31.9020 C.3   181  ARG181      0.1563
    106  C          4.2340    7.3610   30.9640 C.2   181  ARG181      0.2260
    107  O          5.0290    6.7570   30.2390 O.2   181  ARG181     -0.2867
    108  CB         4.8810    9.7640   31.0810 C.3   181  ARG181      0.0307
    109  CG         4.9940   11.0350   31.8980 C.3   181  ARG181      0.0489
    110  CD         6.3700   11.2580   32.4810 C.3   181  ARG181      0.2205
    111  NE         6.4090   12.4560   33.3200 N.pl3 181  ARG181     -0.0865
    112  CZ         7.4430   12.8010   34.0800 C.cat 181  ARG181      0.5346
    113  NH1        8.5320   12.0410   34.1270 N.pl3 181  ARG181      0.1354
    114  NH2        7.3740   13.8930   34.8310 N.pl3 181  ARG181      0.1354
    115  N          4.6360   12.4590   25.6870 N.3   185  LEU185     -0.1245
    116  CA         5.1660   13.5030   26.5640 C.3   185  LEU185      0.1561
    117  C          5.8760   14.5600   25.7410 C.2   185  LEU185      0.2260
    118  O          6.5070   14.2210   24.7410 O.2   185  LEU185     -0.2867
    119  CB         6.1840   12.8820   27.5290 C.3   185  LEU185      0.0270
    120  CG         6.7820   13.7490   28.6460 C.3   185  LEU185      0.0019
    121  CD1        5.7450   14.1700   29.6690 C.3   185  LEU185      0.0001
    122  CD2        7.8840   12.9630   29.3420 C.3   185  LEU185      0.0001
    123  N          9.7690   24.8640   30.4160 N.3   191  GLY191     -0.1210
    124  CA        10.2800   23.6350   31.0340 C.3   191  GLY191      0.1956
    125  C          9.2350   22.7670   31.7200 C.2   191  GLY191      0.2612
    126  O          9.5920   21.8710   32.4890 O.2   191  GLY191     -0.2717
    127  N          7.9640   23.0350   31.4540 N.am  192  ARG192     -0.1965
    128  CA         6.8550   22.2830   32.0100 C.3   192  ARG192      0.1729
    129  C          6.4920   21.1580   31.0760 C.2   192  ARG192      0.2616
    130  O          6.6120   21.2840   29.8510 O.2   192  ARG192     -0.2715
    131  CB         5.6320   23.1790   32.2430 C.3   192  ARG192      0.0348
    132  CG         5.9160   24.3140   33.2070 C.3   192  ARG192      0.0492
    133  CD         4.6220   24.9980   33.7100 C.3   192  ARG192      0.2205
    134  NE         4.9660   25.9340   34.7850 N.pl3 192  ARG192     -0.0865
    135  CZ         5.1650   25.5890   36.0620 C.cat 192  ARG192      0.5346
    136  NH1        5.5050   26.5160   36.9500 N.pl3 192  ARG192      0.1354
    137  NH2        5.0300   24.3210   36.4670 N.pl3 192  ARG192      0.1354
    138  N          6.0100   20.0640   31.6510 N.am  193  LYS193     -0.1977
    139  CA         5.7010   18.8770   30.8530 C.3   193  LYS193      0.1596
    140  C          4.2080   18.8820   30.5040 C.2   193  LYS193      0.2287
    141  O          3.3900   19.2170   31.3290 O.2   193  LYS193     -0.2864
    142  CB         5.9970   17.5620   31.6100 C.3   193  LYS193      0.0298
    143  CG         7.5050   17.1950   31.8570 C.3   193  LYS193      0.0038
    144  CD         7.9350   17.4070   33.2600 C.3   193  LYS193      0.0206
    145  CE         9.3030   16.7590   33.5700 C.3   193  LYS193      0.1093
    146  NZ         9.8220   17.4470   34.7950 N.3   193  LYS193     -0.1314
    147  N         -1.9120   19.4500   31.0250 N.3   204  GLN204     -0.1231
    148  CA        -0.9120   19.5990   32.0830 C.3   204  GLN204      0.1698
    149  C         -1.3910   18.9660   33.3620 C.2   204  GLN204      0.2592
    150  O         -2.5850   18.9690   33.6540 O.2   204  GLN204     -0.2718
    151  CB        -0.5810   21.0720   32.3460 C.3   204  GLN204      0.0381
    152  CG         0.2500   21.7230   31.2770 C.3   204  GLN204      0.0905
    153  CD         0.4820   23.2020   31.5490 C.2   204  GLN204      0.2608
    154  OE1        1.4850   23.5730   32.1600 O.2   204  GLN204     -0.2717
    155  NE2       -0.4750   24.0500   31.1340 N.am  204  GLN204     -0.0878
    156  N         -0.4390   18.4010   34.1010 N.am  205  LYS205     -0.1980
    157  CA        -0.6890   17.7980   35.4010 C.3   205  LYS205      0.1596
    158  C         -1.7640   16.6990   35.3960 C.2   205  LYS205      0.2287
    159  O         -2.5130   16.5780   36.3580 O.2   205  LYS205     -0.2864
    160  CB        -1.0370   18.8860   36.4290 C.3   205  LYS205      0.0298
    161  CG         0.0720   19.9310   36.6760 C.3   205  LYS205      0.0038
    162  CD         1.3570   19.2510   37.1360 C.3   205  LYS205      0.0206
    163  CE         2.2380   20.1640   37.9620 C.3   205  LYS205      0.1093
    164  NZ         2.6000   21.4070   37.2360 N.3   205  LYS205     -0.1314
    165  N         -2.6660   13.4000   36.2110 N.3   207  GLU207     -0.1245
    166  CA        -2.0760   12.3500   37.0450 C.3   207  GLU207      0.1567
    167  C         -2.2990   10.9220   36.5430 C.2   207  GLU207      0.2260
    168  O         -1.4860   10.0260   36.8490 O.2   207  GLU207     -0.2867
    169  CB        -2.4280   12.5310   38.5330 C.3   207  GLU207      0.0388
    170  CG        -1.6550   13.7050   39.2280 C.3   207  GLU207      0.1160
    171  CD        -0.1100   13.6010   39.0950 C.2   207  GLU207      0.3649
    172  OE1        0.4380   13.9860   38.0400 O.co2 207  GLU207     -0.2457
    173  OE2        0.5630   13.1630   40.0590 O.co2 207  GLU207     -0.2457
    174  N          0.8520    9.6460   34.5430 N.3   210  LYS210     -0.1245
    175  CA         2.1260    9.4750   35.2370 C.3   210  LYS210      0.1561
    176  C          1.9650    8.5230   36.4020 C.2   210  LYS210      0.2260
    177  O          0.8790    8.3940   36.9500 O.2   210  LYS210     -0.2867
    178  CB         2.6380   10.8200   35.7800 C.3   210  LYS210      0.0271
    179  CG         4.1230   10.7940   36.1210 C.3   210  LYS210      0.0035
    180  CD         4.7540   12.1900   36.3640 C.3   210  LYS210      0.0206
    181  CE         4.6280   12.6710   37.7800 C.3   210  LYS210      0.1093
    182  NZ         5.2390   13.9890   37.9600 N.3   210  LYS210     -0.1314
@<TRIPOS>BOND
     1   118   117    2
     2   115   116    1
     3   117   116    1
     4   116   119    1
     5   119   120    1
     6   120   122    1
     7   120   121    1
     8   130   129    2
     9   107   106    2
    10   123   124    1
    11   140   139    1
    12   140   141    2
    13   139   142    1
    14   139   138    1
    15   106   105    1
    16   147   148    1
    17   124   125    1
    18   129   138   am
    19   129   128    1
    20   108   109    1
    21   108   105    1
    22   155   153   am
    23   152   153    1
    24   152   151    1
    25   127   125   am
    26   127   128    1
    27   153   154    2
    28   142   143    1
    29   125   126    2
    30   143   144    1
    31   109   110    1
    32   105   104    1
    33   128   131    1
    34   148   151    1
    35   148   149    1
    36   131   132    1
    37   110   111    1
    38    76    75    2
    39   132   133    1
    40   144   145    1
    41   111   112    2
    42   149   150    2
    43   149   156   am
    44    75    74    1
    45   145   146    1
    46    43    44    1
    47   133   134    1
    48   112   113    1
    49   112   114    1
    50   156   157    1
    51    95    94    2
    52    77    74    1
    53    77    78    1
    54   174   175    1
    55    44    47    1
    56    44    45    1
    57    74    73    1
    58    47    48    1
    59    80    79    2
    60   134   135    2
    61    94    93    1
    62   175   178    1
    63   175   176    1
    64    79    78    1
    65    79    81   am
    66   158   157    1
    67   158   159    2
    68   157   160    1
    69    97    96    1
    70    48    49    1
    71   101   100    2
    72   178   179    1
    73    49    50    1
    74    45    52   am
    75    45    46    2
    76   135   137    1
    77   135   136    1
    78   179   180    1
    79   165   166    1
    80    52    53    1
    81    93    96    1
    82    93    92    1
    83   180   181    1
    84   100    99    1
    85   176   177    2
    86   160   161    1
    87   167   168    2
    88   167   166    1
    89   161   162    1
    90    50    51    1
    91   166   169    1
    92   162   163    1
    93    54    53    1
    94    54    55    2
    95   164   163    1
    96    53    56    1
    97   181   182    1
    98   103   102    1
    99    99   102    1
   100    99    98    1
   101   172   171   ar
   102    59    57   ar
   103    59    61   ar
   104    56    57    1
   105   169   170    1
   106    57    58   ar
   107    61    60   ar
   108   171   170    1
   109   171   173   ar
   110    69    68    1
   111    69    70    2
   112    72    70    1
   113    68    67    1
   114    70    71    1
   115    67    66    1
   116    65    64    2
   117    58    60   ar
   118    64    63    1
   119     1     2    1
   120    91    89   ar
   121    91    90   ar
   122    85    84    2
   123    89    87   ar
   124    66    63    1
   125    84    83    1
   126    63    62    1
   127    90    88   ar
   128     2     3    1
   129    87    88   ar
   130    87    86    1
   131     4     3    2
   132    83    86    1
   133    83    82    1
   134     3     5   am
   135    19    18    1
   136    41    39   ar
   137    41    42   ar
   138    39    37   ar
   139    18    20    1
   140    18    15    1
   141     8     7    2
   142     5     6    1
   143    42    40   ar
   144    37    36    1
   145    37    38   ar
   146    36    33    1
   147    15    14    1
   148    15    16    1
   149     7    14   am
   150     7     6    1
   151    40    38   ar
   152    31    29    1
   153     6     9    1
   154    35    34    2
   155    33    34    1
   156    33    32    1
   157    16    21   am
   158    16    17    2
   159    32    23   am
   160    21    22    1
   161    28    29    2
   162    28    27    1
   163    29    30    1
   164     9    10    1
   165    26    27    1
   166    26    25    1
   167    23    22    1
   168    23    24    2
   169    22    25    1
   170    10    11    1
   171    11    12   ar
   172    11    13   ar
