@<TRIPOS>MOLECULE
tmp/3g00A00.pdb
 104 103 0 0 0
SMALL
GASTEIGER

@<TRIPOS>ATOM
      1  N          2.9340   -3.1960   10.4230 N.3     8  TRP8       -0.1241
      2  CA         3.7600   -3.2650   11.6280 C.3     8  TRP8        0.1605
      3  C          5.1000   -3.9020   11.3520 C.2     8  TRP8        0.2264
      4  O          5.1760   -5.0760   10.9050 O.2     8  TRP8       -0.2867
      5  CB         3.0300   -4.1140   12.6910 C.3     8  TRP8        0.0550
      6  CG         3.6400   -4.0390   14.1110 C.ar    8  TRP8        0.0003
      7  CD1        4.5870   -3.1550   14.5720 C.ar    8  TRP8        0.0946
      8  CD2        3.2870   -4.8610   15.2280 C.ar    8  TRP8        0.0152
      9  NE1        4.8600   -3.4150   15.9170 N.ar    8  TRP8       -0.2442
     10  CE2        4.0480   -4.4330   16.3360 C.ar    8  TRP8        0.0810
     11  CE3        2.3530   -5.9030   15.4100 C.ar    8  TRP8        0.0012
     12  CZ2        3.9440   -5.0490   17.6050 C.ar    8  TRP8        0.0191
     13  CZ3        2.2430   -6.4930   16.6510 C.ar    8  TRP8        0.0001
     14  CH2        3.0350   -6.0670   17.7400 C.ar    8  TRP8        0.0015
     15  N          7.6220  -11.5750   18.4250 N.3    16  VAL16      -0.1245
     16  CA         6.3120  -11.0090   18.7820 C.3    16  VAL16       0.1561
     17  C          5.2910  -12.1290   19.0860 C.2    16  VAL16       0.2260
     18  O          4.3670  -11.9350   19.9340 O.2    16  VAL16      -0.2867
     19  CB         5.7610   -9.9330   17.7690 C.3    16  VAL16       0.0252
     20  CG1        6.5780   -8.6290   17.8020 C.3    16  VAL16       0.0019
     21  CG2        5.6530  -10.4850   16.3520 C.3    16  VAL16       0.0019
     22  N          5.5340  -13.0580   22.5640 N.3    19  LYS19      -0.1231
     23  CA         5.0130  -11.9930   23.3940 C.3    19  LYS19       0.1693
     24  C          3.4940  -11.8050   23.3220 C.2    19  LYS19       0.2593
     25  O          2.9290  -10.9990   24.0720 O.2    19  LYS19      -0.2718
     26  CB         5.7240  -10.6780   23.0620 C.3    19  LYS19       0.0285
     27  CG         7.2090  -10.7050   23.2810 C.3    19  LYS19       0.0035
     28  CD         7.8090   -9.4210   22.7820 C.3    19  LYS19       0.0206
     29  CE         9.2990   -9.5070   22.6140 C.3    19  LYS19       0.1093
     30  NZ         9.7560   -8.1240   22.3980 N.3    19  LYS19      -0.1314
     31  N          2.8210  -12.5660   22.4700 N.am   20  GLY20      -0.1942
     32  CA         1.3680  -12.4970   22.4290 C.3    20  GLY20       0.2014
     33  C          0.7750  -11.9150   21.1610 C.2    20  GLY20       0.2638
     34  O         -0.3720  -11.5000   21.1370 O.2    20  GLY20      -0.2714
     35  N          1.5650  -11.8900   20.0910 N.am   21  PHE21      -0.1973
     36  CA         1.0700  -11.4500   18.7650 C.3    21  PHE21       0.1639
     37  C         -0.3260  -11.9590   18.3580 C.2    21  PHE21       0.2290
     38  O         -1.1570  -11.1640   17.9110 O.2    21  PHE21      -0.2864
     39  CB         2.1330  -11.8000   17.6980 C.3    21  PHE21       0.0560
     40  CG         1.6670  -11.6210   16.2590 C.ar   21  PHE21      -0.0200
     41  CD1        1.5980  -10.3370   15.6850 C.ar   21  PHE21      -0.0042
     42  CD2        1.3230  -12.7360   15.4730 C.ar   21  PHE21      -0.0042
     43  CE1        1.1660  -10.1620   14.3580 C.ar   21  PHE21      -0.0003
     44  CE2        0.8690  -12.5650   14.1730 C.ar   21  PHE21      -0.0003
     45  CZ         0.7950  -11.2730   13.6160 C.ar   21  PHE21      -0.0000
     46  N         -2.8760  -13.0800   20.0940 N.3    23  LYS23      -0.1231
     47  CA        -3.9090  -12.4310   20.9210 C.3    23  LYS23       0.1693
     48  C         -4.2340  -11.0000   20.4630 C.2    23  LYS23       0.2592
     49  O         -5.4000  -10.6390   20.2760 O.2    23  LYS23      -0.2718
     50  CB        -3.5030  -12.4710   22.4180 C.3    23  LYS23       0.0285
     51  CG        -4.5240  -11.9410   23.3960 C.3    23  LYS23       0.0035
     52  CD        -4.1700  -12.4230   24.8320 C.3    23  LYS23       0.0206
     53  CE        -5.1760  -11.9270   25.9120 C.3    23  LYS23       0.1093
     54  NZ        -4.7220  -10.6130   26.4680 N.3    23  LYS23      -0.1314
     55  N         -3.2000  -10.2000   20.2550 N.am   24  TRP24      -0.1976
     56  CA        -3.3540   -8.8680   19.6970 C.3    24  TRP24       0.1640
     57  C         -4.0760   -8.8990   18.3280 C.2    24  TRP24       0.2290
     58  O         -4.9600   -8.0870   18.0470 O.2    24  TRP24      -0.2864
     59  CB        -1.9730   -8.1900   19.5710 C.3    24  TRP24       0.0576
     60  CG        -2.1110   -6.9480   18.8070 C.ar   24  TRP24       0.0006
     61  CD1       -2.6010   -5.7570   19.2480 C.ar   24  TRP24       0.0946
     62  CD2       -1.8480   -6.7850   17.4090 C.ar   24  TRP24       0.0152
     63  NE1       -2.6690   -4.8580   18.2120 N.ar   24  TRP24      -0.2442
     64  CE2       -2.2210   -5.4690   17.0680 C.ar   24  TRP24       0.0810
     65  CE3       -1.3680   -7.6430   16.4080 C.ar   24  TRP24       0.0012
     66  CZ2       -2.0980   -4.9650   15.7720 C.ar   24  TRP24       0.0191
     67  CZ3       -1.2490   -7.1430   15.1040 C.ar   24  TRP24       0.0001
     68  CH2       -1.6190   -5.8180   14.8010 C.ar   24  TRP24       0.0015
     69  N         -7.7140   -9.5450   18.4580 N.3    27  GLU27      -0.1245
     70  CA        -8.4090   -8.4060   19.0530 C.3    27  GLU27       0.1567
     71  C         -8.6350   -7.3150   18.0140 C.2    27  GLU27       0.2260
     72  O         -9.6890   -6.6840   17.9600 O.2    27  GLU27      -0.2867
     73  CB        -7.5870   -7.8240   20.2160 C.3    27  GLU27       0.0388
     74  CG        -7.3730   -8.7590   21.4050 C.3    27  GLU27       0.1160
     75  CD        -6.3990   -8.2090   22.4940 C.2    27  GLU27       0.3649
     76  OE1       -6.4030   -8.7710   23.6260 O.co2  27  GLU27      -0.2457
     77  OE2       -5.6350   -7.2350   22.2380 O.co2  27  GLU27      -0.2457
     78  N          0.0400    2.3100   21.6500 N.3   241  ASP241     -0.1225
     79  CA         0.0400    1.5310   22.8880 C.3   241  ASP241      0.1805
     80  C          0.4170    0.0670   22.6910 C.2   241  ASP241      0.2598
     81  O          0.5400   -0.6820   23.6710 O.2   241  ASP241     -0.2718
     82  CB        -1.3110    1.6520   23.6080 C.3   241  ASP241      0.1424
     83  CG        -1.5080    3.0080   24.2600 C.2   241  ASP241      0.3668
     84  OD1       -0.5940    3.8830   24.2260 O.co2 241  ASP241     -0.2456
     85  OD2       -2.5980    3.2140   24.8370 O.co2 241  ASP241     -0.2456
     86  N          0.6230   -0.3430   21.4320 N.am  242  VAL242     -0.1966
     87  CA         0.8420   -1.7500   21.1570 C.3   242  VAL242      0.1727
     88  C          2.3230   -2.0210   21.2470 C.2   242  VAL242      0.2616
     89  O          3.1030   -1.4600   20.4640 O.2   242  VAL242     -0.2715
     90  CB         0.2550   -2.2010   19.8020 C.3   242  VAL242      0.0290
     91  CG1        0.7200   -3.6760   19.4330 C.3   242  VAL242      0.0023
     92  CG2       -1.2880   -2.0910   19.8110 C.3   242  VAL242      0.0023
     93  N          2.7030   -2.8460   22.2210 N.am  243  MET243     -0.1963
     94  CA         4.1270   -3.1060   22.5330 C.3   243  MET243      0.1736
     95  C          4.5950   -4.3530   21.8260 C.2   243  MET243      0.2617
     96  O          3.8250   -5.0100   21.1190 O.2   243  MET243     -0.2715
     97  CB         4.3090   -3.2850   24.0630 C.3   243  MET243      0.0427
     98  CG         3.6490   -2.1910   24.8850 C.3   243  MET243      0.0599
     99  SD         4.1540   -0.4920   24.5000 S.3   243  MET243     -0.1393
    100  CE         5.8860   -0.6570   24.6760 C.3   243  MET243      0.0692
    101  N          5.8660   -4.6970   22.0250 N.am  244  GLY244     -0.1955
    102  CA         6.4220   -5.9520   21.5060 C.3   244  GLY244      0.1869
    103  C          7.5500   -5.8050   20.4870 C.2   244  GLY244      0.2309
    104  O          8.2610   -6.7750   20.2040 O.2   244  GLY244     -0.2863
@<TRIPOS>BOND
     1     1     2    1
     2     4     3    2
     3     3     2    1
     4     2     5    1
     5     5     6    1
     6    45    44   ar
     7    45    43   ar
     8     6     7   ar
     9     6     8   ar
    10    44    42   ar
    11    43    41   ar
    12     7     9   ar
    13    68    67   ar
    14    68    66   ar
    15    67    65   ar
    16     8    11   ar
    17     8    10   ar
    18    11    13   ar
    19    42    40   ar
    20    41    40   ar
    21    66    64   ar
    22     9    10   ar
    23    40    39    1
    24    10    12   ar
    25    21    19    1
    26    65    62   ar
    27    13    14   ar
    28    64    62   ar
    29    64    63   ar
    30    62    60   ar
    31    12    14   ar
    32    39    36    1
    33    19    20    1
    34    19    16    1
    35    38    37    2
    36    72    71    2
    37    71    70    1
    38    58    57    2
    39    63    61   ar
    40    57    56    1
    41    37    36    1
    42    15    16    1
    43    69    70    1
    44    36    35    1
    45    16    17    1
    46    60    61   ar
    47    60    59    1
    48    70    73    1
    49    17    18    2
    50    91    90    1
    51    59    56    1
    52    56    55    1
    53    90    92    1
    54    90    87    1
    55    35    33   am
    56    46    47    1
    57   104   103    2
    58    73    74    1
    59    55    48   am
    60    49    48    2
    61    48    47    1
    62    89    88    2
    63   103   102    1
    64    47    50    1
    65    96    95    2
    66    34    33    2
    67    87    88    1
    68    87    86    1
    69    33    32    1
    70    88    93   am
    71    74    75    1
    72    86    80   am
    73   102   101    1
    74    78    79    1
    75    95   101   am
    76    95    94    1
    77    93    94    1
    78    77    75   ar
    79    30    29    1
    80    50    51    1
    81    32    31    1
    82    31    24   am
    83    75    76   ar
    84    94    97    1
    85    22    23    1
    86    29    28    1
    87    80    79    1
    88    80    81    2
    89    28    27    1
    90    79    82    1
    91    26    27    1
    92    26    23    1
    93    24    23    1
    94    24    25    2
    95    51    52    1
    96    82    83    1
    97    97    98    1
    98    84    83   ar
    99    83    85   ar
   100    99   100    1
   101    99    98    1
   102    52    53    1
   103    53    54    1
