@<TRIPOS>MOLECULE
tmp/3g03C00.pdb
 169 163 0 0 0
SMALL
GASTEIGER

@<TRIPOS>ATOM
      1  N         -6.3600   -0.9330   -9.7040 N.3    26  LYS26      -0.1245
      2  CA        -7.0520   -2.0160  -10.3970 C.3    26  LYS26       0.1561
      3  C         -8.0760   -2.6540   -9.4700 C.2    26  LYS26       0.2260
      4  O         -9.1510   -3.0370   -9.9190 O.2    26  LYS26      -0.2867
      5  CB        -6.0640   -3.0620  -10.9430 C.3    26  LYS26       0.0271
      6  CG        -5.1970   -2.5640  -12.1350 C.3    26  LYS26       0.0035
      7  CD        -5.9780   -2.6160  -13.4510 C.3    26  LYS26       0.0206
      8  CE        -5.2480   -1.8760  -14.5840 C.3    26  LYS26       0.1093
      9  NZ        -3.8120   -1.6870  -14.2440 N.3    26  LYS26      -0.1314
     10  N        -11.1370   -0.3300   -9.3590 N.3    29  LEU29      -0.1231
     11  CA       -11.9100   -0.5530  -10.5790 C.3    29  LEU29       0.1693
     12  C        -12.6220   -1.8990  -10.5690 C.2    29  LEU29       0.2592
     13  O        -13.7760   -2.0040  -10.9710 O.2    29  LEU29      -0.2718
     14  CB       -11.0110   -0.4220  -11.8270 C.3    29  LEU29       0.0284
     15  CG       -10.7070    1.0700  -11.9980 C.3    29  LEU29       0.0019
     16  CD1       -9.3320    1.3510  -12.5760 C.3    29  LEU29       0.0001
     17  CD2      -11.8070    1.7150  -12.8330 C.3    29  LEU29       0.0001
     18  N        -11.9490   -2.9460  -10.1130 N.am   30  PHE30      -0.1976
     19  CA       -12.6310   -4.2350  -10.1010 C.3    30  PHE30       0.1639
     20  C        -13.8850   -4.1720   -9.2410 C.2    30  PHE30       0.2290
     21  O        -14.9710   -4.5920   -9.6770 O.2    30  PHE30      -0.2864
     22  CB       -11.7140   -5.3400   -9.5770 C.3    30  PHE30       0.0560
     23  CG       -12.4040   -6.6440   -9.3800 C.ar   30  PHE30      -0.0200
     24  CD1      -12.6240   -7.5070  -10.4590 C.ar   30  PHE30      -0.0042
     25  CD2      -12.8340   -7.0250   -8.1160 C.ar   30  PHE30      -0.0042
     26  CE1      -13.2510   -8.7220  -10.2730 C.ar   30  PHE30      -0.0003
     27  CE2      -13.4900   -8.2200   -7.9260 C.ar   30  PHE30      -0.0003
     28  CZ       -13.6920   -9.0860   -8.9930 C.ar   30  PHE30      -0.0000
     29  N        -15.5970   -1.6210   -8.0450 N.3    32  LEU32      -0.1231
     30  CA       -16.5940   -0.6900   -8.5930 C.3    32  LEU32       0.1693
     31  C        -17.4260   -1.3570   -9.7120 C.2    32  LEU32       0.2593
     32  O        -18.6640   -1.2340   -9.7370 O.2    32  LEU32      -0.2718
     33  CB       -15.8830    0.5810   -9.0970 C.3    32  LEU32       0.0284
     34  CG       -16.6950    1.7230   -9.7420 C.3    32  LEU32       0.0019
     35  CD1      -17.9570    2.0260   -8.9500 C.3    32  LEU32       0.0001
     36  CD2      -15.8440    2.9940   -9.8700 C.3    32  LEU32       0.0001
     37  N        -16.7670   -2.0700  -10.6300 N.am   33  GLY33      -0.1942
     38  CA       -17.4700   -2.8200  -11.6730 C.3    33  GLY33       0.2014
     39  C        -18.3720   -3.8960  -11.0710 C.2    33  GLY33       0.2638
     40  O        -19.4920   -4.1130  -11.5350 O.2    33  GLY33      -0.2714
     41  N        -17.8900   -4.5790  -10.0380 N.am   34  GLN34      -0.1977
     42  CA       -18.7110   -5.6110   -9.3880 C.3    34  GLN34       0.1601
     43  C        -19.9760   -5.0320   -8.7430 C.2    34  GLN34       0.2287
     44  O        -21.0480   -5.6700   -8.7100 O.2    34  GLN34      -0.2864
     45  CB       -17.8730   -6.3630   -8.3410 C.3    34  GLN34       0.0394
     46  CG       -16.7750   -7.1600   -9.0080 C.3    34  GLN34       0.0908
     47  CD       -17.3320   -8.1500   -9.9990 C.2    34  GLN34       0.2608
     48  OE1      -18.0290   -9.1030   -9.6200 O.2    34  GLN34      -0.2717
     49  NE2      -17.0470   -7.9350  -11.2780 N.am   34  GLN34      -0.0878
     50  N        -21.6040   -2.2510   -9.7450 N.3    36  ILE36      -0.1231
     51  CA       -22.5350   -1.9830  -10.8440 C.3    36  ILE36       0.1692
     52  C        -23.1960   -3.2800  -11.3830 C.2    36  ILE36       0.2591
     53  O        -24.3900   -3.3150  -11.6550 O.2    36  ILE36      -0.2718
     54  CB       -21.8190   -1.2430  -11.9980 C.3    36  ILE36       0.0266
     55  CG1      -21.3510    0.1390  -11.5250 C.3    36  ILE36       0.0019
     56  CG2      -22.7540   -1.1180  -13.1980 C.3    36  ILE36       0.0020
     57  CD1      -20.2230    0.7130  -12.3770 C.3    36  ILE36       0.0001
     58  N        -22.4260   -4.3490  -11.5310 N.am   37  MET37      -0.1979
     59  CA       -22.9980   -5.6160  -12.0250 C.3    37  MET37       0.1605
     60  C        -23.9660   -6.2250  -11.0200 C.2    37  MET37       0.2287
     61  O        -25.0990   -6.5860  -11.3600 O.2    37  MET37      -0.2864
     62  CB       -21.9120   -6.6320  -12.3450 C.3    37  MET37       0.0413
     63  CG       -21.2240   -6.4180  -13.6520 C.3    37  MET37       0.0598
     64  SD       -20.3920   -7.9540  -14.1190 S.3    37  MET37      -0.1393
     65  CE       -20.3660   -8.8390  -12.5700 C.3    37  MET37       0.0692
     66  N        -26.5050   -1.3590  -14.9030 N.3    42  TYR42      -0.1241
     67  CA       -26.2830   -1.1460  -16.3210 C.3    42  TYR42       0.1605
     68  C        -27.5370   -1.5110  -17.1280 C.2    42  TYR42       0.2264
     69  O        -28.3020   -2.3970  -16.7480 O.2    42  TYR42      -0.2867
     70  CB       -25.0700   -1.9350  -16.7970 C.3    42  TYR42       0.0534
     71  CG       -25.2190   -3.4330  -16.6670 C.ar   42  TYR42      -0.0201
     72  CD1      -25.7560   -4.1820  -17.7030 C.ar   42  TYR42      -0.0009
     73  CD2      -24.8100   -4.0950  -15.5140 C.ar   42  TYR42      -0.0009
     74  CE1      -25.8950   -5.5580  -17.6010 C.ar   42  TYR42       0.0417
     75  CE2      -24.9470   -5.4740  -15.3970 C.ar   42  TYR42       0.0417
     76  CZ       -25.4900   -6.1970  -16.4430 C.ar   42  TYR42       0.1957
     77  OH       -25.6360   -7.5720  -16.3360 O.3    42  TYR42      -0.2866
     78  N        -29.8410   -3.5990  -22.6760 N.3    45  LYS45      -0.1245
     79  CA       -29.6610   -3.4720  -24.1330 C.3    45  LYS45       0.1565
     80  C        -28.3720   -2.7510  -24.5030 C.2    45  LYS45       0.2260
     81  O        -27.6550   -3.1820  -25.3960 O.2    45  LYS45      -0.2867
     82  CB       -30.8470   -2.7440  -24.7770 C.3    45  LYS45       0.0317
     83  CG       -32.1430   -3.5280  -24.7370 C.3    45  LYS45       0.0294
     84  CD       -32.0910   -4.8770  -25.3710 C.2    45  LYS45      -0.0067
     85  CE       -33.1940   -5.7990  -25.2730 C.2    45  LYS45       0.1012
     86  NZ       -32.9930   -7.0900  -25.9380 N.pl3  45  LYS45      -0.1270
     87  N        -25.2420   -2.0250  -22.6000 N.3    47  GLN47      -0.1231
     88  CA       -24.6920   -2.3790  -21.3000 C.3    47  GLN47       0.1698
     89  C        -23.5100   -1.4990  -20.9210 C.2    47  GLN47       0.2592
     90  O        -22.9040   -1.7170  -19.8950 O.2    47  GLN47      -0.2718
     91  CB       -24.3130   -3.8710  -21.2420 C.3    47  GLN47       0.0381
     92  CG       -25.4740   -4.7740  -21.6380 C.3    47  GLN47       0.0905
     93  CD       -25.3780   -6.1880  -21.1060 C.2    47  GLN47       0.2608
     94  OE1      -24.3800   -6.5840  -20.4930 O.2    47  GLN47      -0.2717
     95  NE2      -26.4240   -6.9760  -21.3600 N.am   47  GLN47      -0.0878
     96  N        -23.1610   -0.5200  -21.7510 N.am   48  HIS48      -0.1976
     97  CA       -22.1890    0.4770  -21.3000 C.3    48  HIS48       0.1656
     98  C        -22.8890    1.5900  -20.5440 C.2    48  HIS48       0.2291
     99  O        -22.2300    2.4590  -19.9620 O.2    48  HIS48      -0.2864
    100  CB       -21.4380    1.1070  -22.4800 C.3    48  HIS48       0.0771
    101  CG       -22.3370    1.8550  -23.4140 C.ar   48  HIS48       0.0820
    102  ND1      -22.6760    3.1790  -23.2240 N.ar   48  HIS48      -0.2267
    103  CD2      -23.0010    1.4530  -24.5270 C.ar   48  HIS48       0.1154
    104  CE1      -23.4940    3.5670  -24.1900 C.ar   48  HIS48       0.1986
    105  NE2      -23.7050    2.5390  -24.9920 N.ar   48  HIS48      -0.2212
    106  N        -24.9240    3.1700  -17.4950 N.3    50  VAL50      -0.1245
    107  CA       -25.1390    2.9040  -16.0720 C.3    50  VAL50       0.1561
    108  C        -26.1220    3.9030  -15.4700 C.2    50  VAL50       0.2260
    109  O        -25.9120    5.1100  -15.5610 O.2    50  VAL50      -0.2867
    110  CB       -23.8020    2.9630  -15.2760 C.3    50  VAL50       0.0252
    111  CG1      -24.0220    2.7220  -13.7890 C.3    50  VAL50       0.0019
    112  CG2      -22.7810    2.0100  -15.8550 C.3    50  VAL50       0.0019
    113  N        -24.3050    7.6000  -16.4000 N.3    66  PHE66      -0.1241
    114  CA       -23.0650    7.8450  -17.1280 C.3    66  PHE66       0.1605
    115  C        -22.8280    6.6290  -18.0130 C.2    66  PHE66       0.2264
    116  O        -23.4460    5.5940  -17.8020 O.2    66  PHE66      -0.2867
    117  CB       -21.8670    8.0590  -16.1820 C.3    66  PHE66       0.0534
    118  CG       -21.5030    6.8460  -15.3230 C.ar   66  PHE66      -0.0203
    119  CD1      -20.4610    6.0040  -15.6890 C.ar   66  PHE66      -0.0042
    120  CD2      -22.1720    6.5890  -14.1330 C.ar   66  PHE66      -0.0042
    121  CE1      -20.1210    4.9070  -14.9160 C.ar   66  PHE66      -0.0003
    122  CE2      -21.8400    5.4860  -13.3330 C.ar   66  PHE66      -0.0003
    123  CZ       -20.8130    4.6440  -13.7270 C.ar   66  PHE66      -0.0000
    124  N        -20.0470    3.7800  -19.3090 N.3    68  VAL68      -0.1231
    125  CA       -18.7390    3.2590  -18.9260 C.3    68  VAL68       0.1692
    126  C        -17.6790    3.6180  -19.9440 C.2    68  VAL68       0.2591
    127  O        -16.5150    3.6040  -19.6340 O.2    68  VAL68      -0.2718
    128  CB       -18.7210    1.7720  -18.4690 C.3    68  VAL68       0.0266
    129  CG1      -20.0970    1.1170  -18.5720 C.3    68  VAL68       0.0020
    130  CG2      -17.5720    0.9730  -19.1040 C.3    68  VAL68       0.0020
    131  N        -18.0910    4.0000  -21.1450 N.am   69  LYS69      -0.1980
    132  CA       -17.1320    4.4970  -22.1520 C.3    69  LYS69       0.1596
    133  C        -16.4970    5.8350  -21.7690 C.2    69  LYS69       0.2287
    134  O        -15.4800    6.2260  -22.3440 O.2    69  LYS69      -0.2864
    135  CB       -17.8000    4.6200  -23.5220 C.3    69  LYS69       0.0298
    136  CG       -18.3600    3.3040  -24.0680 C.3    69  LYS69       0.0038
    137  CD       -18.8660    3.5000  -25.5030 C.3    69  LYS69       0.0206
    138  CE       -20.0020    2.5380  -25.8050 C.3    69  LYS69       0.1093
    139  NZ       -20.5920    2.8490  -27.1390 N.3    69  LYS69      -0.1314
    140  N        -14.2900    7.1270  -19.8660 N.3    71  HIS71      -0.1241
    141  CA       -13.2020    6.7550  -18.9780 C.3    71  HIS71       0.1621
    142  C        -12.6980    7.9170  -18.1080 C.2    71  HIS71       0.2264
    143  O        -12.4890    7.7420  -16.9190 O.2    71  HIS71      -0.2867
    144  CB       -12.0560    6.0950  -19.7670 C.3    71  HIS71       0.0745
    145  CG       -12.4480    4.8620  -20.5310 C.ar   71  HIS71       0.0817
    146  ND1      -11.6590    4.3220  -21.5290 N.ar   71  HIS71      -0.2268
    147  CD2      -13.5410    4.0620  -20.4460 C.ar   71  HIS71       0.1154
    148  CE1      -12.2450    3.2440  -22.0180 C.ar   71  HIS71       0.1986
    149  NE2      -13.3890    3.0640  -21.3770 N.ar   71  HIS71      -0.2212
    150  N        -14.9530    8.6340  -15.1890 N.3    74  ILE74      -0.1231
    151  CA       -14.8670    7.5980  -14.1530 C.3    74  ILE74       0.1692
    152  C        -13.5610    7.7090  -13.3400 C.2    74  ILE74       0.2592
    153  O        -13.5770    7.7570  -12.1130 O.2    74  ILE74      -0.2718
    154  CB       -15.0500    6.1980  -14.7620 C.3    74  ILE74       0.0266
    155  CG1      -16.4840    6.0620  -15.3060 C.3    74  ILE74       0.0019
    156  CG2      -14.8080    5.0990  -13.7040 C.3    74  ILE74       0.0020
    157  CD1      -16.6460    5.0060  -16.3890 C.3    74  ILE74       0.0001
    158  N        -12.4280    7.8110  -14.0140 N.am   75  TYR75      -0.1976
    159  CA       -11.1800    7.9990  -13.2620 C.3    75  TYR75       0.1639
    160  C        -11.1700    9.2750  -12.4630 C.2    75  TYR75       0.2290
    161  O        -10.6450    9.2950  -11.3660 O.2    75  TYR75      -0.2864
    162  CB        -9.9380    7.9190  -14.1510 C.3    75  TYR75       0.0560
    163  CG        -9.5810    6.4890  -14.5290 C.ar   75  TYR75      -0.0198
    164  CD1      -10.1370    5.8860  -15.6440 C.ar   75  TYR75      -0.0009
    165  CD2       -8.7060    5.7470  -13.7480 C.ar   75  TYR75      -0.0009
    166  CE1       -9.8100    4.5550  -16.0030 C.ar   75  TYR75       0.0417
    167  CE2       -8.3680    4.4230  -14.0840 C.ar   75  TYR75       0.0417
    168  CZ        -8.9240    3.8430  -15.2090 C.ar   75  TYR75       0.1957
    169  OH        -8.6100    2.5420  -15.5250 O.3    75  TYR75      -0.2866
@<TRIPOS>BOND
     1   139   138    1
     2    86    85    1
     3   138   137    1
     4   137   136    1
     5    81    80    2
     6    84    85    2
     7    84    83    1
     8   105   103   ar
     9   105   104   ar
    10    82    83    1
    11    82    79    1
    12   103   101   ar
    13    80    79    1
    14   104   102   ar
    15    79    78    1
    16   136   135    1
    17   135   132    1
    18   101   102   ar
    19   101   100    1
    20    87    88    1
    21   100    97    1
    22   134   133    2
    23   132   133    1
    24   132   131    1
    25   148   146   ar
    26   148   149   ar
    27    96    97    1
    28    96    89   am
    29    92    91    1
    30    92    93    1
    31   146   145   ar
    32   149   147   ar
    33    95    93   am
    34    97    98    1
    35    88    91    1
    36    88    89    1
    37   131   126   am
    38    93    94    2
    39    89    90    2
    40    98    99    2
    41   145   147   ar
    42   145   144    1
    43   126   127    2
    44   126   125    1
    45   140   141    1
    46   144   141    1
    47   124   125    1
    48   130   128    1
    49   141   142    1
    50   125   128    1
    51   129   128    1
    52   142   143    2
    53   115   116    2
    54   115   114    1
    55    72    74   ar
    56    72    71   ar
    57    74    76   ar
    58   106   107    1
    59   114   113    1
    60   114   117    1
    61    68    69    2
    62    68    67    1
    63    70    71    1
    64    70    67    1
    65    71    73   ar
    66    76    77    1
    67    76    75   ar
    68   157   155    1
    69    67    66    1
    70   117   118    1
    71   107   108    1
    72   107   110    1
    73   166   164   ar
    74   166   168   ar
    75   112   110    1
    76   119   118   ar
    77   119   121   ar
    78   164   163   ar
    79   109   108    2
    80   169   168    1
    81    73    75   ar
    82   118   120   ar
    83   155   154    1
    84   110   111    1
    85   168   167   ar
    86   150   151    1
    87   121   123   ar
    88   154   151    1
    89   154   156    1
    90     8     9    1
    91     8     7    1
    92   163   162    1
    93   163   165   ar
    94   151   152    1
    95   162   159    1
    96   120   122   ar
    97    64    63    1
    98    64    65    1
    99   167   165   ar
   100   158   152   am
   101   158   159    1
   102   123   122   ar
   103    63    62    1
   104     7     6    1
   105   152   153    2
   106   159   160    1
   107    56    54    1
   108    17    15    1
   109    16    15    1
   110   160   161    2
   111    57    55    1
   112    62    59    1
   113     6     5    1
   114    59    58    1
   115    59    60    1
   116    54    55    1
   117    54    51    1
   118    15    14    1
   119    14    11    1
   120    38    39    1
   121    38    37    1
   122    53    52    2
   123    40    39    2
   124    58    52   am
   125    52    51    1
   126    61    60    2
   127    49    47   am
   128    39    41   am
   129    13    12    2
   130     5     2    1
   131    51    50    1
   132    37    31   am
   133    11    12    1
   134    11    10    1
   135    12    18   am
   136    24    26   ar
   137    24    23   ar
   138     2     1    1
   139     2     3    1
   140    26    28   ar
   141    18    19    1
   142    19    22    1
   143    19    20    1
   144    41    42    1
   145    47    48    2
   146    47    46    1
   147     4     3    2
   148    36    34    1
   149    34    33    1
   150    34    35    1
   151    32    31    2
   152    31    30    1
   153    21    20    2
   154    22    23    1
   155    42    43    1
   156    42    45    1
   157    23    25   ar
   158    33    30    1
   159    46    45    1
   160    28    27   ar
   161    43    44    2
   162    30    29    1
   163    25    27   ar
