@<TRIPOS>MOLECULE
tmp/3g0bD05.pdb
 178 175 0 0 0
SMALL
GASTEIGER

@<TRIPOS>ATOM
      1  N         42.8220  -28.9980   41.7340 N.3    86  ARG86      -0.1245
      2  CA        42.0770  -28.1070   40.8720 C.3    86  ARG86       0.1563
      3  C         40.7270  -27.7620   41.4800 C.2    86  ARG86       0.2260
      4  O         40.2550  -26.6320   41.3360 O.2    86  ARG86      -0.2867
      5  CB        41.8810  -28.7200   39.4930 C.3    86  ARG86       0.0307
      6  CG        41.2560  -27.7760   38.4770 C.3    86  ARG86       0.0489
      7  CD        40.7540  -28.5590   37.2760 C.3    86  ARG86       0.2205
      8  NE        41.8400  -29.1310   36.4890 N.pl3  86  ARG86      -0.0865
      9  CZ        42.4880  -28.4960   35.5110 C.cat  86  ARG86       0.5346
     10  NH1       42.1830  -27.2450   35.1990 N.pl3  86  ARG86       0.1354
     11  NH2       43.4610  -29.1160   34.8490 N.pl3  86  ARG86       0.1354
     12  N         40.5490  -34.9150   39.1190 N.3   166  GLU166     -0.1231
     13  CA        40.9960  -34.2610   37.9060 C.3   166  GLU166      0.1699
     14  C         40.3390  -34.8020   36.6360 C.2   166  GLU166      0.2592
     15  O         40.0640  -34.0220   35.7190 O.2   166  GLU166     -0.2718
     16  CB        42.5300  -34.3440   37.7960 C.3   166  GLU166      0.0402
     17  CG        43.1400  -33.7940   36.5170 C.3   166  GLU166      0.1161
     18  CD        42.9500  -32.2870   36.3470 C.2   166  GLU166      0.3649
     19  OE1       42.7070  -31.5970   37.3530 O.co2 166  GLU166     -0.2457
     20  OE2       43.0460  -31.7930   35.2030 O.co2 166  GLU166     -0.2457
     21  N         40.0880  -36.1160   36.5840 N.am  167  GLU167     -0.1979
     22  CA        39.7840  -36.7830   35.3010 C.3   167  GLU167      0.1602
     23  C         38.4130  -37.4480   35.1800 C.2   167  GLU167      0.2287
     24  O         37.9490  -37.7400   34.0750 O.2   167  GLU167     -0.2864
     25  CB        40.8660  -37.8220   34.9780 C.3   167  GLU167      0.0415
     26  CG        42.2940  -37.2810   34.9760 C.3   167  GLU167      0.1163
     27  CD        42.5780  -36.2580   33.8710 C.2   167  GLU167      0.3649
     28  OE1       41.6280  -35.7580   33.2170 O.co2 167  GLU167     -0.2457
     29  OE2       43.7730  -35.9500   33.6620 O.co2 167  GLU167     -0.2457
     30  N         35.5990  -34.2560   38.0780 N.3   170  SER170     -0.1217
     31  CA        35.8650  -32.8250   37.9610 C.3   170  SER170      0.1889
     32  C         35.3920  -32.1070   39.2160 C.2   170  SER170      0.2288
     33  O         34.8980  -30.9840   39.1520 O.2   170  SER170     -0.2866
     34  CB        35.2040  -32.2350   36.7060 C.3   170  SER170      0.2089
     35  OG        35.6170  -32.9390   35.5470 O.3   170  SER170     -0.2183
     36  N         34.4030  -37.0270   27.4230 N.3   318  PHE318     -0.1241
     37  CA        35.4620  -37.3230   28.3750 C.3   318  PHE318      0.1605
     38  C         35.0400  -38.4450   29.3130 C.2   318  PHE318      0.2264
     39  O         35.8760  -39.0270   29.9920 O.2   318  PHE318     -0.2867
     40  CB        35.8280  -36.0650   29.1680 C.3   318  PHE318      0.0534
     41  CG        36.5170  -35.0230   28.3470 C.ar  318  PHE318     -0.0203
     42  CD1       37.8990  -34.9960   28.2640 C.ar  318  PHE318     -0.0042
     43  CD2       35.7820  -34.0710   27.6440 C.ar  318  PHE318     -0.0042
     44  CE1       38.5450  -34.0380   27.5020 C.ar  318  PHE318     -0.0003
     45  CE2       36.4120  -33.1180   26.8770 C.ar  318  PHE318     -0.0003
     46  CZ        37.8060  -33.1050   26.7990 C.ar  318  PHE318     -0.0000
     47  N         47.7240  -23.4330   20.4110 N.3   507  VAL507     -0.1231
     48  CA        47.3260  -24.8360   20.3140 C.3   507  VAL507      0.1692
     49  C         46.8820  -25.4880   21.6390 C.2   507  VAL507      0.2592
     50  O         47.4680  -25.2660   22.7080 O.2   507  VAL507     -0.2718
     51  CB        48.3950  -25.7080   19.5330 C.3   507  VAL507      0.0266
     52  CG1       49.7270  -25.7150   20.2210 C.3   507  VAL507      0.0020
     53  CG2       47.9310  -27.1340   19.3580 C.3   507  VAL507      0.0020
     54  N         45.7940  -26.2510   21.5320 N.am  508  TYR508     -0.1976
     55  CA        45.3980  -27.2360   22.5150 C.3   508  TYR508      0.1639
     56  C         45.4950  -28.5790   21.7550 C.2   508  TYR508      0.2290
     57  O         46.4860  -29.3220   21.9010 O.2   508  TYR508     -0.2864
     58  CB        43.9860  -26.9070   23.0260 C.3   508  TYR508      0.0560
     59  CG        43.3410  -27.8700   24.0100 C.ar  508  TYR508     -0.0198
     60  CD1       42.1060  -27.5700   24.5880 C.ar  508  TYR508     -0.0009
     61  CD2       43.9510  -29.0720   24.3540 C.ar  508  TYR508     -0.0009
     62  CE1       41.4880  -28.4540   25.4850 C.ar  508  TYR508      0.0417
     63  CE2       43.3490  -29.9600   25.2300 C.ar  508  TYR508      0.0417
     64  CZ        42.1320  -29.6570   25.7920 C.ar  508  TYR508      0.1957
     65  OH        41.5760  -30.5590   26.6700 O.3   508  TYR508     -0.2866
     66  N         49.8520  -25.0410   26.1730 N.3   590  TRP590     -0.1227
     67  CA        49.9450  -25.3680   27.5720 C.3   590  TRP590      0.1737
     68  C         49.3100  -26.7410   27.6680 C.2   590  TRP590      0.2596
     69  O         48.3260  -27.0010   26.9730 O.2   590  TRP590     -0.2718
     70  CB        49.0840  -24.3660   28.3480 C.3   590  TRP590      0.0564
     71  CG        49.4110  -24.1950   29.7980 C.ar  590  TRP590      0.0003
     72  CD1       49.4820  -25.1790   30.7640 C.ar  590  TRP590      0.0946
     73  CD2       49.7030  -22.9540   30.4650 C.ar  590  TRP590      0.0152
     74  NE1       49.7960  -24.6080   31.9880 N.ar  590  TRP590     -0.2442
     75  CE2       49.9410  -23.2540   31.8320 C.ar  590  TRP590      0.0810
     76  CE3       49.7900  -21.6100   30.0360 C.ar  590  TRP590      0.0012
     77  CZ2       50.2530  -22.2540   32.7880 C.ar  590  TRP590      0.0191
     78  CZ3       50.1120  -20.6090   30.9920 C.ar  590  TRP590      0.0001
     79  CH2       50.3320  -20.9460   32.3520 C.ar  590  TRP590      0.0015
     80  N         49.8500  -27.6120   28.5250 N.am  591  SER591     -0.1938
     81  CA        49.2410  -28.9210   28.7830 C.3   591  SER591      0.2055
     82  C         49.3380  -29.7650   27.5170 C.2   591  SER591      0.2643
     83  O         50.4370  -29.9370   26.9750 O.2   591  SER591     -0.2714
     84  CB        47.7820  -28.7720   29.2090 C.3   591  SER591      0.2130
     85  OG        47.6230  -27.9430   30.3510 O.3   591  SER591     -0.2179
     86  N         48.2010  -30.2560   27.0160 N.am  592  TYR592     -0.1973
     87  CA        48.1890  -30.9810   25.7370 C.3   592  TYR592      0.1639
     88  C         48.7820  -30.1650   24.5870 C.2   592  TYR592      0.2290
     89  O         49.4700  -30.7110   23.7260 O.2   592  TYR592     -0.2864
     90  CB        46.7880  -31.4680   25.3600 C.3   592  TYR592      0.0560
     91  CG        46.8220  -32.6210   24.3770 C.ar  592  TYR592     -0.0198
     92  CD1       46.6390  -33.9210   24.8050 C.ar  592  TYR592     -0.0009
     93  CD2       47.0570  -32.3980   23.0140 C.ar  592  TYR592     -0.0009
     94  CE1       46.6870  -34.9860   23.9100 C.ar  592  TYR592      0.0417
     95  CE2       47.1070  -33.4520   22.1110 C.ar  592  TYR592      0.0417
     96  CZ        46.9250  -34.7430   22.5700 C.ar  592  TYR592      0.1957
     97  OH        46.9620  -35.7850   21.6770 O.3   592  TYR592     -0.2866
     98  N         53.0840  -32.3890   28.2990 N.3   617  VAL617     -0.1245
     99  CA        53.3350  -33.8250   28.3390 C.3   617  VAL617      0.1561
    100  C         54.5270  -34.1140   27.4030 C.2   617  VAL617      0.2260
    101  O         54.6650  -33.4840   26.3270 O.2   617  VAL617     -0.2867
    102  CB        52.0360  -34.6200   27.9740 C.3   617  VAL617      0.0252
    103  CG1       52.3020  -36.1250   27.6940 C.3   617  VAL617      0.0019
    104  CG2       50.9910  -34.4700   29.1140 C.3   617  VAL617      0.0019
    105  N         53.5960  -40.3090   27.0950 N.3   620  TRP620     -0.1241
    106  CA        52.3160  -40.6160   27.7110 C.3   620  TRP620      0.1605
    107  C         52.3830  -41.4870   28.9730 C.2   620  TRP620      0.2264
    108  O         51.5080  -41.3760   29.8090 O.2   620  TRP620     -0.2867
    109  CB        51.3070  -41.0910   26.6530 C.3   620  TRP620      0.0550
    110  CG        50.8870  -39.9340   25.8050 C.ar  620  TRP620      0.0003
    111  CD1       51.2130  -39.7130   24.5000 C.ar  620  TRP620      0.0946
    112  CD2       50.1200  -38.7940   26.2280 C.ar  620  TRP620      0.0152
    113  NE1       50.6760  -38.5290   24.0720 N.ar  620  TRP620     -0.2442
    114  CE2       50.0000  -37.9390   25.1120 C.ar  620  TRP620      0.0810
    115  CE3       49.4970  -38.4280   27.4380 C.ar  620  TRP620      0.0012
    116  CZ2       49.2950  -36.7170   25.1650 C.ar  620  TRP620      0.0191
    117  CZ3       48.7960  -37.2100   27.4950 C.ar  620  TRP620      0.0001
    118  CH2       48.6960  -36.3760   26.3550 C.ar  620  TRP620      0.0015
    119  N         52.0160  -39.5180   32.1770 N.3   623  TYR623     -0.1241
    120  CA        50.7570  -38.8490   32.4760 C.3   623  TYR623      0.1605
    121  C         49.7590  -39.8210   33.1210 C.2   623  TYR623      0.2264
    122  O         50.0130  -41.0390   33.1590 O.2   623  TYR623     -0.2867
    123  CB        50.1980  -38.0910   31.2330 C.3   623  TYR623      0.0534
    124  CG        49.1640  -37.0700   31.6380 C.ar  623  TYR623     -0.0201
    125  CD1       49.4980  -36.0400   32.5110 C.ar  623  TYR623     -0.0009
    126  CD2       47.8420  -37.1630   31.1990 C.ar  623  TYR623     -0.0009
    127  CE1       48.5690  -35.1360   32.9360 C.ar  623  TYR623      0.0417
    128  CE2       46.9030  -36.2310   31.5990 C.ar  623  TYR623      0.0417
    129  CZ        47.2810  -35.2220   32.4840 C.ar  623  TYR623      0.1957
    130  OH        46.3760  -34.2990   32.9240 O.3   623  TYR623     -0.2866
    131  N         42.9510  -40.2360   31.8630 N.3   627  TYR627     -0.1241
    132  CA        43.0000  -39.4260   30.6610 C.3   627  TYR627      0.1605
    133  C         43.7600  -40.1910   29.5740 C.2   627  TYR627      0.2264
    134  O         43.2300  -40.4170   28.4980 O.2   627  TYR627     -0.2867
    135  CB        43.6510  -38.0790   30.9420 C.3   627  TYR627      0.0534
    136  CG        43.6940  -37.1400   29.7590 C.ar  627  TYR627     -0.0201
    137  CD1       42.6210  -36.3050   29.4740 C.ar  627  TYR627     -0.0009
    138  CD2       44.8200  -37.0840   28.9280 C.ar  627  TYR627     -0.0009
    139  CE1       42.6540  -35.4350   28.4020 C.ar  627  TYR627      0.0417
    140  CE2       44.8710  -36.2370   27.8500 C.ar  627  TYR627      0.0417
    141  CZ        43.7830  -35.4040   27.5830 C.ar  627  TYR627      0.1957
    142  OH        43.8020  -34.5380   26.5100 O.3   627  TYR627     -0.2866
    143  N         42.3850  -43.5510   28.1190 N.3   630  ARG630     -0.1245
    144  CA        41.1230  -43.3130   27.4130 C.3   630  ARG630      0.1563
    145  C         41.3690  -43.2360   25.8990 C.2   630  ARG630      0.2260
    146  O         40.5240  -43.6420   25.0840 O.2   630  ARG630     -0.2867
    147  CB        40.5060  -42.0070   27.8870 C.3   630  ARG630      0.0307
    148  CG        39.1050  -41.7240   27.3700 C.3   630  ARG630      0.0489
    149  CD        38.6460  -40.3350   27.8320 C.3   630  ARG630      0.2205
    150  NE        38.4700  -40.2600   29.2890 N.pl3 630  ARG630     -0.0865
    151  CZ        38.7970  -39.2070   30.0340 C.cat 630  ARG630      0.5346
    152  NH1       38.5800  -39.2340   31.3360 N.pl3 630  ARG630      0.1354
    153  NH2       39.3500  -38.1270   29.4890 N.pl3 630  ARG630      0.1354
    154  N         49.9140  -32.2980   38.3380 N.3   671  ASN671     -0.1225
    155  CA        49.1430  -32.7720   37.1880 C.3   671  ASN671      0.1785
    156  C         50.0850  -33.3020   36.1030 C.2   671  ASN671      0.2597
    157  O         50.1860  -34.5140   35.8640 O.2   671  ASN671     -0.2718
    158  CB        48.2960  -31.6050   36.6520 C.3   671  ASN671      0.1169
    159  CG        47.2230  -32.0370   35.6620 C.2   671  ASN671      0.2627
    160  OD1       46.2130  -31.3560   35.5130 O.2   671  ASN671     -0.2716
    161  ND2       47.4310  -33.1550   34.9830 N.am  671  ASN671     -0.0877
    162  N         50.7560  -32.3950   35.4170 N.am  672  VAL672     -0.1980
    163  CA        51.8600  -32.8320   34.5870 C.3   672  VAL672      0.1595
    164  C         53.1480  -32.4890   35.2770 C.2   672  VAL672      0.2287
    165  O         53.5290  -31.3330   35.4370 O.2   672  VAL672     -0.2864
    166  CB        51.7550  -32.4610   33.0540 C.3   672  VAL672      0.0276
    167  CG1       50.6150  -31.5470   32.7400 C.3   672  VAL672      0.0022
    168  CG2       53.1040  -32.1130   32.4330 C.3   672  VAL672      0.0022
    169  N         50.1700  -26.6530   37.8750 N.3   701  HIS701     -0.1241
    170  CA        49.8090  -26.6890   36.4440 C.3   701  HIS701      0.1621
    171  C         49.2210  -25.3680   35.9070 C.2   701  HIS701      0.2264
    172  O         49.3760  -25.0480   34.7280 O.2   701  HIS701     -0.2867
    173  CB        48.8760  -27.8720   36.1290 C.3   701  HIS701      0.0745
    174  CG        48.8420  -28.2350   34.6780 C.ar  701  HIS701      0.0817
    175  ND1       49.9370  -28.7450   34.0140 N.ar  701  HIS701     -0.2268
    176  CD2       47.8500  -28.1500   33.7600 C.ar  701  HIS701      0.1154
    177  CE1       49.6260  -28.9500   32.7480 C.ar  701  HIS701      0.1986
    178  NE2       48.3650  -28.5940   32.5680 N.ar  701  HIS701     -0.2212
@<TRIPOS>BOND
     1    53    51    1
     2    51    52    1
     3    51    48    1
     4    48    47    1
     5    48    49    1
     6    54    49   am
     7    54    55    1
     8    49    50    2
     9    97    96    1
    10    56    57    2
    11    56    55    1
    12    95    96   ar
    13    95    93   ar
    14    55    58    1
    15    96    94   ar
    16    93    91   ar
    17    58    59    1
    18    89    88    2
    19    94    92   ar
    20    59    61   ar
    21    59    60   ar
    22   113   111   ar
    23   113   114   ar
    24    61    63   ar
    25    91    92   ar
    26    91    90    1
    27   111   110   ar
    28    88    87    1
    29    60    62   ar
    30   146   145    2
    31   114   116   ar
    32   114   112   ar
    33   116   118   ar
    34    63    64   ar
    35    90    87    1
    36    62    64   ar
    37    87    86    1
    38    64    65    1
    39   110   112   ar
    40   110   109    1
    41   145   144    1
    42    66    67    1
    43   112   115   ar
    44   101   100    2
    45   118   117   ar
    46   142   141    1
    47   109   106    1
    48    46    45   ar
    49    46    44   ar
    50    45    43   ar
    51    69    68    2
    52    83    82    2
    53    86    82   am
    54   105   106    1
    55   148   149    1
    56   148   147    1
    57   100    99    1
    58   144   147    1
    59   144   143    1
    60    36    37    1
    61   115   117   ar
    62    44    42   ar
    63    82    81    1
    64    67    68    1
    65    67    70    1
    66   141   140   ar
    67   141   139   ar
    68    43    41   ar
    69    68    80   am
    70   103   102    1
    71   106   107    1
    72   149   150    1
    73   140   138   ar
    74   102    99    1
    75   102   104    1
    76    42    41   ar
    77    98    99    1
    78    41    40    1
    79    70    71    1
    80    37    40    1
    81    37    38    1
    82   139   137   ar
    83   134   133    2
    84    80    81    1
    85    81    84    1
    86   138   136   ar
    87   107   108    2
    88    84    85    1
    89   150   151    2
    90    38    39    2
    91   137   136   ar
    92   153   151    1
    93   133   132    1
    94   136   135    1
    95    71    73   ar
    96    71    72   ar
    97   151   152    1
    98    76    73   ar
    99    76    78   ar
   100    73    75   ar
   101   132   135    1
   102   132   131    1
   103    72    74   ar
   104    78    79   ar
   105   126   128   ar
   106   126   124   ar
   107   123   124    1
   108   123   120    1
   109   128   129   ar
   110   124   125   ar
   111    75    74   ar
   112    75    77   ar
   113   119   120    1
   114    79    77   ar
   115   168   166    1
   116   120   121    1
   117   129   130    1
   118   129   127   ar
   119   125   127   ar
   120   178   177   ar
   121   178   176   ar
   122   167   166    1
   123   177   175   ar
   124   166   163    1
   125   121   122    2
   126    28    27   ar
   127    29    27   ar
   128   176   174   ar
   129    27    26    1
   130   175   174   ar
   131    24    23    2
   132   163   164    1
   133   163   162    1
   134   174   173    1
   135   172   171    2
   136    11     9    1
   137    26    25    1
   138    25    22    1
   139   161   159   am
   140    23    22    1
   141    10     9    1
   142    20    18   ar
   143   164   165    2
   144    22    21    1
   145   162   156   am
   146     9     8    2
   147   160   159    2
   148    35    34    1
   149   159   158    1
   150    15    14    2
   151   157   156    2
   152   171   170    1
   153   156   155    1
   154   173   170    1
   155    18    17    1
   156    18    19   ar
   157   170   169    1
   158     8     7    1
   159    17    16    1
   160    21    14   am
   161    14    13    1
   162   158   155    1
   163    34    31    1
   164   155   154    1
   165     7     6    1
   166    16    13    1
   167    13    12    1
   168    31    30    1
   169    31    32    1
   170     6     5    1
   171    33    32    2
   172     5     2    1
   173     2     3    1
   174     2     1    1
   175     4     3    2
