@<TRIPOS>MOLECULE
tmp/3g0dA00.pdb
 191 187 0 0 0
SMALL
GASTEIGER

@<TRIPOS>ATOM
      1  N         41.3990   -2.9940   25.6110 N.3    82  ARG82      -0.1245
      2  CA        42.5260   -3.5550   24.8590 C.3    82  ARG82       0.1563
      3  C         43.7340   -3.9340   25.7140 C.2    82  ARG82       0.2260
      4  O         44.3270   -4.9900   25.4990 O.2    82  ARG82      -0.2867
      5  CB        42.9770   -2.6220   23.7330 C.3    82  ARG82       0.0307
      6  CG        43.8870   -3.3110   22.7100 C.3    82  ARG82       0.0489
      7  CD        44.5690   -2.3360   21.7750 C.3    82  ARG82       0.2205
      8  NE        43.6190   -1.5990   20.9450 N.pl3  82  ARG82      -0.0865
      9  CZ        43.2220   -1.9790   19.7330 C.cat  82  ARG82       0.5346
     10  NH1       43.6860   -3.0980   19.1950 N.pl3  82  ARG82       0.1354
     11  NH2       42.3610   -1.2290   19.0530 N.pl3  82  ARG82       0.1354
     12  N         43.4840    3.6750   24.8870 N.3   162  GLU162     -0.1231
     13  CA        43.3520    3.2130   23.5150 C.3   162  GLU162      0.1699
     14  C         44.1520    4.0450   22.5220 C.2   162  GLU162      0.2592
     15  O         44.7610    3.4900   21.6090 O.2   162  GLU162     -0.2718
     16  CB        41.8710    3.1320   23.1190 C.3   162  GLU162      0.0402
     17  CG        41.5810    2.7470   21.6530 C.3   162  GLU162      0.1161
     18  CD        41.9140    1.2950   21.2960 C.2   162  GLU162      0.3649
     19  OE1       41.9980    1.0030   20.0770 O.co2 162  GLU162     -0.2457
     20  OE2       42.0880    0.4490   22.2070 O.co2 162  GLU162     -0.2457
     21  N         44.1790    5.3640   22.7310 N.am  163  GLU163     -0.1979
     22  CA        44.6480    6.3110   21.7130 C.3   163  GLU163      0.1602
     23  C         45.9290    7.0870   22.0210 C.2   163  GLU163      0.2287
     24  O         46.5160    7.6920   21.1150 O.2   163  GLU163     -0.2864
     25  CB        43.5220    7.3000   21.3510 C.3   163  GLU163      0.0415
     26  CG        42.1820    6.6580   20.9490 C.3   163  GLU163      0.1163
     27  CD        42.2140    5.9140   19.6090 C.2   163  GLU163      0.3649
     28  OE1       43.3060    5.7280   19.0220 O.co2 163  GLU163     -0.2457
     29  OE2       41.1280    5.5140   19.1370 O.co2 163  GLU163     -0.2457
     30  N         48.6390    3.4490   24.6050 N.3   166  SER166     -0.1217
     31  CA        48.5460    2.0340   24.2170 C.3   166  SER166      0.1889
     32  C         48.8300    1.1310   25.4130 C.2   166  SER166      0.2288
     33  O         49.4330    0.0520   25.2740 O.2   166  SER166     -0.2866
     34  CB        49.5090    1.7070   23.0720 C.3   166  SER166      0.2089
     35  OG        49.3320    2.6030   21.9970 O.3   166  SER166     -0.2183
     36  N         51.3420    8.8680   15.1800 N.3   314  PHE314     -0.1241
     37  CA        50.0890    8.8520   15.9230 C.3   314  PHE314      0.1605
     38  C         50.2110    9.7970   17.1210 C.2   314  PHE314      0.2264
     39  O         49.2050   10.2730   17.6550 O.2   314  PHE314     -0.2867
     40  CB        49.7330    7.4360   16.3920 C.3   314  PHE314      0.0534
     41  CG        49.3930    6.4940   15.2750 C.ar  314  PHE314     -0.0203
     42  CD1       48.0790    6.3800   14.8170 C.ar  314  PHE314     -0.0042
     43  CD2       50.3840    5.7220   14.6670 C.ar  314  PHE314     -0.0042
     44  CE1       47.7640    5.5160   13.7670 C.ar  314  PHE314     -0.0003
     45  CE2       50.0720    4.8580   13.6170 C.ar  314  PHE314     -0.0003
     46  CZ        48.7660    4.7490   13.1730 C.ar  314  PHE314     -0.0000
     47  N         41.3840   -4.2650    3.0500 N.3   503  VAL503     -0.1231
     48  CA        41.5450   -2.8330    3.3110 C.3   503  VAL503      0.1692
     49  C         41.7080   -2.4410    4.7750 C.2   503  VAL503      0.2592
     50  O         41.0110   -2.9520    5.6640 O.2   503  VAL503     -0.2718
     51  CB        40.3390   -2.0500    2.7400 C.3   503  VAL503      0.0266
     52  CG1       40.6330   -0.5470    2.6510 C.3   503  VAL503      0.0020
     53  CG2       39.9530   -2.5930    1.3820 C.3   503  VAL503      0.0020
     54  N         42.6460   -1.5220    4.9980 N.am  504  TYR504     -0.1976
     55  CA        42.7670   -0.7440    6.2330 C.3   504  TYR504      0.1639
     56  C         42.6320    0.7260    5.7720 C.2   504  TYR504      0.2290
     57  O         41.5590    1.3350    5.8840 O.2   504  TYR504     -0.2864
     58  CB        44.1260   -1.0320    6.8750 C.3   504  TYR504      0.0560
     59  CG        44.4910   -0.2700    8.1310 C.ar  504  TYR504     -0.0198
     60  CD1       43.7690    0.8650    8.5580 C.ar  504  TYR504     -0.0009
     61  CD2       45.6080   -0.6480    8.8670 C.ar  504  TYR504     -0.0009
     62  CE1       44.1430    1.5700    9.7110 C.ar  504  TYR504      0.0417
     63  CE2       45.9900    0.0500   10.0080 C.ar  504  TYR504      0.0417
     64  CZ        45.2630    1.1600   10.4220 C.ar  504  TYR504      0.1957
     65  OH        45.6590    1.8350   11.5680 O.3   504  TYR504     -0.2866
     66  N         49.6470   -1.7490    4.5540 N.3   511  LYS511     -0.1245
     67  CA        49.1510   -3.1000    4.3110 C.3   511  LYS511      0.1561
     68  C         49.9570   -3.8690    3.2560 C.2   511  LYS511      0.2260
     69  O         49.7260   -5.0650    3.0450 O.2   511  LYS511     -0.2867
     70  CB        47.6720   -3.0450    3.9450 C.3   511  LYS511      0.0271
     71  CG        46.7930   -2.6320    5.1150 C.3   511  LYS511      0.0035
     72  CD        46.3920   -3.8280    5.9810 C.3   511  LYS511      0.0206
     73  CE        45.2880   -4.6510    5.2890 C.3   511  LYS511      0.1093
     74  NZ        44.7370   -5.7380    6.1590 N.3   511  LYS511     -0.1314
     75  N         38.0020   -4.2470    8.3150 N.3   586  TRP586     -0.1227
     76  CA        37.6030   -4.1660    9.6960 C.3   586  TRP586      0.1737
     77  C         37.9030   -2.7150   10.1050 C.2   586  TRP586      0.2596
     78  O         38.8330   -2.1170    9.5600 O.2   586  TRP586     -0.2718
     79  CB        38.4860   -5.1280   10.4920 C.3   586  TRP586      0.0564
     80  CG        37.8970   -5.6460   11.7780 C.ar  586  TRP586      0.0003
     81  CD1       37.5640   -4.9110   12.8980 C.ar  586  TRP586      0.0946
     82  CD2       37.6070   -7.0100   12.0970 C.ar  586  TRP586      0.0152
     83  NE1       37.0640   -5.7340   13.8680 N.ar  586  TRP586     -0.2442
     84  CE2       37.0800   -7.0280   13.4130 C.ar  586  TRP586      0.0810
     85  CE3       37.7250   -8.2240   11.3940 C.ar  586  TRP586      0.0012
     86  CZ2       36.6710   -8.2180   14.0460 C.ar  586  TRP586      0.0191
     87  CZ3       37.3170   -9.4190   12.0320 C.ar  586  TRP586      0.0001
     88  CH2       36.8070   -9.3980   13.3420 C.ar  586  TRP586      0.0015
     89  N         37.1270   -2.1530   11.0400 N.am  587  SER587     -0.1938
     90  CA        37.3850   -0.8070   11.5980 C.3   587  SER587      0.2055
     91  C         37.4390    0.2810   10.5280 C.2   587  SER587      0.2643
     92  O         36.4680    0.4950    9.7950 O.2   587  SER587     -0.2714
     93  CB        38.7000   -0.7930   12.3900 C.3   587  SER587      0.2130
     94  OG        38.8430   -1.9340   13.2040 O.3   587  SER587     -0.2179
     95  N         38.5810    0.9590   10.4220 N.am  588  TYR588     -0.1959
     96  CA        38.7790    1.9480    9.3550 C.3   588  TYR588      0.1771
     97  C         38.6050    1.2870    7.9920 C.2   588  TYR588      0.2620
     98  O         38.0740    1.8930    7.0520 O.2   588  TYR588     -0.2715
     99  CB        40.1590    2.5980    9.4470 C.3   588  TYR588      0.0574
    100  CG        40.2150    3.9390    8.7620 C.ar  588  TYR588     -0.0198
    101  CD1       40.1620    5.1310    9.5060 C.ar  588  TYR588     -0.0009
    102  CD2       40.2930    4.0270    7.3690 C.ar  588  TYR588     -0.0009
    103  CE1       40.1940    6.3800    8.8740 C.ar  588  TYR588      0.0417
    104  CE2       40.3320    5.2620    6.7280 C.ar  588  TYR588      0.0417
    105  CZ        40.2830    6.4360    7.4830 C.ar  588  TYR588      0.1957
    106  OH        40.3290    7.6430    6.8320 O.3   588  TYR588     -0.2866
    107  N         39.0410    0.0320    7.9000 N.am  589  GLY589     -0.1954
    108  CA        38.8360   -0.7660    6.7030 C.3   589  GLY589      0.1869
    109  C         37.3670   -0.9880    6.4060 C.2   589  GLY589      0.2309
    110  O         36.9900   -1.0500    5.2440 O.2   589  GLY589     -0.2863
    111  N         33.4650    2.2510   11.2790 N.3   613  VAL613     -0.1245
    112  CA        33.0400    3.6260   11.5490 C.3   613  VAL613      0.1561
    113  C         32.0160    3.9900   10.4430 C.2   613  VAL613      0.2260
    114  O         32.2050    3.6220    9.2700 O.2   613  VAL613     -0.2867
    115  CB        34.2640    4.6150   11.5420 C.3   613  VAL613      0.0252
    116  CG1       33.8300    6.0790   11.3510 C.3   613  VAL613      0.0019
    117  CG2       35.0890    4.4650   12.8090 C.3   613  VAL613      0.0019
    118  N         32.1640   10.2400   11.6160 N.3   616  TRP616     -0.1241
    119  CA        33.2710   10.5720   12.5130 C.3   616  TRP616      0.1605
    120  C         32.8910   11.1460   13.8800 C.2   616  TRP616      0.2264
    121  O         33.6300   10.9490   14.8400 O.2   616  TRP616     -0.2867
    122  CB        34.3360   11.3980   11.7660 C.3   616  TRP616      0.0550
    123  CG        35.0240   10.5220   10.7660 C.ar  616  TRP616      0.0003
    124  CD1       34.9080   10.5680    9.4030 C.ar  616  TRP616      0.0946
    125  CD2       35.8660    9.4000   11.0620 C.ar  616  TRP616      0.0152
    126  NE1       35.6590    9.5630    8.8340 N.ar  616  TRP616     -0.2442
    127  CE2       36.2500    8.8290    9.8300 C.ar  616  TRP616      0.0810
    128  CE3       36.3410    8.8310   12.2500 C.ar  616  TRP616      0.0012
    129  CZ2       37.0870    7.7150    9.7520 C.ar  616  TRP616      0.0191
    130  CZ3       37.1770    7.7290   12.1740 C.ar  616  TRP616      0.0001
    131  CH2       37.5430    7.1800   10.9300 C.ar  616  TRP616      0.0015
    132  N         32.9790    8.5110   16.6650 N.3   619  TYR619     -0.1241
    133  CA        34.2380    7.9180   17.1060 C.3   619  TYR619      0.1605
    134  C         34.9810    8.8330   18.0990 C.2   619  TYR619      0.2264
    135  O         34.6510   10.0250   18.2140 O.2   619  TYR619     -0.2867
    136  CB        35.0970    7.5140   15.8960 C.3   619  TYR619      0.0534
    137  CG        36.1670    6.4990   16.2480 C.ar  619  TYR619     -0.0201
    138  CD1       35.8190    5.2870   16.8380 C.ar  619  TYR619     -0.0009
    139  CD2       37.5240    6.7600   16.0070 C.ar  619  TYR619     -0.0009
    140  CE1       36.7770    4.3600   17.1920 C.ar  619  TYR619      0.0417
    141  CE2       38.4920    5.8370   16.3500 C.ar  619  TYR619      0.0417
    142  CZ        38.1080    4.6290   16.9490 C.ar  619  TYR619      0.1957
    143  OH        39.0450    3.6910   17.3020 O.3   619  TYR619     -0.2866
    144  N         41.6280   10.2140   18.3240 N.3   623  TYR623     -0.1241
    145  CA        41.9450    9.6890   17.0010 C.3   623  TYR623      0.1605
    146  C         41.2980   10.5720   15.9360 C.2   623  TYR623      0.2264
    147  O         41.9700   11.0540   15.0170 O.2   623  TYR623     -0.2867
    148  CB        41.4660    8.2360   16.8730 C.3   623  TYR623      0.0534
    149  CG        41.7900    7.5850   15.5400 C.ar  623  TYR623     -0.0201
    150  CD1       42.9340    6.8180   15.3800 C.ar  623  TYR623     -0.0009
    151  CD2       40.9400    7.7440   14.4400 C.ar  623  TYR623     -0.0009
    152  CE1       43.2260    6.2330   14.1650 C.ar  623  TYR623      0.0417
    153  CE2       41.2250    7.1730   13.2190 C.ar  623  TYR623      0.0417
    154  CZ        42.3630    6.4140   13.0850 C.ar  623  TYR623      0.1957
    155  OH        42.6360    5.8320   11.8730 O.3   623  TYR623     -0.2866
    156  N         42.5400   14.3140   15.5550 N.3   626  ARG626     -0.1245
    157  CA        43.8910   14.3520   15.0090 C.3   626  ARG626      0.1563
    158  C         43.8490   14.6380   13.5100 C.2   626  ARG626      0.2260
    159  O         44.6580   15.4030   12.9920 O.2   626  ARG626     -0.2867
    160  CB        44.5910   13.0140   15.2590 C.3   626  ARG626      0.0307
    161  CG        46.0910   13.0110   14.9840 C.3   626  ARG626      0.0489
    162  CD        46.6810   11.6420   15.2690 C.3   626  ARG626      0.2205
    163  NE        46.5330   11.2720   16.6770 N.pl3 626  ARG626     -0.0865
    164  CZ        46.1840   10.0630   17.1050 C.cat 626  ARG626      0.5346
    165  NH1       45.9420    9.0920   16.2280 N.pl3 626  ARG626      0.1354
    166  NH2       46.0800    9.8290   18.4120 N.pl3 626  ARG626      0.1354
    167  N         34.7340    0.2410   21.4040 N.3   667  ASN667     -0.1225
    168  CA        35.6190    1.0300   20.5800 C.3   667  ASN667      0.1785
    169  C         34.8350    1.7200   19.4600 C.2   667  ASN667      0.2597
    170  O         34.6250    2.9310   19.5090 O.2   667  ASN667     -0.2718
    171  CB        36.7240    0.1130   20.0220 C.3   667  ASN667      0.1169
    172  CG        37.9410    0.8730   19.5140 C.2   667  ASN667      0.2627
    173  OD1       39.0720    0.3890   19.6240 O.2   667  ASN667     -0.2716
    174  ND2       37.7250    2.0530   18.9580 N.am  667  ASN667     -0.0877
    175  N         34.4480    0.9560   18.4390 N.am  668  VAL668     -0.1980
    176  CA        33.4970    1.4170   17.4330 C.3   668  VAL668      0.1595
    177  C         32.1540    0.8820   17.8950 C.2   668  VAL668      0.2287
    178  O         31.8680   -0.3050   17.7950 O.2   668  VAL668     -0.2864
    179  CB        33.7800    0.8950   16.0060 C.3   668  VAL668      0.0276
    180  CG1       32.8080    1.5500   15.0210 C.3   668  VAL668      0.0022
    181  CG2       35.2200    1.1920   15.5830 C.3   668  VAL668      0.0022
    182  N         35.2290   -5.2250   19.9110 N.3   697  HIS697     -0.1241
    183  CA        35.7980   -4.8080   18.6280 C.3   697  HIS697      0.1621
    184  C         36.6120   -5.8910   17.9440 C.2   697  HIS697      0.2264
    185  O         36.7170   -5.9090   16.7170 O.2   697  HIS697     -0.2867
    186  CB        36.6510   -3.5350   18.7750 C.3   697  HIS697      0.0745
    187  CG        36.9500   -2.8660   17.4730 C.ar  697  HIS697      0.0817
    188  ND1       35.9570   -2.4300   16.6150 N.ar  697  HIS697     -0.2268
    189  CD2       38.1250   -2.5580   16.8760 C.ar  697  HIS697      0.1154
    190  CE1       36.5080   -1.8950   15.5410 C.ar  697  HIS697      0.1986
    191  NE2       37.8210   -1.9510   15.6770 N.ar  697  HIS697     -0.2212
@<TRIPOS>BOND
     1    53    51    1
     2    52    51    1
     3    51    48    1
     4    69    68    2
     5    47    48    1
     6    68    67    1
     7    48    49    1
     8    70    67    1
     9    70    71    1
    10    67    66    1
    11    49    54   am
    12    49    50    2
    13    54    55    1
    14    71    72    1
    15   110   109    2
    16    73    72    1
    17    73    74    1
    18    56    57    2
    19    56    55    1
    20    55    58    1
    21   109   108    1
    22   108   107    1
    23   104   102   ar
    24   104   105   ar
    25   106   105    1
    26    58    59    1
    27    98    97    2
    28   102   100   ar
    29   105   103   ar
    30   107    97   am
    31    97    96    1
    32    59    60   ar
    33    59    61   ar
    34    75    76    1
    35    60    62   ar
    36   100    99    1
    37   100   101   ar
    38   126   124   ar
    39   126   127   ar
    40    61    63   ar
    41   103   101   ar
    42   114   113    2
    43    96    99    1
    44    96    95    1
    45   124   123   ar
    46    78    77    2
    47    76    77    1
    48    76    79    1
    49    62    64   ar
    50   129   127   ar
    51   129   131   ar
    52    92    91    2
    53   127   125   ar
    54    63    64   ar
    55    77    89   am
    56    64    65    1
    57    95    91   am
    58   113   112    1
    59    79    80    1
    60    91    90    1
    61   123   125   ar
    62   123   122    1
    63   131   130   ar
    64    89    90    1
    65   125   128   ar
    66   111   112    1
    67   116   115    1
    68    85    87   ar
    69    85    82   ar
    70   115   112    1
    71   115   117    1
    72    90    93    1
    73   118   119    1
    74   122   119    1
    75    80    82   ar
    76    80    81   ar
    77   155   154    1
    78    87    88   ar
    79    82    84   ar
    80   130   128   ar
    81    93    94    1
    82   119   120    1
    83    81    83   ar
    84   159   158    2
    85   154   153   ar
    86   154   152   ar
    87    46    45   ar
    88    46    44   ar
    89   153   151   ar
    90    88    86   ar
    91    84    83   ar
    92    84    86   ar
    93   158   157    1
    94    45    43   ar
    95    44    42   ar
    96   120   121    2
    97   152   150   ar
    98   151   149   ar
    99    43    41   ar
   100    42    41   ar
   101   161   160    1
   102   161   162    1
   103   157   160    1
   104   157   156    1
   105   147   146    2
   106   180   179    1
   107    36    37    1
   108   162   163    1
   109    41    40    1
   110   150   149   ar
   111   149   148    1
   112   190   191   ar
   113   190   188   ar
   114   181   179    1
   115   191   189   ar
   116   136   137    1
   117   136   133    1
   118    37    40    1
   119    37    38    1
   120   146   145    1
   121   179   176    1
   122   139   137   ar
   123   139   141   ar
   124   165   164    1
   125   137   138   ar
   126   141   142   ar
   127   188   187   ar
   128   132   133    1
   129   163   164    2
   130   185   184    2
   131   138   140   ar
   132   148   145    1
   133   189   187   ar
   134   142   140   ar
   135   142   143    1
   136   145   144    1
   137   164   166    1
   138   133   134    1
   139    38    39    2
   140   176   177    1
   141   176   175    1
   142   187   186    1
   143   178   177    2
   144   184   183    1
   145   134   135    2
   146   175   169   am
   147   183   186    1
   148   183   182    1
   149   174   172   am
   150    28    27   ar
   151    11     9    1
   152    29    27   ar
   153    10     9    1
   154   169   170    2
   155   169   168    1
   156   172   173    2
   157   172   171    1
   158    27    26    1
   159     9     8    2
   160   171   168    1
   161    19    18   ar
   162   168   167    1
   163     8     7    1
   164    26    25    1
   165    24    23    2
   166    18    17    1
   167    18    20   ar
   168    25    22    1
   169    15    14    2
   170    17    16    1
   171    22    23    1
   172    22    21    1
   173     7     6    1
   174    35    34    1
   175    14    21   am
   176    14    13    1
   177     6     5    1
   178    34    31    1
   179    16    13    1
   180    13    12    1
   181     5     2    1
   182    31    30    1
   183    31    32    1
   184     2     1    1
   185     2     3    1
   186    33    32    2
   187     4     3    2
