@<TRIPOS>MOLECULE
tmp/3g0eA00.pdb
 155 147 0 0 0
SMALL
GASTEIGER

@<TRIPOS>ATOM
      1  N         29.4160   -0.0050  -87.3400 N.3    52  LYS52      -0.1245
      2  CA        30.4990    0.8990  -86.9690 C.3    52  LYS52       0.1561
      3  C         31.7300    0.1450  -86.4810 C.2    52  LYS52       0.2260
      4  O         31.6310   -0.9480  -85.9240 O.2    52  LYS52      -0.2867
      5  CB        30.0320    1.8680  -85.8790 C.3    52  LYS52       0.0271
      6  CG        29.9390    1.2600  -84.4860 C.3    52  LYS52       0.0035
      7  CD        29.3630    2.2540  -83.4840 C.3    52  LYS52       0.0206
      8  CE        29.3070    1.6590  -82.0850 C.3    52  LYS52       0.1093
      9  NZ        28.6910    2.5890  -81.0960 N.3    52  LYS52      -0.1314
     10  N         34.5700   -0.6000  -83.9150 N.3    54  LEU54      -0.1245
     11  CA        34.7110   -0.5010  -82.4710 C.3    54  LEU54       0.1561
     12  C         36.1520   -0.1640  -82.1010 C.2    54  LEU54       0.2260
     13  O         36.4010    0.5990  -81.1680 O.2    54  LEU54      -0.2867
     14  CB        34.2880   -1.8200  -81.8200 C.3    54  LEU54       0.0270
     15  CG        32.8370   -2.2100  -82.1120 C.3    54  LEU54       0.0019
     16  CD1       32.5300   -3.5780  -81.5270 C.3    54  LEU54       0.0001
     17  CD2       31.9120   -1.1490  -81.5340 C.3    54  LEU54       0.0001
     18  N         37.9280   -4.5200  -85.3050 N.3    62  VAL62      -0.1245
     19  CA        36.7240   -5.1810  -84.8200 C.3    62  VAL62       0.1561
     20  C         35.5380   -4.2500  -85.0640 C.2    62  VAL62       0.2260
     21  O         35.5970   -3.0610  -84.7400 O.2    62  VAL62      -0.2867
     22  CB        36.8430   -5.4920  -83.3180 C.3    62  VAL62       0.0252
     23  CG1       35.5900   -6.2140  -82.8340 C.3    62  VAL62       0.0019
     24  CG2       38.0950   -6.3450  -83.0600 C.3    62  VAL62       0.0019
     25  N         30.1510   -8.7090  -82.3540 N.3    80  ALA80      -0.1245
     26  CA        31.3950   -8.0630  -82.7550 C.3    80  ALA80       0.1562
     27  C         32.1130   -8.9900  -83.7300 C.2    80  ALA80       0.2260
     28  O         32.2280  -10.1880  -83.4780 O.2    80  ALA80      -0.2867
     29  CB        32.2660   -7.8100  -81.5270 C.3    80  ALA80       0.0290
     30  N         35.6740   -9.7260  -85.7830 N.3    82  LYS82      -0.1245
     31  CA        37.1010   -9.4490  -85.9290 C.3    82  LYS82       0.1561
     32  C         37.5570   -9.8090  -87.3410 C.2    82  LYS82       0.2260
     33  O         37.2220  -10.8800  -87.8530 O.2    82  LYS82      -0.2867
     34  CB        37.9040  -10.2680  -84.9210 C.3    82  LYS82       0.0271
     35  CG        37.3570  -10.2180  -83.4970 C.3    82  LYS82       0.0035
     36  CD        38.2550  -10.9730  -82.5410 C.3    82  LYS82       0.0206
     37  CE        39.4950  -10.1590  -82.1950 C.3    82  LYS82       0.1093
     38  NZ        40.2930  -10.8220  -81.1250 N.3    82  LYS82      -0.1314
     39  N         34.7490  -12.6250  -73.0790 N.3   113  VAL113     -0.1245
     40  CA        34.0940  -12.3810  -74.3590 C.3   113  VAL113      0.1561
     41  C         34.0930  -13.6850  -75.1570 C.2   113  VAL113      0.2260
     42  O         35.1480  -14.1800  -75.5550 O.2   113  VAL113     -0.2867
     43  CB        34.8400  -11.2830  -75.1540 C.3   113  VAL113      0.0252
     44  CG1       34.2110  -11.1120  -76.5290 C.3   113  VAL113      0.0019
     45  CG2       34.7980   -9.9680  -74.3830 C.3   113  VAL113      0.0019
     46  N         32.3220  -12.7060  -82.2810 N.3   129  THR129     -0.1203
     47  CA        32.3300  -12.8100  -80.8230 C.3   129  THR129      0.1994
     48  C         31.2440  -11.9470  -80.2000 C.2   129  THR129      0.2618
     49  O         30.5430  -11.2110  -80.8950 O.2   129  THR129     -0.2717
     50  CB        33.6720  -12.3580  -80.2260 C.3   129  THR129      0.1784
     51  OG1       33.8180  -10.9430  -80.4120 O.3   129  THR129     -0.2211
     52  CG2       34.8270  -13.0760  -80.9040 C.3   129  THR129      0.0376
     53  N         31.1240  -12.0260  -78.8800 N.am  130  GLU130     -0.1965
     54  CA        30.1050  -11.2650  -78.1790 C.3   130  GLU130      0.1733
     55  C         30.3650   -9.7680  -78.2430 C.2   130  GLU130      0.2616
     56  O         31.5090   -9.3110  -78.1460 O.2   130  GLU130     -0.2715
     57  CB        30.0080  -11.7370  -76.7240 C.3   130  GLU130      0.0429
     58  CG        29.2780  -13.0710  -76.6030 C.3   130  GLU130      0.1163
     59  CD        29.2670  -13.6400  -75.1980 C.2   130  GLU130      0.3649
     60  OE1       30.2410  -13.4200  -74.4470 O.co2 130  GLU130     -0.2457
     61  OE2       28.2760  -14.3210  -74.8490 O.co2 130  GLU130     -0.2457
     62  N         29.2840   -9.0170  -78.4280 N.am  131  TYR131     -0.1960
     63  CA        29.3050   -7.5640  -78.4100 C.3   131  TYR131      0.1771
     64  C         29.0110   -7.1150  -76.9860 C.2   131  TYR131      0.2620
     65  O         28.0560   -7.5870  -76.3640 O.2   131  TYR131     -0.2715
     66  CB        28.2300   -7.0280  -79.3660 C.3   131  TYR131      0.0574
     67  CG        28.0510   -5.5280  -79.3560 C.ar  131  TYR131     -0.0198
     68  CD1       28.9290   -4.6980  -80.0420 C.ar  131  TYR131     -0.0009
     69  CD2       26.9720   -4.9450  -78.7000 C.ar  131  TYR131     -0.0009
     70  CE1       28.7350   -3.3250  -80.0790 C.ar  131  TYR131      0.0417
     71  CE2       26.7680   -3.5760  -78.7340 C.ar  131  TYR131      0.0417
     72  CZ        27.6510   -2.7730  -79.4250 C.ar  131  TYR131      0.1957
     73  OH        27.4380   -1.4130  -79.4800 O.3   131  TYR131     -0.2866
     74  N         29.8360   -6.2090  -76.4710 N.am  132  CYS132     -0.1954
     75  CA        29.6710   -5.7280  -75.1080 C.3   132  CYS132      0.1843
     76  C         29.3010   -4.2490  -75.1410 C.2   132  CYS132      0.2626
     77  O         30.1490   -3.3890  -75.3840 O.2   132  CYS132     -0.2714
     78  CB        30.9620   -5.9580  -74.3200 C.3   132  CYS132      0.0997
     79  SG        31.3820   -7.7090  -74.1720 S.3   132  CYS132     -0.0797
     80  N         28.0250   -3.9670  -74.8910 N.am  133  CYS133     -0.1954
     81  CA        27.4220   -2.6890  -75.2550 C.3   133  CYS133      0.1843
     82  C         27.9930   -1.4550  -74.5530 C.2   133  CYS133      0.2625
     83  O         27.8770   -0.3460  -75.0680 O.2   133  CYS133     -0.2714
     84  CB        25.9030   -2.7440  -75.0280 C.3   133  CYS133      0.0997
     85  SG        25.3900   -3.1840  -73.3480 S.3   133  CYS133     -0.0797
     86  N         28.6040   -1.6340  -73.3870 N.am  134  TYR134     -0.1960
     87  CA        29.1060   -0.4800  -72.6490 C.3   134  TYR134      0.1771
     88  C         30.5820   -0.1970  -72.9020 C.2   134  TYR134      0.2620
     89  O         31.1410    0.7450  -72.3470 O.2   134  TYR134     -0.2715
     90  CB        28.8640   -0.6630  -71.1490 C.3   134  TYR134      0.0574
     91  CG        27.4080   -0.8500  -70.8000 C.ar  134  TYR134     -0.0198
     92  CD1       26.9910   -1.9400  -70.0510 C.ar  134  TYR134     -0.0009
     93  CD2       26.4450    0.0430  -71.2540 C.ar  134  TYR134     -0.0009
     94  CE1       25.6550   -2.1450  -69.7680 C.ar  134  TYR134      0.0417
     95  CE2       25.1010   -0.1530  -70.9740 C.ar  134  TYR134      0.0417
     96  CZ        24.7150   -1.2510  -70.2340 C.ar  134  TYR134      0.1957
     97  OH        23.3810   -1.4770  -69.9810 O.3   134  TYR134     -0.2866
     98  N         31.2170   -1.0110  -73.7400 N.am  135  GLY135     -0.1940
     99  CA        32.6080   -0.7560  -74.0850 C.3   135  GLY135      0.2014
    100  C         33.5840   -1.1960  -73.0090 C.2   135  GLY135      0.2638
    101  O         33.2790   -2.0830  -72.2140 O.2   135  GLY135     -0.2714
    102  N         34.7610   -0.5800  -72.9750 N.am  136  ASP136     -0.1971
    103  CA        35.8000   -1.0230  -72.0510 C.3   136  ASP136      0.1709
    104  C         35.6150   -0.4610  -70.6470 C.2   136  ASP136      0.2293
    105  O         35.0790    0.6360  -70.4640 O.2   136  ASP136     -0.2864
    106  CB        37.1870   -0.6450  -72.5780 C.3   136  ASP136      0.1436
    107  CG        37.4390    0.8460  -72.5420 C.2   136  ASP136      0.3671
    108  OD1       38.1210    1.3170  -71.6040 O.co2 136  ASP136     -0.2456
    109  OD2       36.9570    1.5470  -73.4530 O.co2 136  ASP136     -0.2456
    110  N         37.1540    3.1460  -69.5700 N.3   139  ASN139     -0.1240
    111  CA        36.3360    4.2970  -69.9370 C.3   139  ASN139      0.1653
    112  C         35.0720    4.3710  -69.0830 C.2   139  ASN139      0.2266
    113  O         34.6500    5.4560  -68.6800 O.2   139  ASN139     -0.2867
    114  CB        35.9520    4.2340  -71.4170 C.3   139  ASN139      0.1155
    115  CG        34.9750    5.3300  -71.8090 C.2   139  ASN139      0.2627
    116  OD1       33.8110    5.0590  -72.1200 O.2   139  ASN139     -0.2716
    117  ND2       35.4400    6.5750  -71.7880 N.am  139  ASN139     -0.0877
    118  N         35.7500   -5.7070  -70.9020 N.3   200  LEU200     -0.1245
    119  CA        34.5790   -5.0430  -71.4540 C.3   200  LEU200      0.1561
    120  C         33.3900   -5.2220  -70.5200 C.2   200  LEU200      0.2260
    121  O         33.4060   -6.0860  -69.6420 O.2   200  LEU200     -0.2867
    122  CB        34.2550   -5.6120  -72.8400 C.3   200  LEU200      0.0270
    123  CG        35.4150   -5.5850  -73.8380 C.3   200  LEU200      0.0019
    124  CD1       34.9420   -6.1240  -75.1800 C.3   200  LEU200      0.0001
    125  CD2       35.9380   -4.1660  -73.9940 C.3   200  LEU200      0.0001
    126  N         38.6160   -9.6560  -72.3820 N.3   210  CYS210     -0.1221
    127  CA        38.6530   -9.5970  -73.8410 C.3   210  CYS210      0.1808
    128  C         40.0810   -9.7860  -74.3460 C.2   210  CYS210      0.2601
    129  O         41.0440   -9.4560  -73.6520 O.2   210  CYS210     -0.2717
    130  CB        38.1170   -8.2370  -74.3050 C.3   210  CYS210      0.0970
    131  SG        37.9070   -8.0050  -76.0850 S.3   210  CYS210     -0.0800
    132  N         40.2070  -10.3290  -75.5540 N.am  211  ASP211     -0.1959
    133  CA        41.4430  -10.2270  -76.3200 C.3   211  ASP211      0.1840
    134  C         41.2750   -9.0480  -77.2730 C.2   211  ASP211      0.2622
    135  O         40.6460   -9.1660  -78.3290 O.2   211  ASP211     -0.2715
    136  CB        41.6800  -11.5140  -77.1110 C.3   211  ASP211      0.1450
    137  CG        42.8190  -11.3880  -78.1070 C.2   211  ASP211      0.3671
    138  OD1       43.6070  -10.4200  -78.0100 O.co2 211  ASP211     -0.2456
    139  OD2       42.9190  -12.2620  -78.9930 O.co2 211  ASP211     -0.2456
    140  N         41.8320   -7.9050  -76.8860 N.am  212  PHE212     -0.1974
    141  CA        41.5450   -6.6460  -77.5570 C.3   212  PHE212      0.1639
    142  C         42.6290   -6.3080  -78.5800 C.2   212  PHE212      0.2290
    143  O         42.5260   -5.3090  -79.2850 O.2   212  PHE212     -0.2864
    144  CB        41.4380   -5.5250  -76.5110 C.3   212  PHE212      0.0560
    145  CG        40.6590   -4.3230  -76.9720 C.ar  212  PHE212     -0.0200
    146  CD1       39.2810   -4.2760  -76.8240 C.ar  212  PHE212     -0.0042
    147  CD2       41.3030   -3.2300  -77.5320 C.ar  212  PHE212     -0.0042
    148  CE1       38.5620   -3.1650  -77.2230 C.ar  212  PHE212     -0.0003
    149  CE2       40.5900   -2.1160  -77.9350 C.ar  212  PHE212     -0.0003
    150  CZ        39.2130   -2.0850  -77.7790 C.ar  212  PHE212     -0.0000
    151  N         42.1930   -4.7650  -81.9650 N.3   215  ALA215     -0.1245
    152  CA        41.3520   -3.5700  -81.9870 C.3   215  ALA215      0.1562
    153  C         42.0650   -2.2780  -81.5730 C.2   215  ALA215      0.2260
    154  O         41.4230   -1.2400  -81.4160 O.2   215  ALA215     -0.2867
    155  CB        40.1230   -3.7870  -81.0960 C.3   215  ALA215      0.0290
@<TRIPOS>BOND
     1    33    32    2
     2    32    31    1
     3     1     2    1
     4     2     3    1
     5     2     5    1
     6     3     4    2
     7    31    30    1
     8    31    34    1
     9     5     6    1
    10    18    19    1
    11    20    19    1
    12    20    21    2
    13    34    35    1
    14    19    22    1
    15     6     7    1
    16    10    11    1
    17    27    28    2
    18    27    26    1
    19    35    36    1
    20     7     8    1
    21    22    24    1
    22    22    23    1
    23    26    25    1
    24    26    29    1
    25    36    37    1
    26    11    12    1
    27    11    14    1
    28    46    47    1
    29    37    38    1
    30    15    14    1
    31    15    17    1
    32    15    16    1
    33    12    13    2
    34     8     9    1
    35   152   151    1
    36   152   153    1
    37   152   155    1
    38   153   154    2
    39    52    50    1
    40    49    48    2
    41    47    50    1
    42    47    48    1
    43    51    50    1
    44    48    53   am
    45    70    68   ar
    46    70    72   ar
    47    68    67   ar
    48    73    72    1
    49    72    71   ar
    50    66    67    1
    51    66    63    1
    52    67    69   ar
    53   143   142    2
    54   139   137   ar
    55    53    54    1
    56    71    69   ar
    57   142   141    1
    58    62    63    1
    59    62    55   am
    60    63    64    1
    61   135   134    2
    62    55    54    1
    63    55    56    2
    64    54    57    1
    65   137   138   ar
    66   137   136    1
    67   149   150   ar
    68   149   147   ar
    69   150   148   ar
    70   141   140    1
    71   141   144    1
    72   147   145   ar
    73   134   140   am
    74   134   133    1
    75   148   146   ar
    76   136   133    1
    77    64    74   am
    78    64    65    2
    79   145   146   ar
    80   145   144    1
    81    57    58    1
    82    58    59    1
    83    44    43    1
    84    74    75    1
    85   133   132    1
    86   131   130    1
    87    42    41    2
    88   132   128   am
    89    77    76    2
    90    81    84    1
    91    81    80    1
    92    81    82    1
    93    59    61   ar
    94    59    60   ar
    95   124   123    1
    96    41    40    1
    97    43    45    1
    98    43    40    1
    99    76    75    1
   100    76    80   am
   101    75    78    1
   102    83    82    2
   103    84    85    1
   104    82    86   am
   105    40    39    1
   106   128   127    1
   107   128   129    2
   108    78    79    1
   109   130   127    1
   110    99    98    1
   111    99   100    1
   112   125   123    1
   113   127   126    1
   114   123   122    1
   115    98    88   am
   116   109   107   ar
   117    86    87    1
   118   100   102   am
   119   100   101    2
   120   102   103    1
   121    88    87    1
   122    88    89    2
   123   122   119    1
   124    87    90    1
   125   106   107    1
   126   106   103    1
   127   107   108   ar
   128   116   115    2
   129   103   104    1
   130   115   117   am
   131   115   114    1
   132   119   118    1
   133   119   120    1
   134   114   111    1
   135    93    95   ar
   136    93    91   ar
   137    90    91    1
   138    95    96   ar
   139    91    92   ar
   140   104   105    2
   141   120   121    2
   142    96    97    1
   143    96    94   ar
   144    92    94   ar
   145   111   110    1
   146   111   112    1
   147   112   113    2
