@<TRIPOS>MOLECULE
tmp/3g0gC00.pdb
 171 168 0 0 0
SMALL
GASTEIGER

@<TRIPOS>ATOM
      1  N        -43.3010   -0.0960  -42.1450 N.3    83  ARG83      -0.1245
      2  CA       -42.5300    0.7800  -41.2650 C.3    83  ARG83       0.1563
      3  C        -41.1580    1.1490  -41.8290 C.2    83  ARG83       0.2260
      4  O        -40.6790    2.2680  -41.6260 O.2    83  ARG83      -0.2867
      5  CB       -42.3730    0.1450  -39.8820 C.3    83  ARG83       0.0307
      6  CG       -41.8070    1.0970  -38.8250 C.3    83  ARG83       0.0489
      7  CD       -41.2460    0.3660  -37.6060 C.3    83  ARG83       0.2205
      8  NE       -42.2870   -0.2720  -36.8040 N.pl3  83  ARG83      -0.0865
      9  CZ       -42.9370    0.3150  -35.7960 C.cat  83  ARG83       0.5346
     10  NH1      -42.6800    1.5740  -35.4440 N.pl3  83  ARG83       0.1354
     11  NH2      -43.8550   -0.3650  -35.1340 N.pl3  83  ARG83       0.1354
     12  N        -40.9710   -6.1350  -39.4920 N.3   163  GLU163     -0.1231
     13  CA       -41.3920   -5.4460  -38.2760 C.3   163  GLU163      0.1699
     14  C        -40.7900   -6.0080  -36.9910 C.2   163  GLU163      0.2592
     15  O        -40.6100   -5.2620  -36.0210 O.2   163  GLU163     -0.2718
     16  CB       -42.9280   -5.4200  -38.1990 C.3   163  GLU163      0.0402
     17  CG       -43.5340   -4.8490  -36.9080 C.3   163  GLU163      0.1161
     18  CD       -43.3500   -3.3350  -36.7200 C.2   163  GLU163      0.3649
     19  OE1      -43.5650   -2.8590  -35.5890 O.co2 163  GLU163     -0.2457
     20  OE2      -42.9910   -2.6140  -37.6700 O.co2 163  GLU163     -0.2457
     21  N        -40.4740   -7.3090  -36.9880 N.am  164  GLU164     -0.1979
     22  CA       -40.1610   -8.0240  -35.7380 C.3   164  GLU164      0.1602
     23  C        -38.7960   -8.7010  -35.6150 C.2   164  GLU164      0.2287
     24  O        -38.3840   -9.0480  -34.5070 O.2   164  GLU164     -0.2864
     25  CB       -41.2410   -9.0670  -35.4480 C.3   164  GLU164      0.0415
     26  CG       -42.6510   -8.4970  -35.3970 C.3   164  GLU164      0.1163
     27  CD       -42.8790   -7.5390  -34.2210 C.2   164  GLU164      0.3649
     28  OE1      -41.8950   -7.1230  -33.5660 O.co2 164  GLU164     -0.2457
     29  OE2      -44.0570   -7.2210  -33.9550 O.co2 164  GLU164     -0.2457
     30  N        -35.9940   -5.3780  -38.3420 N.3   167  SER167     -0.1217
     31  CA       -36.3080   -3.9450  -38.2760 C.3   167  SER167      0.1889
     32  C        -35.7800   -3.2550  -39.5290 C.2   167  SER167      0.2288
     33  O        -35.1990   -2.1670  -39.4580 O.2   167  SER167     -0.2866
     34  CB       -35.7020   -3.2950  -37.0240 C.3   167  SER167      0.2089
     35  OG       -35.6580   -4.2110  -35.9480 O.3   167  SER167     -0.2183
     36  N        -34.7080   -8.4290  -27.7850 N.3   315  PHE315     -0.1241
     37  CA       -35.7670   -8.6800  -28.7670 C.3   315  PHE315      0.1605
     38  C        -35.3490   -9.8200  -29.7000 C.2   315  PHE315      0.2264
     39  O        -36.1850  -10.5030  -30.2950 O.2   315  PHE315     -0.2867
     40  CB       -36.0780   -7.4090  -29.5670 C.3   315  PHE315      0.0534
     41  CG       -36.6920   -6.3070  -28.7380 C.ar  315  PHE315     -0.0203
     42  CD1      -38.0720   -6.1520  -28.6750 C.ar  315  PHE315     -0.0042
     43  CD2      -35.8950   -5.4500  -27.9910 C.ar  315  PHE315     -0.0042
     44  CE1      -38.6480   -5.1370  -27.9020 C.ar  315  PHE315     -0.0003
     45  CE2      -36.4640   -4.4380  -27.2160 C.ar  315  PHE315     -0.0003
     46  CZ       -37.8400   -4.2840  -27.1740 C.ar  315  PHE315     -0.0000
     47  N        -46.2380    2.5780  -21.7140 N.3   505  TYR505     -0.1241
     48  CA       -45.8450    1.6520  -22.7660 C.3   505  TYR505      0.1605
     49  C        -45.8510    0.2760  -22.0910 C.2   505  TYR505      0.2264
     50  O        -46.8120   -0.4870  -22.2510 O.2   505  TYR505     -0.2867
     51  CB       -44.5070    2.0600  -23.3910 C.3   505  TYR505      0.0534
     52  CG       -43.8180    1.0240  -24.2630 C.ar  505  TYR505     -0.0201
     53  CD1      -44.4280   -0.2130  -24.5780 C.ar  505  TYR505     -0.0009
     54  CD2      -42.5590    1.2880  -24.8010 C.ar  505  TYR505     -0.0009
     55  CE1      -43.7800   -1.1540  -25.3650 C.ar  505  TYR505      0.0417
     56  CE2      -41.9090    0.3460  -25.6060 C.ar  505  TYR505      0.0417
     57  CZ       -42.5290   -0.8680  -25.8710 C.ar  505  TYR505      0.1957
     58  OH       -41.8880   -1.7810  -26.6630 O.3   505  TYR505     -0.2866
     59  N        -50.3620    3.7350  -26.3150 N.3   587  TRP587     -0.1227
     60  CA       -50.4090    3.2590  -27.7000 C.3   587  TRP587      0.1737
     61  C        -49.8220    1.8560  -27.7750 C.2   587  TRP587      0.2596
     62  O        -48.9470    1.5200  -26.9970 O.2   587  TRP587     -0.2718
     63  CB       -49.5130    4.1540  -28.5260 C.3   587  TRP587      0.0564
     64  CG       -49.8950    4.3930  -29.9490 C.ar  587  TRP587      0.0003
     65  CD1      -49.9510    3.4760  -30.9620 C.ar  587  TRP587      0.0946
     66  CD2      -50.2000    5.6660  -30.5390 C.ar  587  TRP587      0.0152
     67  NE1      -50.3050    4.0960  -32.1410 N.ar  587  TRP587     -0.2442
     68  CE2      -50.4560    5.4410  -31.9130 C.ar  587  TRP587      0.0810
     69  CE3      -50.2910    6.9760  -30.0350 C.ar  587  TRP587      0.0012
     70  CZ2      -50.8100    6.4840  -32.8000 C.ar  587  TRP587      0.0191
     71  CZ3      -50.6460    8.0160  -30.9200 C.ar  587  TRP587      0.0001
     72  CH2      -50.9010    7.7550  -32.2860 C.ar  587  TRP587      0.0015
     73  N        -50.2750    1.0510  -28.7340 N.am  588  SER588     -0.1938
     74  CA       -49.7080   -0.2790  -28.9890 C.3   588  SER588      0.2055
     75  C        -49.8070   -1.1840  -27.7500 C.2   588  SER588      0.2643
     76  O        -50.9070   -1.4590  -27.2830 O.2   588  SER588     -0.2714
     77  CB       -48.2680   -0.1520  -29.5060 C.3   588  SER588      0.2130
     78  OG       -48.2090    0.7170  -30.6290 O.3   588  SER588     -0.2179
     79  N        -48.6840   -1.6320  -27.2010 N.am  589  TYR589     -0.1973
     80  CA       -48.7400   -2.3470  -25.9310 C.3   589  TYR589      0.1639
     81  C        -49.3330   -1.4140  -24.8440 C.2   589  TYR589      0.2290
     82  O        -50.1640   -1.8330  -24.0260 O.2   589  TYR589     -0.2864
     83  CB       -47.3550   -2.8650  -25.5380 C.3   589  TYR589      0.0560
     84  CG       -47.3870   -4.0290  -24.5670 C.ar  589  TYR589     -0.0198
     85  CD1      -47.1350   -5.3340  -25.0080 C.ar  589  TYR589     -0.0009
     86  CD2      -47.6560   -3.8350  -23.2150 C.ar  589  TYR589     -0.0009
     87  CE1      -47.1420   -6.4000  -24.1330 C.ar  589  TYR589      0.0417
     88  CE2      -47.6700   -4.9090  -22.3190 C.ar  589  TYR589      0.0417
     89  CZ       -47.4170   -6.1880  -22.7910 C.ar  589  TYR589      0.1957
     90  OH       -47.4180   -7.2670  -21.9220 O.3   589  TYR589     -0.2866
     91  N        -53.6650   -3.6980  -28.5030 N.3   614  VAL614     -0.1245
     92  CA       -53.9340   -5.1230  -28.6070 C.3   614  VAL614      0.1561
     93  C        -55.1140   -5.3900  -27.6920 C.2   614  VAL614      0.2260
     94  O        -55.1960   -4.8350  -26.5940 O.2   614  VAL614     -0.2867
     95  CB       -52.7140   -5.9680  -28.2130 C.3   614  VAL614      0.0252
     96  CG1      -53.0810   -7.4640  -27.9830 C.3   614  VAL614      0.0019
     97  CG2      -51.6310   -5.8190  -29.2780 C.3   614  VAL614      0.0019
     98  N        -54.1300  -11.5910  -27.5630 N.3   617  TRP617     -0.1241
     99  CA       -52.8380  -11.9600  -28.1430 C.3   617  TRP617      0.1605
    100  C        -52.8750  -12.8600  -29.3840 C.2   617  TRP617      0.2264
    101  O        -51.9020  -12.9040  -30.1400 O.2   617  TRP617     -0.2867
    102  CB       -51.8660  -12.4570  -27.0500 C.3   617  TRP617      0.0550
    103  CG       -51.4450  -11.3240  -26.1760 C.ar  617  TRP617      0.0003
    104  CD1      -51.8320  -11.0810  -24.8810 C.ar  617  TRP617      0.0946
    105  CD2      -50.6180  -10.2170  -26.5630 C.ar  617  TRP617      0.0152
    106  NE1      -51.2800   -9.8940  -24.4350 N.ar  617  TRP617     -0.2442
    107  CE2      -50.5290   -9.3490  -25.4470 C.ar  617  TRP617      0.0810
    108  CE3      -49.9290   -9.8800  -27.7430 C.ar  617  TRP617      0.0012
    109  CZ2      -49.7760   -8.1670  -25.4780 C.ar  617  TRP617      0.0191
    110  CZ3      -49.1780   -8.7030  -27.7700 C.ar  617  TRP617      0.0001
    111  CH2      -49.1080   -7.8640  -26.6400 C.ar  617  TRP617      0.0015
    112  N        -52.4880  -10.6150  -32.4510 N.3   620  TYR620     -0.1241
    113  CA       -51.1650  -10.0890  -32.7910 C.3   620  TYR620      0.1605
    114  C        -50.2400  -11.1130  -33.4630 C.2   620  TYR620      0.2264
    115  O        -50.4630  -12.3420  -33.3530 O.2   620  TYR620     -0.2867
    116  CB       -50.4670   -9.4730  -31.5710 C.3   620  TYR620      0.0534
    117  CG       -49.5190   -8.3800  -32.0000 C.ar  620  TYR620     -0.0201
    118  CD1      -49.9710   -7.3480  -32.8110 C.ar  620  TYR620     -0.0009
    119  CD2      -48.1790   -8.3990  -31.6470 C.ar  620  TYR620     -0.0009
    120  CE1      -49.1380   -6.3630  -33.2420 C.ar  620  TYR620      0.0417
    121  CE2      -47.3200   -7.3870  -32.0810 C.ar  620  TYR620      0.0417
    122  CZ       -47.8140   -6.3770  -32.8830 C.ar  620  TYR620      0.1957
    123  OH       -47.0020   -5.3590  -33.3420 O.3   620  TYR620     -0.2866
    124  N        -43.4490  -11.6300  -32.1660 N.3   624  TYR624     -0.1241
    125  CA       -43.4340  -10.8160  -30.9820 C.3   624  TYR624      0.1605
    126  C        -44.2080  -11.5220  -29.8910 C.2   624  TYR624      0.2264
    127  O        -43.7130  -11.6790  -28.7790 O.2   624  TYR624     -0.2867
    128  CB       -44.0500   -9.4380  -31.2870 C.3   624  TYR624      0.0534
    129  CG       -44.0960   -8.5130  -30.1020 C.ar  624  TYR624     -0.0201
    130  CD1      -43.0500   -7.6450  -29.8420 C.ar  624  TYR624     -0.0009
    131  CD2      -45.1970   -8.4950  -29.2460 C.ar  624  TYR624     -0.0009
    132  CE1      -43.0920   -6.7560  -28.7500 C.ar  624  TYR624      0.0417
    133  CE2      -45.2590   -7.6170  -28.1520 C.ar  624  TYR624      0.0417
    134  CZ       -44.1980   -6.7570  -27.9110 C.ar  624  TYR624      0.1957
    135  OH       -44.2250   -5.9130  -26.8290 O.3   624  TYR624     -0.2866
    136  N        -42.8090  -14.9560  -28.4670 N.3   627  ARG627     -0.1245
    137  CA       -41.5910  -14.6860  -27.7090 C.3   627  ARG627      0.1563
    138  C        -41.8970  -14.6730  -26.1960 C.2   627  ARG627      0.2260
    139  O        -41.2040  -15.3190  -25.3880 O.2   627  ARG627     -0.2867
    140  CB       -41.0010  -13.3440  -28.1470 C.3   627  ARG627      0.0307
    141  CG       -39.5170  -13.1340  -27.8230 C.3   627  ARG627      0.0489
    142  CD       -39.0400  -11.7510  -28.2570 C.3   627  ARG627      0.2205
    143  NE       -38.9690  -11.6120  -29.7120 N.pl3 627  ARG627     -0.0865
    144  CZ       -39.2070  -10.4750  -30.3670 C.cat 627  ARG627      0.5346
    145  NH1      -39.5510   -9.3750  -29.7080 N.pl3 627  ARG627      0.1354
    146  NH2      -39.1240  -10.4360  -31.6880 N.pl3 627  ARG627      0.1354
    147  N        -50.3710   -3.3420  -38.6950 N.3   668  ASN668     -0.1225
    148  CA       -49.5930   -3.8580  -37.5810 C.3   668  ASN668      0.1785
    149  C        -50.5200   -4.4760  -36.5300 C.2   668  ASN668      0.2597
    150  O        -50.5870   -5.7150  -36.3790 O.2   668  ASN668     -0.2718
    151  CB       -48.7450   -2.7450  -36.9880 C.3   668  ASN668      0.1169
    152  CG       -47.6820   -3.2480  -36.0410 C.2   668  ASN668      0.2627
    153  OD1      -46.7630   -2.5060  -35.7150 O.2   668  ASN668     -0.2716
    154  ND2      -47.7930   -4.5020  -35.5870 N.am  668  ASN668     -0.0877
    155  N        -51.2250   -3.6060  -35.8130 N.am  669  VAL669     -0.1980
    156  CA       -52.2870   -4.0410  -34.9360 C.3   669  VAL669      0.1595
    157  C        -53.5570   -3.8010  -35.7130 C.2   669  VAL669      0.2287
    158  O        -53.9350   -2.6640  -35.9500 O.2   669  VAL669     -0.2864
    159  CB       -52.3400   -3.2580  -33.6110 C.3   669  VAL669      0.0276
    160  CG1      -53.4010   -3.8810  -32.6740 C.3   669  VAL669      0.0022
    161  CG2      -50.9800   -3.2590  -32.9490 C.3   669  VAL669      0.0022
    162  N        -50.7750    2.1630  -38.1850 N.3   698  HIS698     -0.1241
    163  CA       -50.3760    2.1240  -36.7860 C.3   698  HIS698      0.1621
    164  C        -49.8080    3.4020  -36.2000 C.2   698  HIS698      0.2264
    165  O        -49.9370    3.6360  -35.0000 O.2   698  HIS698     -0.2867
    166  CB       -49.4270    0.9570  -36.5080 C.3   698  HIS698      0.0745
    167  CG       -49.3550    0.5990  -35.0610 C.ar  698  HIS698      0.0817
    168  ND1      -50.4710    0.2340  -34.3350 N.ar  698  HIS698     -0.2268
    169  CD2      -48.3130    0.5710  -34.2000 C.ar  698  HIS698      0.1154
    170  CE1      -50.1160   -0.0100  -33.0870 C.ar  698  HIS698      0.1986
    171  NE2      -48.8110    0.1820  -32.9790 N.ar  698  HIS698     -0.2212
@<TRIPOS>BOND
     1     1     2    1
     2     3     4    2
     3     3     2    1
     4     2     5    1
     5     5     6    1
     6    32    33    2
     7    32    31    1
     8    12    13    1
     9     6     7    1
    10   147   148    1
    11    30    31    1
    12    13    16    1
    13    13    14    1
    14    31    34    1
    15    16    17    1
    16   162   163    1
    17    20    18   ar
    18     7     8    1
    19   148   151    1
    20   148   149    1
    21    34    35    1
    22    14    21   am
    23    14    15    2
    24    21    22    1
    25   151   152    1
    26    17    18    1
    27     8     9    2
    28   163   166    1
    29   163   164    1
    30    18    19   ar
    31   149   150    2
    32   149   155   am
    33   166   167    1
    34   164   165    2
    35   152   153    2
    36   152   154   am
    37   158   157    2
    38   155   156    1
    39     9    10    1
    40     9    11    1
    41    22    23    1
    42    22    25    1
    43   157   156    1
    44    23    24    2
    45    25    26    1
    46    26    27    1
    47   167   168   ar
    48   167   169   ar
    49   156   159    1
    50   168   170   ar
    51    27    29   ar
    52    27    28   ar
    53   169   171   ar
    54   159   161    1
    55   159   160    1
    56   114   115    2
    57   114   113    1
    58   123   122    1
    59   120   122   ar
    60   120   118   ar
    61   170   171   ar
    62   122   121   ar
    63   118   117   ar
    64    70    72   ar
    65    70    68   ar
    66   113   112    1
    67   113   116    1
    68    72    71   ar
    69   124   125    1
    70    67    68   ar
    71    67    65   ar
    72   121   119   ar
    73   117   119   ar
    74   117   116    1
    75    68    66   ar
    76   146   144    1
    77   128   125    1
    78   128   129    1
    79   125   126    1
    80    65    64   ar
    81    71    69   ar
    82    78    77    1
    83    66    69   ar
    84    66    64   ar
    85   144   143    2
    86   144   145    1
    87    39    38    2
    88   101   100    2
    89   129   130   ar
    90   129   131   ar
    91    64    63    1
    92   126   127    2
    93   130   132   ar
    94   143   142    1
    95    38    37    1
    96    40    37    1
    97    40    41    1
    98    77    74    1
    99   100    99    1
   100    97    95    1
   101   131   133   ar
   102    74    73    1
   103    74    75    1
   104    37    36    1
   105   132   134   ar
   106    41    42   ar
   107    41    43   ar
   108    73    61   am
   109    42    44   ar
   110    92    91    1
   111    92    95    1
   112    92    93    1
   113    63    60    1
   114   136   137    1
   115   142   141    1
   116    95    96    1
   117   133   134   ar
   118   140   141    1
   119   140   137    1
   120    99    98    1
   121    99   102    1
   122    43    45   ar
   123   134   135    1
   124    44    46   ar
   125    61    60    1
   126    61    62    2
   127   110   108   ar
   128   110   111   ar
   129    75    76    2
   130    75    79   am
   131   108   105   ar
   132   137   138    1
   133    60    59    1
   134    93    94    2
   135    45    46   ar
   136    79    80    1
   137   102   103    1
   138    58    57    1
   139   111   109   ar
   140   105   103   ar
   141   105   107   ar
   142   138   139    2
   143   103   104   ar
   144    80    83    1
   145    80    81    1
   146    57    56   ar
   147    57    55   ar
   148    56    54   ar
   149    83    84    1
   150   109   107   ar
   151   107   106   ar
   152    55    53   ar
   153    85    84   ar
   154    85    87   ar
   155   104   106   ar
   156    81    82    2
   157    54    52   ar
   158    53    52   ar
   159    84    86   ar
   160    52    51    1
   161    87    89   ar
   162    51    48    1
   163    86    88   ar
   164    89    88   ar
   165    89    90    1
   166    48    49    1
   167    48    47    1
   168    50    49    2
