@<TRIPOS>MOLECULE
tmp/3g0iB00.pdb
 157 154 0 0 0
SMALL
GASTEIGER

@<TRIPOS>ATOM
      1  N         33.0810   25.9670   87.1850 N.3   115  TRP115     -0.1241
      2  CA        33.0180   25.3200   85.8700 C.3   115  TRP115      0.1605
      3  C         34.3050   25.7090   85.1260 C.2   115  TRP115      0.2264
      4  O         34.6740   26.8680   85.1360 O.2   115  TRP115     -0.2867
      5  CB        31.7780   25.8120   85.0910 C.3   115  TRP115      0.0550
      6  CG        31.5800   25.0990   83.7670 C.ar  115  TRP115      0.0003
      7  CD1       30.7390   24.0520   83.5190 C.ar  115  TRP115      0.0946
      8  CD2       32.2730   25.3660   82.5310 C.ar  115  TRP115      0.0152
      9  NE1       30.8610   23.6460   82.1990 N.ar  115  TRP115     -0.2442
     10  CE2       31.8020   24.4310   81.5770 C.ar  115  TRP115      0.0810
     11  CE3       33.2450   26.3020   82.1390 C.ar  115  TRP115      0.0012
     12  CZ2       32.2700   24.4040   80.2540 C.ar  115  TRP115      0.0191
     13  CZ3       33.7190   26.2720   80.8200 C.ar  115  TRP115      0.0001
     14  CH2       33.2220   25.3220   79.8940 C.ar  115  TRP115      0.0015
     15  N         36.0530   31.0510   91.0730 N.3   190  ASP190     -0.1225
     16  CA        35.1660   30.8220   89.9270 C.3   190  ASP190      0.1805
     17  C         33.6990   31.0460   90.3370 C.2   190  ASP190      0.2597
     18  O         33.4010   31.9880   91.0810 O.2   190  ASP190     -0.2718
     19  CB        35.3710   29.3970   89.4000 C.3   190  ASP190      0.1424
     20  CG        34.8500   29.2190   88.0060 C.2   190  ASP190      0.3668
     21  OD1       35.5360   29.6500   87.0700 O.co2 190  ASP190     -0.2456
     22  OD2       33.7490   28.6670   87.8450 O.co2 190  ASP190     -0.2456
     23  N         32.7880   30.1810   89.8730 N.am  191  ILE191     -0.1980
     24  CA        31.3800   30.2780   90.2590 C.3   191  ILE191      0.1595
     25  C         31.2190   30.1730   91.7850 C.2   191  ILE191      0.2287
     26  O         30.3660   30.8350   92.3740 O.2   191  ILE191     -0.2864
     27  CB        30.5070   29.2280   89.5240 C.3   191  ILE191      0.0276
     28  CG1       30.4960   29.5200   88.0150 C.3   191  ILE191      0.0022
     29  CG2       29.0780   29.2140   90.1060 C.3   191  ILE191      0.0022
     30  CD1       30.0790   28.3430   87.1580 C.3   191  ILE191      0.0001
     31  N         31.1200   33.5830   93.4110 N.3   194  PHE194     -0.1241
     32  CA        29.8010   34.2340   93.3340 C.3   194  PHE194      0.1605
     33  C         28.8920   33.6970   94.4400 C.2   194  PHE194      0.2264
     34  O         28.2410   34.4750   95.1650 O.2   194  PHE194     -0.2867
     35  CB        29.1440   33.9810   91.9750 C.3   194  PHE194      0.0534
     36  CG        29.7640   34.7550   90.8430 C.ar  194  PHE194     -0.0203
     37  CD1       30.9470   34.3180   90.2380 C.ar  194  PHE194     -0.0042
     38  CD2       29.1560   35.9200   90.3690 C.ar  194  PHE194     -0.0042
     39  CE1       31.5170   35.0410   89.1780 C.ar  194  PHE194     -0.0003
     40  CE2       29.7230   36.6570   89.3190 C.ar  194  PHE194     -0.0003
     41  CZ        30.8960   36.2190   88.7200 C.ar  194  PHE194     -0.0000
     42  N         38.7010   34.7790   93.2370 N.3   213  LEU213     -0.1245
     43  CA        38.1690   35.5320   92.0970 C.3   213  LEU213      0.1561
     44  C         37.3120   36.6860   92.5900 C.2   213  LEU213      0.2260
     45  O         36.5040   36.5130   93.4990 O.2   213  LEU213     -0.2867
     46  CB        37.3490   34.6270   91.1540 C.3   213  LEU213      0.0270
     47  CG        36.7440   35.2960   89.9050 C.3   213  LEU213      0.0019
     48  CD1       37.8310   35.6520   88.8960 C.3   213  LEU213      0.0001
     49  CD2       35.6830   34.4250   89.2430 C.3   213  LEU213      0.0001
     50  N         39.8950   39.0750   78.0420 N.3   242  PHE242     -0.1241
     51  CA        38.9800   37.9870   78.4060 C.3   242  PHE242      0.1605
     52  C         37.5000   38.3440   78.1740 C.2   242  PHE242      0.2264
     53  O         36.7520   37.5410   77.6150 O.2   242  PHE242     -0.2867
     54  CB        39.2130   37.5000   79.8450 C.3   242  PHE242      0.0534
     55  CG        38.2210   36.4630   80.2910 C.ar  242  PHE242     -0.0203
     56  CD1       38.2550   35.1720   79.7610 C.ar  242  PHE242     -0.0042
     57  CD2       37.2310   36.7830   81.2210 C.ar  242  PHE242     -0.0042
     58  CE1       37.3230   34.2100   80.1590 C.ar  242  PHE242     -0.0003
     59  CE2       36.3020   35.8320   81.6260 C.ar  242  PHE242     -0.0003
     60  CZ        36.3420   34.5420   81.0830 C.ar  242  PHE242     -0.0000
     61  N         35.0030   35.5030   76.0450 N.3   247  LEU247     -0.1245
     62  CA        33.7310   35.2920   76.7550 C.3   247  LEU247      0.1561
     63  C         32.6340   34.5680   75.9810 C.2   247  LEU247      0.2260
     64  O         31.5800   34.2780   76.5460 O.2   247  LEU247     -0.2867
     65  CB        33.1480   36.6280   77.2470 C.3   247  LEU247      0.0270
     66  CG        33.0310   36.9770   78.7460 C.3   247  LEU247      0.0019
     67  CD1       31.8090   37.8500   78.9220 C.3   247  LEU247      0.0001
     68  CD2       32.9420   35.7810   79.6830 C.3   247  LEU247      0.0001
     69  N         32.0410   31.5630   74.8480 N.3   249  TYR249     -0.1227
     70  CA        31.5890   30.3110   75.4560 C.3   249  TYR249      0.1736
     71  C         30.5420   30.5970   76.5460 C.2   249  TYR249      0.2595
     72  O         29.4900   29.9520   76.6020 O.2   249  TYR249     -0.2718
     73  CB        32.7940   29.5180   76.0390 C.3   249  TYR249      0.0548
     74  CG        33.2190   30.0620   77.3730 C.ar  249  TYR249     -0.0200
     75  CD1       32.8620   29.4110   78.5660 C.ar  249  TYR249     -0.0009
     76  CD2       33.9020   31.2800   77.4540 C.ar  249  TYR249     -0.0009
     77  CE1       33.2180   29.9560   79.8020 C.ar  249  TYR249      0.0417
     78  CE2       34.2590   31.8250   78.6740 C.ar  249  TYR249      0.0417
     79  CZ        33.9110   31.1710   79.8340 C.ar  249  TYR249      0.1957
     80  OH        34.2550   31.7590   81.0220 O.3   249  TYR249     -0.2866
     81  N         30.8360   31.5680   77.4160 N.am  250  ALA250     -0.1980
     82  CA        29.9670   31.9000   78.5490 C.3   250  ALA250      0.1597
     83  C         28.6680   32.5520   78.1050 C.2   250  ALA250      0.2287
     84  O         27.6210   32.3340   78.7150 O.2   250  ALA250     -0.2864
     85  CB        30.7040   32.7920   79.5470 C.3   250  ALA250      0.0319
     86  N         43.4440   28.8190   80.6060 N.3   282  TRP282     -0.1241
     87  CA        43.1830   29.4620   81.9020 C.3   282  TRP282      0.1605
     88  C         44.2590   29.2330   82.9750 C.2   282  TRP282      0.2264
     89  O         44.2420   29.8750   84.0200 O.2   282  TRP282     -0.2867
     90  CB        41.8090   29.0510   82.4400 C.3   282  TRP282      0.0550
     91  CG        40.6330   29.5820   81.6510 C.ar  282  TRP282      0.0003
     92  CD1       40.6680   30.4130   80.5520 C.ar  282  TRP282      0.0946
     93  CD2       39.2450   29.3620   81.9400 C.ar  282  TRP282      0.0152
     94  NE1       39.3860   30.7000   80.1350 N.ar  282  TRP282     -0.2442
     95  CE2       38.4960   30.0700   80.9670 C.ar  282  TRP282      0.0810
     96  CE3       38.5590   28.6300   82.9270 C.ar  282  TRP282      0.0012
     97  CZ2       37.1100   30.0670   80.9510 C.ar  282  TRP282      0.0191
     98  CZ3       37.1860   28.6240   82.9070 C.ar  282  TRP282      0.0001
     99  CH2       36.4720   29.3380   81.9240 C.ar  282  TRP282      0.0015
    100  N         25.1160   30.5180   84.5560 N.3   312  TYR312     -0.1241
    101  CA        25.6700   31.4890   83.6000 C.3   312  TYR312      0.1605
    102  C         24.6910   32.6190   83.2420 C.2   312  TYR312      0.2264
    103  O         25.1180   33.7230   82.9250 O.2   312  TYR312     -0.2867
    104  CB        26.2340   30.7960   82.3370 C.3   312  TYR312      0.0534
    105  CG        27.6270   30.2340   82.5570 C.ar  312  TYR312     -0.0201
    106  CD1       27.8070   28.9530   83.0740 C.ar  312  TYR312     -0.0009
    107  CD2       28.7630   30.9990   82.2790 C.ar  312  TYR312     -0.0009
    108  CE1       29.0970   28.4240   83.3090 C.ar  312  TYR312      0.0417
    109  CE2       30.0620   30.4880   82.5050 C.ar  312  TYR312      0.0417
    110  CZ        30.2090   29.1980   83.0210 C.ar  312  TYR312      0.1957
    111  OH        31.4540   28.6890   83.2460 O.3   312  TYR312     -0.2866
    112  N         25.7620   34.8130   86.1390 N.3   315  THR315     -0.1203
    113  CA        27.1610   35.2540   86.2320 C.3   315  THR315      0.1994
    114  C         27.5900   36.0400   84.9850 C.2   315  THR315      0.2618
    115  O         28.4470   36.9190   85.0680 O.2   315  THR315     -0.2717
    116  CB        28.1350   34.0810   86.4150 C.3   315  THR315      0.1784
    117  OG1       28.0160   33.2000   85.2940 O.3   315  THR315     -0.2211
    118  CG2       27.8640   33.3250   87.7220 C.3   315  THR315      0.0376
    119  N         26.9910   35.6940   83.8430 N.am  316  THR316     -0.1952
    120  CA        27.2650   36.3400   82.5610 C.3   316  THR316      0.1897
    121  C         25.9450   36.7940   81.9690 C.2   316  THR316      0.2313
    122  O         25.4600   36.1990   81.0030 O.2   316  THR316     -0.2863
    123  CB        27.9340   35.3590   81.5560 C.3   316  THR316      0.1794
    124  OG1       28.8410   34.5080   82.2490 O.3   316  THR316     -0.2208
    125  CG2       28.7010   36.1310   80.4770 C.3   316  THR316      0.0378
    126  N         44.8630   34.0120   86.5840 N.3   337  ASP337     -0.1225
    127  CA        43.3940   33.9090   86.6010 C.3   337  ASP337      0.1805
    128  C         42.8790   35.0220   85.6830 C.2   337  ASP337      0.2598
    129  O         43.6360   35.9320   85.3160 O.2   337  ASP337     -0.2718
    130  CB        42.8070   34.0430   88.0160 C.3   337  ASP337      0.1424
    131  CG        41.4310   33.3700   88.1630 C.2   337  ASP337      0.3668
    132  OD1       40.7670   33.0740   87.1390 O.co2 337  ASP337     -0.2456
    133  OD2       41.0070   33.1220   89.3120 O.co2 337  ASP337     -0.2456
    134  N         41.6000   34.9530   85.3200 N.am  338  LEU338     -0.1966
    135  CA        41.0860   35.7150   84.1750 C.3   338  LEU338      0.1728
    136  C         40.6940   37.1590   84.4020 C.2   338  LEU338      0.2616
    137  O         40.6520   37.9260   83.4430 O.2   338  LEU338     -0.2715
    138  CB        39.9550   34.9450   83.5030 C.3   338  LEU338      0.0311
    139  CG        40.6220   33.6760   82.9770 C.3   338  LEU338      0.0022
    140  CD1       39.7680   32.4760   83.2350 C.3   338  LEU338      0.0001
    141  CD2       41.0350   33.8190   81.5190 C.3   338  LEU338      0.0001
    142  N         40.4340   37.5300   85.6510 N.am  339  CYS339     -0.1968
    143  CA        40.0270   38.8890   85.9980 C.3   339  CYS339      0.1712
    144  C         40.9420   39.4930   87.0830 C.2   339  CYS339      0.2296
    145  O         40.4890   39.8010   88.1900 O.2   339  CYS339     -0.2864
    146  CB        38.5570   38.8940   86.4520 C.3   339  CYS339      0.0983
    147  SG        37.4450   38.0500   85.2740 S.3   339  CYS339     -0.0798
    148  N         44.0820   30.3000   86.8190 N.3   363  HIS363     -0.1241
    149  CA        42.6760   30.1360   87.2370 C.3   363  HIS363      0.1621
    150  C         42.4060   29.0480   88.2810 C.2   363  HIS363      0.2264
    151  O         41.6600   29.2690   89.2520 O.2   363  HIS363     -0.2867
    152  CB        41.7620   29.8860   86.0210 C.3   363  HIS363      0.0745
    153  CG        40.3260   29.6890   86.3910 C.ar  363  HIS363      0.0817
    154  ND1       39.5120   30.7330   86.7720 N.ar  363  HIS363     -0.2268
    155  CD2       39.5660   28.5700   86.4680 C.ar  363  HIS363      0.1154
    156  CE1       38.3070   30.2690   87.0490 C.ar  363  HIS363      0.1986
    157  NE2       38.3130   28.9600   86.8730 N.ar  363  HIS363     -0.2212
@<TRIPOS>BOND
     1    69    70    1
     2    70    73    1
     3    70    71    1
     4    63    64    2
     5    63    62    1
     6    73    74    1
     7    61    62    1
     8    71    72    2
     9    71    81   am
    10    62    65    1
    11    65    66    1
    12    74    76   ar
    13    74    75   ar
    14    81    82    1
    15    76    78   ar
    16    53    52    2
    17    50    51    1
    18    83    82    1
    19    83    84    2
    20    52    51    1
    21    51    54    1
    22    82    85    1
    23    75    77   ar
    24    78    79   ar
    25    66    67    1
    26    66    68    1
    27    56    58   ar
    28    56    55   ar
    29    77    79   ar
    30    79    80    1
    31    54    55    1
    32    14    12   ar
    33    14    13   ar
    34    94    92   ar
    35    94    95   ar
    36    58    60   ar
    37    12    10   ar
    38    55    57   ar
    39   125   123    1
    40    92    91   ar
    41    86    87    1
    42    13    11   ar
    43    97    95   ar
    44    97    99   ar
    45    95    93   ar
    46   122   121    2
    47    60    59   ar
    48    57    59   ar
    49   141   139    1
    50   123   124    1
    51   123   120    1
    52    10     9   ar
    53    10     8   ar
    54    91    93   ar
    55    91    90    1
    56    87    90    1
    57    87    88    1
    58    99    98   ar
    59    93    96   ar
    60   121   120    1
    61    11     8   ar
    62     9     7   ar
    63   107   109   ar
    64   107   105   ar
    65   104   105    1
    66   104   101    1
    67   109   110   ar
    68     8     6   ar
    69   105   106   ar
    70   120   119    1
    71    98    96   ar
    72   103   102    2
    73    88    89    2
    74   139   140    1
    75   139   138    1
    76   110   111    1
    77   110   108   ar
    78   106   108   ar
    79   102   101    1
    80   137   136    2
    81   138   135    1
    82     7     6   ar
    83   101   100    1
    84     6     5    1
    85   119   114   am
    86   135   136    1
    87   135   134    1
    88   136   142   am
    89   114   115    2
    90   114   113    1
    91     5     2    1
    92     3     4    2
    93     3     2    1
    94   147   146    1
    95   117   116    1
    96   129   128    2
    97   134   128   am
    98   142   143    1
    99   128   127    1
   100     2     1    1
   101   143   146    1
   102   143   144    1
   103   152   153    1
   104   152   149    1
   105   112   113    1
   106   113   116    1
   107   153   155   ar
   108   153   154   ar
   109   116   118    1
   110   155   157   ar
   111   126   127    1
   112   127   130    1
   113   154   156   ar
   114   148   149    1
   115   157   156   ar
   116    21    20   ar
   117   144   145    2
   118   132   131   ar
   119    30    28    1
   120   149   150    1
   121    22    20   ar
   122    20    19    1
   123    28    27    1
   124   130   131    1
   125   131   133   ar
   126   150   151    2
   127    41    39   ar
   128    41    40   ar
   129    48    47    1
   130    39    37   ar
   131    49    47    1
   132    40    38   ar
   133    19    16    1
   134    27    29    1
   135    27    24    1
   136    23    24    1
   137    23    17   am
   138    47    46    1
   139    16    17    1
   140    16    15    1
   141    37    36   ar
   142    24    25    1
   143    17    18    2
   144    38    36   ar
   145    36    35    1
   146    46    43    1
   147    25    26    2
   148    35    32    1
   149    43    44    1
   150    43    42    1
   151    44    45    2
   152    32    31    1
   153    32    33    1
   154    33    34    2
