@<TRIPOS>MOLECULE
tmp/3g0oA00.pdb
 104 101 0 0 0
SMALL
GASTEIGER

@<TRIPOS>ATOM
      1  N          1.5960   43.6400   52.9510 N.3   115  VAL115     -0.1231
      2  CA         1.6380   42.5540   53.9260 C.3   115  VAL115      0.1692
      3  C          2.1190   42.9360   55.3230 C.2   115  VAL115      0.2593
      4  O          2.6120   44.0410   55.5560 O.2   115  VAL115     -0.2718
      5  CB         2.5540   41.4150   53.4330 C.3   115  VAL115      0.0266
      6  CG1        2.0200   40.8430   52.1340 C.3   115  VAL115      0.0020
      7  CG2        3.9710   41.9430   53.2380 C.3   115  VAL115      0.0020
      8  N          1.9740   41.9870   56.2440 N.am  116  SER116     -0.1938
      9  CA         2.4130   42.1560   57.6180 C.3   116  SER116      0.2055
     10  C          2.6050   40.7820   58.2550 C.2   116  SER116      0.2644
     11  O          2.4740   39.7540   57.5830 O.2   116  SER116     -0.2714
     12  CB         1.3990   42.9690   58.4270 C.3   116  SER116      0.2130
     13  OG         1.9020   43.2210   59.7310 O.3   116  SER116     -0.2179
     14  N          2.9300   40.7670   59.5430 N.am  117  GLY117     -0.1939
     15  CA         3.1330   39.5080   60.2360 C.3   117  GLY117      0.2014
     16  C          4.5360   39.3160   60.7880 C.2   117  GLY117      0.2639
     17  O          4.7450   38.4810   61.6640 O.2   117  GLY117     -0.2714
     18  N          5.4990   40.0800   60.2820 N.am  118  GLY118     -0.1939
     19  CA         6.8630   39.9560   60.7670 C.3   118  GLY118      0.2014
     20  C          7.7310   39.0080   59.9530 C.2   118  GLY118      0.2638
     21  O          7.2170   38.1440   59.2420 O.2   118  GLY118     -0.2714
     22  N          9.0480   39.1680   60.0670 N.am  119  ALA119     -0.1977
     23  CA        10.0110   38.3400   59.3400 C.3   119  ALA119      0.1597
     24  C          9.9260   36.8510   59.6800 C.2   119  ALA119      0.2287
     25  O         10.0120   36.0010   58.7900 O.2   119  ALA119     -0.2864
     26  CB        11.4340   38.8490   59.5960 C.3   119  ALA119      0.0319
     27  N         -3.5450   48.9000   54.9810 N.3   164  LYS164     -0.1245
     28  CA        -2.1460   48.8840   55.4050 C.3   164  LYS164      0.1561
     29  C         -1.7900   50.1960   56.1030 C.2   164  LYS164      0.2260
     30  O         -1.0680   50.2040   57.0990 O.2   164  LYS164     -0.2867
     31  CB        -1.2180   48.6790   54.1990 C.3   164  LYS164      0.0271
     32  CG         0.2780   48.6610   54.5370 C.3   164  LYS164      0.0035
     33  CD         0.6000   47.5970   55.5800 C.3   164  LYS164      0.0206
     34  CE         2.0790   47.5830   55.9610 C.3   164  LYS164      0.1093
     35  NZ         2.9670   47.1920   54.8290 N.3   164  LYS164     -0.1314
     36  N         -3.1370   50.1430   59.4830 N.3   167  HIS167     -0.1226
     37  CA        -2.3200   49.2170   60.2560 C.3   167  HIS167      0.1752
     38  C         -1.0230   49.8770   60.7330 C.2   167  HIS167      0.2595
     39  O         -0.6050   49.6790   61.8750 O.2   167  HIS167     -0.2718
     40  CB        -1.9770   47.9710   59.4290 C.3   167  HIS167      0.0759
     41  CG        -1.0350   47.0340   60.1200 C.ar  167  HIS167      0.0818
     42  ND1        0.3350   47.1480   60.0230 N.ar  167  HIS167     -0.2268
     43  CD2       -1.2660   46.0160   60.9840 C.ar  167  HIS167      0.1154
     44  CE1        0.9070   46.2470   60.8000 C.ar  167  HIS167      0.1986
     45  NE2       -0.0420   45.5470   61.3960 N.ar  167  HIS167     -0.2212
     46  N         -0.3910   50.6600   59.8630 N.am  168  GLN168     -0.1979
     47  CA         0.8640   51.3180   60.2170 C.3   168  GLN168      0.1601
     48  C          0.6960   52.3880   61.2910 C.2   168  GLN168      0.2287
     49  O          1.6600   52.7370   61.9740 O.2   168  GLN168     -0.2864
     50  CB         1.5340   51.9160   58.9800 C.3   168  GLN168      0.0394
     51  CG         2.0780   50.8780   58.0090 C.3   168  GLN168      0.0908
     52  CD         2.9600   49.8400   58.6850 C.2   168  GLN168      0.2608
     53  OE1        2.4710   48.8370   59.2040 O.2   168  GLN168     -0.2717
     54  NE2        4.2700   50.0800   58.6880 N.am  168  GLN168     -0.0878
     55  N          2.5530   43.5890   70.0100 N.3   205  TRP205     -0.1241
     56  CA         3.4890   42.8530   69.1750 C.3   205  TRP205      0.1605
     57  C          4.7490   43.7010   69.0010 C.2   205  TRP205      0.2264
     58  O          5.8650   43.1940   69.0910 O.2   205  TRP205     -0.2867
     59  CB         2.8780   42.5540   67.8030 C.3   205  TRP205      0.0550
     60  CG         3.6560   41.5270   67.0310 C.ar  205  TRP205      0.0003
     61  CD1        3.4330   40.1790   67.0010 C.ar  205  TRP205      0.0946
     62  CD2        4.8200   41.7600   66.2210 C.ar  205  TRP205      0.0152
     63  NE1        4.3860   39.5580   66.2250 N.ar  205  TRP205     -0.2442
     64  CE2        5.2460   40.5010   65.7360 C.ar  205  TRP205      0.0810
     65  CE3        5.5400   42.9050   65.8600 C.ar  205  TRP205      0.0012
     66  CZ2        6.3670   40.3610   64.9080 C.ar  205  TRP205      0.0191
     67  CZ3        6.6530   42.7630   65.0370 C.ar  205  TRP205      0.0001
     68  CH2        7.0540   41.4990   64.5710 C.ar  205  TRP205      0.0015
     69  N          8.5930   42.8570   70.2080 N.3   208  ASN208     -0.1225
     70  CA         9.6340   42.7490   69.1930 C.3   208  ASN208      0.1785
     71  C         10.7180   43.8170   69.2870 C.2   208  ASN208      0.2597
     72  O         11.9070   43.4980   69.3470 O.2   208  ASN208     -0.2718
     73  CB         9.0090   42.7840   67.7990 C.3   208  ASN208      0.1169
     74  CG        10.0330   42.5780   66.7020 C.2   208  ASN208      0.2627
     75  OD1       10.6260   43.5320   66.1940 O.2   208  ASN208     -0.2716
     76  ND2       10.2580   41.3220   66.3410 N.am  208  ASN208     -0.0877
     77  N         10.3060   45.0820   69.3240 N.am  209  ARG209     -0.1979
     78  CA        11.2490   46.1940   69.3680 C.3   209  ARG209      0.1597
     79  C         11.9580   46.4440   70.7010 C.2   209  ARG209      0.2287
     80  O         13.1430   46.7910   70.7210 O.2   209  ARG209     -0.2864
     81  CB        10.5330   47.4720   68.9130 C.3   209  ARG209      0.0334
     82  CG         9.8590   47.3520   67.5420 C.3   209  ARG209      0.0492
     83  CD        10.8610   46.9630   66.4800 C.3   209  ARG209      0.2205
     84  NE        10.4850   47.4590   65.1580 N.pl3 209  ARG209     -0.0865
     85  CZ         9.8310   46.7610   64.2350 C.cat 209  ARG209      0.5346
     86  NH1        9.4600   45.5080   64.4670 N.pl3 209  ARG209      0.1354
     87  NH2        9.5510   47.3250   63.0700 N.pl3 209  ARG209      0.1354
     88  N         14.4370   47.5800   60.7960 N.3   221  SER221     -0.1217
     89  CA        13.4910   48.4500   60.1070 C.3   221  SER221      0.1889
     90  C         13.8290   49.8310   60.6810 C.2   221  SER221      0.2288
     91  O         13.7370   50.0410   61.8890 O.2   221  SER221     -0.2866
     92  CB        12.0540   48.0600   60.4450 C.3   221  SER221      0.2089
     93  OG        11.1520   48.7270   59.5800 O.3   221  SER221     -0.2183
     94  N          9.0990   54.7850   59.5470 N.3   226  PHE226     -0.1241
     95  CA         7.8790   55.2700   60.1650 C.3   226  PHE226      0.1605
     96  C          7.6570   56.7610   59.9910 C.2   226  PHE226      0.2264
     97  O          6.5270   57.2350   60.1010 O.2   226  PHE226     -0.2867
     98  CB         7.8040   54.8430   61.6290 C.3   226  PHE226      0.0534
     99  CG         7.2820   53.4520   61.7900 C.ar  226  PHE226     -0.0203
    100  CD1        8.1510   52.3760   61.9290 C.ar  226  PHE226     -0.0042
    101  CD2        5.9180   53.2040   61.6790 C.ar  226  PHE226     -0.0042
    102  CE1        7.6690   51.0680   61.9490 C.ar  226  PHE226     -0.0003
    103  CE2        5.4250   51.9040   61.6960 C.ar  226  PHE226     -0.0003
    104  CZ         6.3050   50.8320   61.8310 C.ar  226  PHE226     -0.0000
@<TRIPOS>BOND
     1     6     5    1
     2     1     2    1
     3     7     5    1
     4     5     2    1
     5     2     3    1
     6    31    32    1
     7    31    28    1
     8    32    33    1
     9    35    34    1
    10    27    28    1
    11     3     4    2
    12     3     8   am
    13    28    29    1
    14    33    34    1
    15    29    30    2
    16     8     9    1
    17    11    10    2
    18     9    10    1
    19     9    12    1
    20    51    52    1
    21    51    50    1
    22    10    14   am
    23    12    13    1
    24    52    54   am
    25    52    53    2
    26    25    24    2
    27    50    47    1
    28    21    20    2
    29    23    26    1
    30    23    24    1
    31    23    22    1
    32    40    41    1
    33    40    37    1
    34    36    37    1
    35    14    15    1
    36    94    95    1
    37    93    92    1
    38    46    47    1
    39    46    38   am
    40    20    22   am
    41    20    19    1
    42    96    97    2
    43    96    95    1
    44    42    41   ar
    45    42    44   ar
    46    89    92    1
    47    89    90    1
    48    89    88    1
    49    41    43   ar
    50    95    98    1
    51    47    48    1
    52    15    16    1
    53    37    38    1
    54    18    19    1
    55    18    16   am
    56    90    91    2
    57    38    39    2
    58    16    17    2
    59    44    45   ar
    60    43    45   ar
    61    48    49    2
    62    98    99    1
    63   101   103   ar
    64   101    99   ar
    65   103   104   ar
    66    99   100   ar
    67   104   102   ar
    68   100   102   ar
    69    87    85    1
    70    85    86    1
    71    85    84    2
    72    68    66   ar
    73    68    67   ar
    74    66    64   ar
    75    67    65   ar
    76    84    83    1
    77    64    62   ar
    78    64    63   ar
    79    65    62   ar
    80    75    74    2
    81    62    60   ar
    82    63    61   ar
    83    76    74   am
    84    83    82    1
    85    74    73    1
    86    61    60   ar
    87    60    59    1
    88    82    81    1
    89    73    70    1
    90    59    56    1
    91    81    78    1
    92    57    58    2
    93    57    56    1
    94    56    55    1
    95    70    71    1
    96    70    69    1
    97    71    77   am
    98    71    72    2
    99    77    78    1
   100    78    79    1
   101    79    80    2
