@<TRIPOS>MOLECULE
tmp/3g0rA00.pdb
 86 86 0 0 0
SMALL
GASTEIGER

@<TRIPOS>ATOM
      1  N          8.9450   -4.9490   50.2840 N.3     7  TRP7       -0.1241
      2  CA        10.1330   -5.3290   49.5190 C.3     7  TRP7        0.1605
      3  C          9.7840   -5.6000   48.0850 C.2     7  TRP7        0.2264
      4  O          8.9620   -6.4600   47.8150 O.2     7  TRP7       -0.2867
      5  CB        10.8210   -6.5590   50.1300 C.3     7  TRP7        0.0550
      6  CG        12.2380   -6.8480   49.5780 C.ar    7  TRP7        0.0003
      7  CD1       12.9990   -6.0300   48.8080 C.ar    7  TRP7        0.0946
      8  CD2       13.0480   -8.0300   49.8230 C.ar    7  TRP7        0.0152
      9  NE1       14.2070   -6.6260   48.5290 N.ar    7  TRP7       -0.2442
     10  CE2       14.2630   -7.8510   49.1320 C.ar    7  TRP7        0.0810
     11  CE3       12.8520   -9.2120   50.5620 C.ar    7  TRP7        0.0012
     12  CZ2       15.3010   -8.8090   49.1480 C.ar    7  TRP7        0.0191
     13  CZ3       13.8830  -10.1730   50.5950 C.ar    7  TRP7        0.0001
     14  CH2       15.1010   -9.9570   49.8870 C.ar    7  TRP7        0.0015
     15  N         14.2990  -14.8790   44.9890 N.3    15  VAL15      -0.1245
     16  CA        14.6440  -14.4750   46.3390 C.3    15  VAL15       0.1561
     17  C         14.4520  -15.6580   47.3170 C.2    15  VAL15       0.2260
     18  O         15.1710  -15.8140   48.2900 O.2    15  VAL15      -0.2867
     19  CB        13.8780  -13.1410   46.6350 C.3    15  VAL15       0.0252
     20  CG1       12.8300  -13.2550   47.7250 C.3    15  VAL15       0.0019
     21  CG2       14.8620  -11.9640   46.7710 C.3    15  VAL15       0.0019
     22  N         17.5470  -17.6930   47.2860 N.3    18  LYS18      -0.1231
     23  CA        18.6070  -17.0410   48.0840 C.3    18  LYS18       0.1693
     24  C         18.3780  -16.9280   49.6050 C.2    18  LYS18       0.2593
     25  O         19.1600  -16.3060   50.2970 O.2    18  LYS18      -0.2718
     26  CB        18.9660  -15.6700   47.4950 C.3    18  LYS18       0.0285
     27  CG        19.2250  -15.6710   45.9950 C.3    18  LYS18       0.0035
     28  CD        19.0970  -14.2460   45.4410 C.3    18  LYS18       0.0206
     29  CE        19.1110  -14.2070   43.8950 C.3    18  LYS18       0.1093
     30  NZ        18.5100  -12.9670   43.2880 N.3    18  LYS18      -0.1314
     31  N         17.3170  -17.5200   50.1390 N.am   19  GLY19      -0.1942
     32  CA        17.1460  -17.5830   51.6080 C.3    19  GLY19       0.2014
     33  C         16.0080  -16.7580   52.1720 C.2    19  GLY19       0.2638
     34  O         15.9960  -16.4650   53.3730 O.2    19  GLY19      -0.2714
     35  N         15.0500  -16.3980   51.3120 N.am   20  PHE20      -0.1973
     36  CA        13.9240  -15.5220   51.6560 C.3    20  PHE20       0.1639
     37  C         13.1520  -15.9580   52.9010 C.2    20  PHE20       0.2290
     38  O         12.8610  -15.1290   53.7720 O.2    20  PHE20      -0.2864
     39  CB        12.9720  -15.4240   50.4530 C.3    20  PHE20       0.0560
     40  CG        11.6390  -14.7810   50.7560 C.ar   20  PHE20      -0.0200
     41  CD1       11.5020  -13.3840   50.7760 C.ar   20  PHE20      -0.0042
     42  CD2       10.4980  -15.5780   50.9800 C.ar   20  PHE20      -0.0042
     43  CE1       10.2450  -12.7910   51.0410 C.ar   20  PHE20      -0.0003
     44  CE2        9.2470  -15.0110   51.2430 C.ar   20  PHE20      -0.0003
     45  CZ         9.1110  -13.6100   51.2850 C.ar   20  PHE20      -0.0000
     46  N         15.1330  -15.4850   56.1130 N.3    23  TRP23      -0.1241
     47  CA        15.0600  -14.0460   56.4230 C.3    23  TRP23       0.1605
     48  C         13.6780  -13.6160   56.9210 C.2    23  TRP23       0.2264
     49  O         13.5720  -12.9260   57.9470 O.2    23  TRP23      -0.2867
     50  CB        15.4670  -13.1760   55.2300 C.3    23  TRP23       0.0550
     51  CG        15.0840  -11.7230   55.4410 C.ar   23  TRP23       0.0003
     52  CD1       15.7890  -10.7810   56.1460 C.ar   23  TRP23       0.0946
     53  CD2       13.8900  -11.0720   54.9820 C.ar   23  TRP23       0.0152
     54  NE1       15.1150   -9.5750   56.1340 N.ar   23  TRP23      -0.2442
     55  CE2       13.9450   -9.7290   55.4290 C.ar   23  TRP23       0.0810
     56  CE3       12.7820  -11.4890   54.2280 C.ar   23  TRP23       0.0012
     57  CZ2       12.9250   -8.8000   55.1530 C.ar   23  TRP23       0.0191
     58  CZ3       11.7740  -10.5630   53.9460 C.ar   23  TRP23       0.0001
     59  CH2       11.8580   -9.2300   54.4090 C.ar   23  TRP23       0.0015
     60  N         21.0430   -3.7080   54.3390 N.3   240  ASP240     -0.1225
     61  CA        21.9040   -4.8830   54.3210 C.3   240  ASP240      0.1805
     62  C         21.2280   -6.1220   53.7020 C.2   240  ASP240      0.2598
     63  O         21.9000   -7.1120   53.4160 O.2   240  ASP240     -0.2718
     64  CB        22.3710   -5.2170   55.7460 C.3   240  ASP240      0.1424
     65  CG        23.5190   -4.3020   56.2440 C.2   240  ASP240      0.3668
     66  OD1       24.0670   -3.4660   55.4540 O.co2 240  ASP240     -0.2456
     67  OD2       23.8780   -4.4380   57.4570 O.co2 240  ASP240     -0.2456
     68  N         19.9070   -6.0810   53.5050 N.am  241  VAL241     -0.1966
     69  CA        19.1940   -7.2610   52.9930 C.3   241  VAL241      0.1727
     70  C         19.3300   -7.3750   51.4850 C.2   241  VAL241      0.2616
     71  O         18.8370   -6.5200   50.7280 O.2   241  VAL241     -0.2715
     72  CB        17.6990   -7.3390   53.4510 C.3   241  VAL241      0.0290
     73  CG1       16.9770   -8.5170   52.7990 C.3   241  VAL241      0.0023
     74  CG2       17.5880   -7.3910   55.0100 C.3   241  VAL241      0.0023
     75  N         20.0020   -8.4570   51.0770 N.am  242  MET242     -0.1963
     76  CA        20.3630   -8.7560   49.6810 C.3   242  MET242      0.1736
     77  C         19.3180   -9.5890   48.9470 C.2   242  MET242      0.2617
     78  O         18.4350  -10.1480   49.5790 O.2   242  MET242     -0.2715
     79  CB        21.7260   -9.4790   49.6590 C.3   242  MET242      0.0427
     80  CG        22.8620   -8.7030   50.3480 C.3   242  MET242      0.0599
     81  SD        23.1500   -7.0300   49.7090 S.3   242  MET242     -0.1393
     82  CE        23.9320   -7.4320   48.1370 C.3   242  MET242      0.0692
     83  N         19.4050   -9.6600   47.6210 N.am  243  GLY243     -0.1955
     84  CA        18.5830  -10.5980   46.8260 C.3   243  GLY243      0.1869
     85  C         17.8350  -10.0130   45.6340 C.2   243  GLY243      0.2309
     86  O         17.3330  -10.7440   44.7540 O.2   243  GLY243     -0.2863
@<TRIPOS>BOND
     1    30    29    1
     2    29    28    1
     3    86    85    2
     4    15    16    1
     5    28    27    1
     6    85    84    1
     7    27    26    1
     8    16    19    1
     9    16    17    1
    10    19    21    1
    11    19    20    1
    12    84    83    1
    13    22    23    1
    14    17    18    2
    15    26    23    1
    16    83    77   am
    17     4     3    2
    18    23    24    1
    19     3     2    1
    20    82    81    1
    21     9     7   ar
    22     9    10   ar
    23     7     6   ar
    24    77    78    2
    25    77    76    1
    26    10    12   ar
    27    10     8   ar
    28    12    14   ar
    29     2     5    1
    30     2     1    1
    31     6     8   ar
    32     6     5    1
    33    24    31   am
    34    24    25    2
    35    79    76    1
    36    79    80    1
    37    76    75    1
    38    81    80    1
    39     8    11   ar
    40    14    13   ar
    41    31    32    1
    42    39    40    1
    43    39    36    1
    44    11    13   ar
    45    71    70    2
    46    40    41   ar
    47    40    42   ar
    48    41    43   ar
    49    42    44   ar
    50    43    45   ar
    51    75    70   am
    52    44    45   ar
    53    35    36    1
    54    35    33   am
    55    70    69    1
    56    32    33    1
    57    36    37    1
    58    33    34    2
    59    73    72    1
    60    37    38    2
    61    69    72    1
    62    69    68    1
    63    63    62    2
    64    72    74    1
    65    68    62   am
    66    62    61    1
    67    58    56   ar
    68    58    59   ar
    69    56    53   ar
    70    61    60    1
    71    61    64    1
    72    59    57   ar
    73    53    55   ar
    74    53    51   ar
    75    57    55   ar
    76    50    51    1
    77    50    47    1
    78    55    54   ar
    79    51    52   ar
    80    66    65   ar
    81    64    65    1
    82    46    47    1
    83    54    52   ar
    84    65    67   ar
    85    47    48    1
    86    48    49    2
