@<TRIPOS>MOLECULE
tmp/3g0rA01.pdb
 79 76 0 0 0
SMALL
GASTEIGER

@<TRIPOS>ATOM
      1  N          2.7660  -16.1380   38.9650 N.3    40  ALA40      -0.1245
      2  CA         1.4160  -16.4720   39.3990 C.3    40  ALA40       0.1562
      3  C          1.5700  -17.4630   40.5750 C.2    40  ALA40       0.2260
      4  O          2.5670  -18.1920   40.6360 O.2    40  ALA40      -0.2867
      5  CB         0.6420  -17.0980   38.2530 C.3    40  ALA40       0.0290
      6  N          0.3340  -20.3370   41.2890 N.3    42  GLU42      -0.1231
      7  CA         0.4870  -21.7430   40.8640 C.3    42  GLU42       0.1699
      8  C          1.9460  -22.1060   40.6280 C.2    42  GLU42       0.2592
      9  O          2.3430  -23.2640   40.7940 O.2    42  GLU42      -0.2718
     10  CB        -0.2860  -22.0390   39.5820 C.3    42  GLU42       0.0402
     11  CG        -1.6650  -21.4490   39.5460 C.3    42  GLU42       0.1161
     12  CD        -1.6990  -20.0450   38.9300 C.2    42  GLU42       0.3649
     13  OE1       -2.1150  -19.1000   39.6410 O.co2  42  GLU42      -0.2457
     14  OE2       -1.3300  -19.9000   37.7280 O.co2  42  GLU42      -0.2457
     15  N          2.7440  -21.1090   40.2430 N.am   43  GLN43      -0.1979
     16  CA         4.1450  -21.3300   39.9200 C.3    43  GLN43       0.1601
     17  C          5.0200  -21.3800   41.1480 C.2    43  GLN43       0.2287
     18  O          6.1900  -21.6980   41.0440 O.2    43  GLN43      -0.2864
     19  CB         4.6540  -20.2430   38.9820 C.3    43  GLN43       0.0394
     20  CG         3.9140  -20.1530   37.6650 C.3    43  GLN43       0.0908
     21  CD         4.4430  -19.0340   36.8210 C.2    43  GLN43       0.2608
     22  OE1        4.1700  -17.8530   37.0820 O.2    43  GLN43      -0.2717
     23  NE2        5.2330  -19.3830   35.8110 N.am   43  GLN43      -0.0878
     24  N         -1.2240  -11.5420   40.7590 N.3    60  PRO60      -0.2102
     25  CA        -0.3550  -11.6260   39.5990 C.3    60  PRO60       0.1504
     26  C         -0.8720  -10.7670   38.4500 C.2    60  PRO60       0.2576
     27  O         -2.0860  -10.4370   38.4020 O.2    60  PRO60      -0.2718
     28  CB        -0.4450  -13.1080   39.2090 C.3    60  PRO60       0.0282
     29  CG        -1.8330  -13.5330   39.6640 C.3    60  PRO60       0.0208
     30  CD        -2.0910  -12.7410   40.9100 C.3    60  PRO60       0.0893
     31  N          0.0460  -10.4130   37.5400 N.am   61  ALA61      -0.1966
     32  CA        -0.2910   -9.7410   36.3090 C.3    61  ALA61       0.1728
     33  C         -0.8780  -10.7470   35.3090 C.2    61  ALA61       0.2616
     34  O         -0.7190  -11.9600   35.4660 O.2    61  ALA61      -0.2715
     35  CB         0.9640   -9.0820   35.7340 C.3    61  ALA61       0.0334
     36  N         -1.5610  -10.2490   34.2830 N.am   62  GLU62      -0.1963
     37  CA        -2.0230  -11.1080   33.1880 C.3    62  GLU62       0.1733
     38  C         -0.8370  -11.7170   32.4450 C.2    62  GLU62       0.2616
     39  O         -0.8240  -12.9060   32.1780 O.2    62  GLU62      -0.2715
     40  CB        -2.9340  -10.3350   32.2290 C.3    62  GLU62       0.0429
     41  CG        -4.3890  -10.3160   32.7090 C.3    62  GLU62       0.1163
     42  CD        -5.3010   -9.3960   31.8920 C.2    62  GLU62       0.3649
     43  OE1       -4.8270   -8.7620   30.9100 O.co2  62  GLU62      -0.2457
     44  OE2       -6.5040   -9.3150   32.2510 O.co2  62  GLU62      -0.2457
     45  N          0.1590  -10.8840   32.1540 N.am   63  ARG63      -0.1963
     46  CA         1.4180  -11.3110   31.5610 C.3    63  ARG63       0.1729
     47  C          2.2580  -12.1980   32.5150 C.2    63  ARG63       0.2616
     48  O          2.5730  -11.8010   33.6360 O.2    63  ARG63      -0.2715
     49  CB         2.2010  -10.0630   31.1190 C.3    63  ARG63       0.0348
     50  CG         3.5600  -10.3100   30.4920 C.3    63  ARG63       0.0492
     51  CD         3.5090  -10.2110   28.9810 C.3    63  ARG63       0.2205
     52  NE         3.7960   -8.8580   28.4750 N.pl3  63  ARG63      -0.0865
     53  CZ         4.9920   -8.4360   28.0620 C.cat  63  ARG63       0.5346
     54  NH1        6.0580   -9.2410   28.1090 N.pl3  63  ARG63       0.1354
     55  NH2        5.1260   -7.1980   27.6090 N.pl3  63  ARG63       0.1354
     56  N          2.6070  -13.3900   32.0330 N.am   64  LYS64      -0.1977
     57  CA         3.4440  -14.3790   32.7350 C.3    64  LYS64       0.1596
     58  C          4.8920  -13.8570   32.9490 C.2    64  LYS64       0.2287
     59  O          5.4950  -13.2730   32.0440 O.2    64  LYS64      -0.2864
     60  CB         3.4160  -15.7000   31.9400 C.3    64  LYS64       0.0298
     61  CG         4.1460  -16.8660   32.5680 C.3    64  LYS64       0.0038
     62  CD         3.8230  -18.2090   31.9000 C.3    64  LYS64       0.0206
     63  CE         4.8510  -19.2730   32.2940 C.3    64  LYS64       0.1093
     64  NZ         4.7010  -20.6110   31.5810 N.3    64  LYS64      -0.1314
     65  N         -5.4710   -2.1510   36.2480 N.3    90  ASP90      -0.1225
     66  CA        -5.9170   -3.1970   37.1750 C.3    90  ASP90       0.1805
     67  C         -5.5100   -4.6150   36.7490 C.2    90  ASP90       0.2598
     68  O         -5.6880   -5.5590   37.4970 O.2    90  ASP90      -0.2718
     69  CB        -7.4340   -3.1300   37.3850 C.3    90  ASP90       0.1424
     70  CG        -7.9080   -1.8210   38.0820 C.2    90  ASP90       0.3668
     71  OD1       -7.0680   -0.9770   38.4950 O.co2  90  ASP90      -0.2456
     72  OD2       -9.1520   -1.6500   38.1970 O.co2  90  ASP90      -0.2456
     73  N         -4.9490   -4.7610   35.5600 N.am   91  THR91      -0.1953
     74  CA        -4.5990   -6.0990   35.0320 C.3    91  THR91       0.1897
     75  C         -3.1040   -6.4300   35.1380 C.2    91  THR91       0.2313
     76  O         -2.6740   -7.5300   34.7680 O.2    91  THR91      -0.2863
     77  CB        -5.0460   -6.2440   33.5610 C.3    91  THR91       0.1794
     78  OG1       -4.5580   -5.1240   32.7960 O.3    91  THR91      -0.2208
     79  CG2       -6.5930   -6.2850   33.4620 C.3    91  THR91       0.0378
@<TRIPOS>BOND
     1    55    53    1
     2    53    54    1
     3    53    52    2
     4    52    51    1
     5    51    50    1
     6    50    49    1
     7    43    42   ar
     8    49    46    1
     9    46    45    1
    10    46    47    1
    11    64    63    1
    12    42    44   ar
    13    42    41    1
    14    62    63    1
    15    62    61    1
    16    60    61    1
    17    60    57    1
    18    56    47   am
    19    56    57    1
    20    59    58    2
    21    45    38   am
    22    39    38    2
    23    40    41    1
    24    40    37    1
    25    38    37    1
    26    47    48    2
    27    57    58    1
    28    78    77    1
    29    37    36    1
    30    79    77    1
    31    77    74    1
    32    36    33   am
    33    76    75    2
    34    74    75    1
    35    74    73    1
    36    33    34    2
    37    33    32    1
    38    73    67   am
    39    35    32    1
    40    23    21   am
    41    65    66    1
    42    32    31    1
    43    67    66    1
    44    67    68    2
    45    21    22    2
    46    21    20    1
    47    66    69    1
    48    69    70    1
    49    31    26   am
    50    20    19    1
    51    14    12   ar
    52    70    72   ar
    53    70    71   ar
    54     5     2    1
    55    27    26    2
    56    26    25    1
    57    12    11    1
    58    12    13   ar
    59     1     2    1
    60    19    16    1
    61    28    25    1
    62    28    29    1
    63     2     3    1
    64    11    10    1
    65    10     7    1
    66    25    24    1
    67    29    30    1
    68    16    15    1
    69    16    17    1
    70    15     8   am
    71     3     4    2
    72     8     9    2
    73     8     7    1
    74    24    30    1
    75     7     6    1
    76    18    17    2
