@<TRIPOS>MOLECULE
tmp/3g0uA02.pdb
 188 179 0 0 0
SMALL
GASTEIGER

@<TRIPOS>ATOM
      1  N         23.6880    7.4530    7.7920 N.3     6  TYR6       -0.1241
      2  CA        24.8110    8.2620    7.2740 C.3     6  TYR6        0.1605
      3  C         24.7630    9.6440    7.9060 C.2     6  TYR6        0.2264
      4  O         25.7550   10.1490    8.4010 O.2     6  TYR6       -0.2867
      5  CB        24.7430    8.3650    5.7410 C.3     6  TYR6        0.0534
      6  CG        25.4330    7.2120    5.0480 C.ar    6  TYR6       -0.0201
      7  CD1       24.8270    5.9650    4.9630 C.ar    6  TYR6       -0.0009
      8  CD2       26.6880    7.3720    4.4900 C.ar    6  TYR6       -0.0009
      9  CE1       25.4410    4.9180    4.3220 C.ar    6  TYR6        0.0417
     10  CE2       27.3060    6.3200    3.8330 C.ar    6  TYR6        0.0417
     11  CZ        26.6880    5.1130    3.7750 C.ar    6  TYR6        0.1957
     12  OH        27.3190    4.0730    3.1690 O.3     6  TYR6       -0.2866
     13  N         27.1840    7.9370   10.7950 N.3    10  LEU10      -0.1231
     14  CA        28.4180    7.6930   10.0880 C.3    10  LEU10       0.1693
     15  C         29.2230    8.9850    9.7990 C.2    10  LEU10       0.2591
     16  O         30.4330    9.0360   10.0660 O.2    10  LEU10      -0.2718
     17  CB        28.1110    6.9440    8.7980 C.3    10  LEU10       0.0284
     18  CG        29.2580    6.2560    8.1110 C.3    10  LEU10       0.0019
     19  CD1       28.6510    5.3480    7.0490 C.3    10  LEU10       0.0001
     20  CD2       30.0910    7.3110    7.4780 C.3    10  LEU10       0.0001
     21  N         28.5410   10.0000    9.2290 N.am   11  MET11      -0.1979
     22  CA        29.2290   11.2350    8.7760 C.3    11  MET11       0.1605
     23  C         29.7470   11.9870   10.0220 C.2    11  MET11       0.2287
     24  O         30.9330   12.2680   10.1010 O.2    11  MET11      -0.2864
     25  CB        28.3330   12.1260    7.8670 C.3    11  MET11       0.0413
     26  CG        27.8400   11.3450    6.5730 C.3    11  MET11       0.0598
     27  SD        29.2530   10.7180    5.5950 S.3    11  MET11      -0.1393
     28  CE        29.9840   12.2610    4.9360 C.3    11  MET11       0.0692
     29  N         32.7450   10.1750   11.3150 N.3    14  LEU14      -0.1231
     30  CA        33.8260   10.4230   10.3940 C.3    14  LEU14       0.1693
     31  C         34.3630   11.8030   10.6210 C.2    14  LEU14       0.2591
     32  O         35.5650   11.9660   10.6880 O.2    14  LEU14      -0.2718
     33  CB        33.3050   10.3520    8.9660 C.3    14  LEU14       0.0284
     34  CG        34.5340   10.0120    8.1710 C.3    14  LEU14       0.0019
     35  CD1       34.5040    8.4810    8.0090 C.3    14  LEU14       0.0001
     36  CD2       34.4810   10.7780    6.8630 C.3    14  LEU14       0.0001
     37  N         33.4730   12.7840   10.7290 N.am   15  GLN15      -0.1979
     38  CA        33.8680   14.2200   10.8570 C.3    15  GLN15       0.1601
     39  C         34.6390   14.4470   12.2000 C.2    15  GLN15       0.2287
     40  O         35.4440   15.3660   12.3240 O.2    15  GLN15      -0.2864
     41  CB        32.6500   15.1940   10.6760 C.3    15  GLN15       0.0394
     42  CG        32.0600   15.3370    9.1790 C.3    15  GLN15       0.0908
     43  CD        31.1760   16.6710    8.8620 C.2    15  GLN15       0.2608
     44  OE1       30.2170   17.0240    9.6270 O.2    15  GLN15      -0.2717
     45  NE2       31.5140   17.3960    7.7130 N.am   15  GLN15      -0.0878
     46  N         39.0360   17.7170    7.5610 N.3    20  PRO20      -0.2116
     47  CA        38.2360   17.7720    6.3280 C.3    20  PRO20       0.1372
     48  C         39.0510   17.3450    5.0920 C.2    20  PRO20       0.2244
     49  O         38.5720   16.5500    4.2930 O.2    20  PRO20      -0.2868
     50  CB        37.7720   19.2580    6.2720 C.3    20  PRO20       0.0268
     51  CG        37.7810   19.6790    7.7790 C.3    20  PRO20       0.0207
     52  CD        39.0140   18.9960    8.3080 C.3    20  PRO20       0.0892
     53  N         39.4100   13.6140    5.2140 N.3    23  ALA23      -0.1231
     54  CA        38.1620   12.9170    4.9770 C.3    23  ALA23       0.1694
     55  C         37.9050   12.9220    3.4000 C.2    23  ALA23       0.2592
     56  O         37.4440   11.9650    2.8090 O.2    23  ALA23      -0.2718
     57  CB        37.0150   13.6420    5.7860 C.3    23  ALA23       0.0304
     58  N         38.2110   14.0420    2.7470 N.am   24  HIS24      -0.1976
     59  CA        37.9880   14.1320    1.2880 C.3    24  HIS24       0.1656
     60  C         38.9240   13.1310    0.5600 C.2    24  HIS24       0.2291
     61  O         38.5030   12.3490   -0.2880 O.2    24  HIS24      -0.2864
     62  CB        38.3660   15.5450    0.8910 C.3    24  HIS24       0.0771
     63  CG        38.3250   15.8100   -0.5830 C.ar   24  HIS24       0.0820
     64  ND1       38.8450   16.9860   -1.1150 N.ar   24  HIS24      -0.2267
     65  CD2       37.7380   15.1440   -1.6140 C.ar   24  HIS24       0.1154
     66  CE1       38.6240   17.0010   -2.4330 C.ar   24  HIS24       0.1986
     67  NE2       38.0010   15.8710   -2.7680 N.ar   24  HIS24      -0.2212
     68  N         37.5370    9.6740    1.0340 N.3    27  ALA27      -0.1245
     69  CA        36.3230    9.5180    0.2250 C.3    27  ALA27       0.1562
     70  C         36.7380    9.2990   -1.2700 C.2    27  ALA27       0.2260
     71  O         36.1160    8.5150   -1.9740 O.2    27  ALA27      -0.2867
     72  CB        35.3840   10.8150    0.3060 C.3    27  ALA27       0.0290
     73  N         38.1400    5.6520   -1.4220 N.3    30  PHE30      -0.1227
     74  CA        37.1250    4.6790   -1.2660 C.3    30  PHE30       0.1736
     75  C         36.2810    4.5760   -2.5210 C.2    30  PHE30       0.2596
     76  O         35.8580    3.4590   -2.9280 O.2    30  PHE30      -0.2718
     77  CB        36.2170    5.1590   -0.1740 C.3    30  PHE30       0.0547
     78  CG        35.2170    4.2080    0.2270 C.ar   30  PHE30      -0.0202
     79  CD1       35.5070    3.2890    1.2240 C.ar   30  PHE30      -0.0042
     80  CD2       33.9150    4.2780   -0.2850 C.ar   30  PHE30      -0.0042
     81  CE1       34.5290    2.3820    1.6680 C.ar   30  PHE30      -0.0003
     82  CE2       32.9080    3.3580    0.1430 C.ar   30  PHE30      -0.0003
     83  CZ        33.2240    2.4230    1.1270 C.ar   30  PHE30      -0.0000
     84  N         35.9240    5.7400   -3.0650 N.am   31  THR31      -0.1953
     85  CA        35.0220    5.7510   -4.2090 C.3    31  THR31       0.1897
     86  C         35.7430    5.1090   -5.3810 C.2    31  THR31       0.2313
     87  O         35.1270    4.3900   -6.1800 O.2    31  THR31      -0.2863
     88  CB        34.6920    7.2150   -4.5740 C.3    31  THR31       0.1794
     89  OG1       34.0180    7.8110   -3.4630 O.3    31  THR31      -0.2208
     90  CG2       33.8430    7.3080   -5.8460 C.3    31  THR31       0.0378
     91  N         31.6700    0.7810   -2.9910 N.3    36  LEU36      -0.1245
     92  CA        30.4500    1.5310   -2.7690 C.3    36  LEU36       0.1561
     93  C         29.3030    0.5880   -2.9620 C.2    36  LEU36       0.2260
     94  O         29.2530   -0.0820   -3.9940 O.2    36  LEU36      -0.2867
     95  CB        30.2850    2.6140   -3.8520 C.3    36  LEU36       0.0270
     96  CG        31.0730    3.9110   -3.9690 C.3    36  LEU36       0.0019
     97  CD1       30.8940    4.4400   -5.4080 C.3    36  LEU36       0.0001
     98  CD2       30.5990    4.9130   -2.8890 C.3    36  LEU36       0.0001
     99  N         35.5230   17.6840   -6.2540 N.3    63  PHE63      -0.1241
    100  CA        35.5800   16.4420   -5.4410 C.3    63  PHE63       0.1605
    101  C         36.6450   15.4950   -6.0230 C.2    63  PHE63       0.2264
    102  O         37.5240   14.8740   -5.3280 O.2    63  PHE63      -0.2867
    103  CB        34.2340   15.7440   -5.4350 C.3    63  PHE63       0.0534
    104  CG        34.2910   14.3760   -4.8160 C.ar   63  PHE63      -0.0203
    105  CD1       34.4450   14.2340   -3.4160 C.ar   63  PHE63      -0.0042
    106  CD2       34.3380   13.2410   -5.6210 C.ar   63  PHE63      -0.0042
    107  CE1       34.6120   12.9320   -2.8140 C.ar   63  PHE63      -0.0003
    108  CE2       34.5070   11.9060   -5.0290 C.ar   63  PHE63      -0.0003
    109  CZ        34.6370   11.8210   -3.6150 C.ar   63  PHE63      -0.0000
    110  N         27.7350    5.7490   -7.7030 N.3    76  MET76      -0.1245
    111  CA        26.9720    6.4920   -6.6630 C.3    76  MET76       0.1570
    112  C         25.6140    7.0000   -7.1780 C.2    76  MET76       0.2261
    113  O         24.7230    7.3690   -6.3890 O.2    76  MET76      -0.2867
    114  CB        27.7940    7.7140   -6.2520 C.3    76  MET76       0.0387
    115  CG        27.6110    8.1060   -4.8190 C.3    76  MET76       0.0595
    116  SD        28.8270    9.2570   -4.2020 S.3    76  MET76      -0.1393
    117  CE        30.2680    8.3660   -4.2500 C.3    76  MET76       0.0692
    118  N         40.9090   23.5180    4.0530 N.3    99  VAL99      -0.1245
    119  CA        39.5210   23.0960    3.9030 C.3    99  VAL99       0.1561
    120  C         38.9210   23.1650    5.3240 C.2    99  VAL99       0.2260
    121  O         39.5590   22.6750    6.3010 O.2    99  VAL99      -0.2867
    122  CB        39.3550   21.6080    3.3910 C.3    99  VAL99       0.0252
    123  CG1       37.8010   21.4030    3.0760 C.3    99  VAL99       0.0019
    124  CG2       40.1530   21.4180    2.1320 C.3    99  VAL99       0.0019
    125  N         35.2000   22.9730    7.7820 N.3   101  ARG101     -0.1245
    126  CA        33.7840   22.6750    7.7810 C.3   101  ARG101      0.1563
    127  C         33.0240   23.6730    8.7090 C.2   101  ARG101      0.2260
    128  O         33.5500   24.0680    9.7670 O.2   101  ARG101     -0.2867
    129  CB        33.5800   21.2660    8.3400 C.3   101  ARG101      0.0307
    130  CG        34.1980   20.1090    7.5650 C.3   101  ARG101      0.0489
    131  CD        33.8190   18.8320    8.4710 C.3   101  ARG101      0.2205
    132  NE        34.3840   17.5530    8.0940 N.pl3 101  ARG101     -0.0865
    133  CZ        35.4080   16.8470    8.6300 C.cat 101  ARG101      0.5346
    134  NH1       35.6600   15.7010    8.0470 N.pl3 101  ARG101      0.1354
    135  NH2       36.2040   17.2310    9.6570 N.pl3 101  ARG101      0.1354
    136  N         30.8890   24.6710    3.7600 N.3   108  VAL108     -0.1245
    137  CA        32.3190   24.4230    3.7920 C.3   108  VAL108      0.1561
    138  C         32.9990   25.6960    3.2960 C.2   108  VAL108      0.2260
    139  O         32.4280   26.4250    2.5000 O.2   108  VAL108     -0.2867
    140  CB        32.7110   23.1140    2.9370 C.3   108  VAL108      0.0252
    141  CG1       34.2610   23.0610    2.5650 C.3   108  VAL108      0.0019
    142  CG2       32.2270   21.8590    3.7060 C.3   108  VAL108      0.0019
    143  N         41.7830   25.5120   -1.5100 N.3   112  TYR112     -0.1241
    144  CA        42.7990   24.5750   -2.0690 C.3   112  TYR112      0.1605
    145  C         43.8280   25.2210   -2.9600 C.2   112  TYR112      0.2264
    146  O         45.0110   24.8850   -2.8870 O.2   112  TYR112     -0.2867
    147  CB        42.0710   23.5100   -2.8870 C.3   112  TYR112      0.0534
    148  CG        41.7320   22.3190   -2.1200 C.ar  112  TYR112     -0.0201
    149  CD1       40.4380   21.9640   -1.9120 C.ar  112  TYR112     -0.0009
    150  CD2       42.7570   21.4410   -1.6520 C.ar  112  TYR112     -0.0009
    151  CE1       40.1170   20.7510   -1.2430 C.ar  112  TYR112      0.0417
    152  CE2       42.4060   20.2000   -0.9320 C.ar  112  TYR112      0.0417
    153  CZ        41.1110   19.9070   -0.7600 C.ar  112  TYR112      0.1957
    154  OH        40.7320   18.7360   -0.1430 O.3   112  TYR112     -0.2866
    155  N         28.2190   19.1520   -4.4430 N.3   321  TYR321     -0.1241
    156  CA        29.3820   18.5880   -3.8040 C.3   321  TYR321      0.1605
    157  C         29.1540   18.6560   -2.2910 C.2   321  TYR321      0.2264
    158  O         29.1120   17.6100   -1.6130 O.2   321  TYR321     -0.2867
    159  CB        30.6620   19.3140   -4.2910 C.3   321  TYR321      0.0534
    160  CG        31.9980   18.8550   -3.6560 C.ar  321  TYR321     -0.0201
    161  CD1       33.2230   19.5330   -3.9880 C.ar  321  TYR321     -0.0009
    162  CD2       32.0180   17.8290   -2.7340 C.ar  321  TYR321     -0.0009
    163  CE1       34.4100   19.1610   -3.3990 C.ar  321  TYR321      0.0417
    164  CE2       33.2380   17.4180   -2.1400 C.ar  321  TYR321      0.0417
    165  CZ        34.3970   18.1260   -2.4700 C.ar  321  TYR321      0.1957
    166  OH        35.5820   17.7970   -1.9300 O.3   321  TYR321     -0.2866
    167  N         27.1860   16.1980   -0.1320 N.3   324  LEU324     -0.1231
    168  CA        27.7880   14.8100    0.0200 C.3   324  LEU324      0.1693
    169  C         28.7040   14.7680    1.2530 C.2   324  LEU324      0.2592
    170  O         28.8010   13.7340    1.9100 O.2   324  LEU324     -0.2718
    171  CB        28.5970   14.4990   -1.2630 C.3   324  LEU324      0.0284
    172  CG        29.0920   13.0930   -1.4750 C.3   324  LEU324      0.0019
    173  CD1       27.8100   12.2800   -1.7870 C.3   324  LEU324      0.0001
    174  CD2       30.0500   13.2200   -2.7310 C.3   324  LEU324      0.0001
    175  N         29.2990   15.9020    1.6510 N.am  325  THR325     -0.1953
    176  CA        30.2190   15.8850    2.7800 C.3   325  THR325      0.1897
    177  C         29.4590   15.8820    4.0680 C.2   325  THR325      0.2313
    178  O         30.0150   15.5560    5.1190 O.2   325  THR325     -0.2863
    179  CB        31.1970   17.0870    2.7890 C.3   325  THR325      0.1794
    180  OG1       30.4720   18.2560    3.2770 O.3   325  THR325     -0.2208
    181  CG2       31.7800   17.2570    1.3800 C.3   325  THR325      0.0378
    182  N         26.9140    9.5350    0.4780 N.3   329  PRO329     -0.2116
    183  CA        26.3200    9.0020   -0.7720 C.3   329  PRO329      0.1372
    184  C         24.7830    8.9000   -0.8270 C.2   329  PRO329      0.2244
    185  O         24.2210    9.0750   -1.9060 O.2   329  PRO329     -0.2868
    186  CB        26.9790    7.5660   -0.9170 C.3   329  PRO329      0.0268
    187  CG        28.3580    7.7890   -0.2700 C.3   329  PRO329      0.0207
    188  CD        28.0570    8.7170    0.9560 C.3   329  PRO329      0.0892
@<TRIPOS>BOND
     1   110   111    1
     2   112   111    1
     3   112   113    2
     4   111   114    1
     5    99   100    1
     6   114   115    1
     7    87    86    2
     8   101   100    1
     9   101   102    2
    10    90    88    1
    11   106   108   ar
    12   106   104   ar
    13   100   103    1
    14   103   104    1
    15    97    96    1
    16    86    85    1
    17   108   109   ar
    18   115   116    1
    19   104   105   ar
    20    88    85    1
    21    88    89    1
    22   155   156    1
    23   159   156    1
    24   159   160    1
    25   117   116    1
    26    85    84    1
    27    94    93    2
    28   161   160   ar
    29   161   163   ar
    30    96    95    1
    31    96    98    1
    32    95    92    1
    33   156   157    1
    34   160   162   ar
    35   109   107   ar
    36   105   107   ar
    37   163   165   ar
    38    84    75   am
    39    91    92    1
    40    93    92    1
    41   145   146    2
    42   145   144    1
    43    76    75    2
    44   147   148    1
    45   147   144    1
    46    67    66   ar
    47    67    65   ar
    48   162   164   ar
    49   174   172    1
    50    75    74    1
    51   165   164   ar
    52   165   166    1
    53    66    64   ar
    54   157   158    2
    55   148   149   ar
    56   148   150   ar
    57   144   143    1
    58    71    70    2
    59   149   151   ar
    60   185   184    2
    61   173   172    1
    62   150   152   ar
    63    65    63   ar
    64   172   171    1
    65    73    74    1
    66    70    69    1
    67    74    77    1
    68   171   168    1
    69   151   153   ar
    70    64    63   ar
    71   152   153   ar
    72   186   183    1
    73   186   187    1
    74   184   183    1
    75   183   182    1
    76   153   154    1
    77    63    62    1
    78    61    60    2
    79    80    82   ar
    80    80    78   ar
    81   187   188    1
    82    77    78    1
    83   167   168    1
    84   168   169    1
    85    82    83   ar
    86    69    72    1
    87    69    68    1
    88    78    79   ar
    89   182   188    1
    90    60    59    1
    91    62    59    1
    92    83    81   ar
    93    79    81   ar
    94   169   175   am
    95   169   170    2
    96    59    58    1
    97   181   179    1
    98   175   176    1
    99   124   122    1
   100   139   138    2
   101   141   140    1
   102    58    55   am
   103   176   179    1
   104   176   177    1
   105   179   180    1
   106    56    55    2
   107   140   142    1
   108   140   137    1
   109   123   122    1
   110    12    11    1
   111   138   137    1
   112   122   119    1
   113    55    54    1
   114   136   137    1
   115    11    10   ar
   116    11     9   ar
   117    10     8   ar
   118   119   118    1
   119   119   120    1
   120   177   178    2
   121    49    48    2
   122     9     7   ar
   123     8     6   ar
   124    28    27    1
   125     7     6   ar
   126    54    53    1
   127    54    57    1
   128     6     5    1
   129    48    47    1
   130   120   121    2
   131    27    26    1
   132     5     2    1
   133    50    47    1
   134    50    51    1
   135    47    46    1
   136    26    25    1
   137    36    34    1
   138    19    18    1
   139     2     1    1
   140     2     3    1
   141    20    18    1
   142    46    52    1
   143   130   129    1
   144   130   131    1
   145    45    43   am
   146    51    52    1
   147   126   125    1
   148   126   129    1
   149   126   127    1
   150    25    22    1
   151     3     4    2
   152    35    34    1
   153   134   133    1
   154   132   131    1
   155   132   133    2
   156    18    17    1
   157    34    33    1
   158   133   135    1
   159   127   128    2
   160    22    21    1
   161    22    23    1
   162    17    14    1
   163    43    42    1
   164    43    44    2
   165    33    30    1
   166    42    41    1
   167    21    15   am
   168    15    16    2
   169    15    14    1
   170    23    24    2
   171    14    13    1
   172    30    31    1
   173    30    29    1
   174    31    32    2
   175    31    37   am
   176    41    38    1
   177    37    38    1
   178    38    39    1
   179    39    40    2
