@<TRIPOS>MOLECULE
tmp/3g0wA00.pdb
 189 177 0 0 0
SMALL
GASTEIGER

@<TRIPOS>ATOM
      1  N         59.4970    0.0890   -3.4330 N.3    32  LEU32      -0.1245
      2  CA        59.5810   -0.2300   -2.0200 C.3    32  LEU32       0.1561
      3  C         60.6930    0.5800   -1.3450 C.2    32  LEU32       0.2260
      4  O         60.5010    1.0960   -0.2460 O.2    32  LEU32      -0.2867
      5  CB        59.7470   -1.7400   -1.8060 C.3    32  LEU32       0.0270
      6  CG        58.4420   -2.5210   -1.5880 C.3    32  LEU32       0.0019
      7  CD1       57.8190   -2.1890   -0.2340 C.3    32  LEU32       0.0001
      8  CD2       57.4230   -2.2940   -2.7310 C.3    32  LEU32       0.0001
      9  N         59.0730    3.7670   -0.5970 N.3    35  LEU35      -0.1231
     10  CA        58.1120    3.7110    0.5100 C.3    35  LEU35       0.1693
     11  C         58.9080    3.7190    1.8210 C.2    35  LEU35       0.2592
     12  O         58.5080    4.3360    2.7930 O.2    35  LEU35      -0.2718
     13  CB        57.2270    2.4620    0.4260 C.3    35  LEU35       0.0284
     14  CG        56.0380    2.5500   -0.5550 C.3    35  LEU35       0.0019
     15  CD1       55.3630    1.1860   -0.7950 C.3    35  LEU35       0.0001
     16  CD2       55.0130    3.5920   -0.1260 C.3    35  LEU35       0.0001
     17  N         60.0620    3.0630    1.8220 N.am   36  ASN36      -0.1974
     18  CA        60.9180    3.0240    3.0130 C.3    36  ASN36       0.1688
     19  C         61.4350    4.4030    3.3740 C.2    36  ASN36       0.2292
     20  O         61.3480    4.8260    4.5170 O.2    36  ASN36      -0.2864
     21  CB        62.0720    2.0400    2.8040 C.3    36  ASN36       0.1181
     22  CG        61.5910    0.6140    2.8020 C.2    36  ASN36       0.2629
     23  OD1       60.4650    0.3370    3.2270 O.2    36  ASN36      -0.2716
     24  ND2       62.4310   -0.3030    2.3440 N.am   36  ASN36      -0.0877
     25  N         60.0990    7.3250    2.3880 N.3    38  LEU38      -0.1231
     26  CA        58.9340    8.1110    2.7610 C.3    38  LEU38       0.1693
     27  C         58.4880    7.7230    4.1660 C.2    38  LEU38       0.2592
     28  O         58.1140    8.5750    4.9740 O.2    38  LEU38      -0.2718
     29  CB        57.7810    7.8580    1.7810 C.3    38  LEU38       0.0284
     30  CG        56.5040    8.6060    2.1250 C.3    38  LEU38       0.0019
     31  CD1       56.7860   10.0960    2.1600 C.3    38  LEU38       0.0001
     32  CD2       55.4100    8.2700    1.1210 C.3    38  LEU38       0.0001
     33  N         58.5270    6.4270    4.4580 N.am   39  GLY39      -0.1957
     34  CA        58.1180    5.9510    5.7650 C.3    39  GLY39       0.1869
     35  C         58.9590    6.6050    6.8380 C.2    39  GLY39       0.2309
     36  O         58.4430    6.9990    7.8930 O.2    39  GLY39      -0.2863
     37  N         58.0980   10.3430    7.2550 N.3    42  GLN42      -0.1245
     38  CA        56.8280   10.5030    7.9740 C.3    42  GLN42       0.1566
     39  C         56.9980   10.2610    9.4690 C.2    42  GLN42       0.2260
     40  O         56.4030   10.9630   10.2740 O.2    42  GLN42      -0.2867
     41  CB        55.7290    9.5780    7.4420 C.3    42  GLN42       0.0367
     42  CG        55.1730    9.9570    6.0610 C.3    42  GLN42       0.0905
     43  CD        54.3010   11.1900    6.0890 C.2    42  GLN42       0.2608
     44  OE1       53.7960   11.6210    5.0560 O.2    42  GLN42      -0.2717
     45  NE2       54.0720   11.7320    7.2780 N.am   42  GLN42      -0.0878
     46  N         52.8270    4.3430   14.7560 N.3    72  TRP72      -0.1227
     47  CA        53.3170    4.9310   13.5110 C.3    72  TRP72       0.1737
     48  C         52.6670    4.4440   12.1970 C.2    72  TRP72       0.2595
     49  O         52.1680    5.2410   11.4050 O.2    72  TRP72      -0.2718
     50  CB        54.8420    4.8410   13.4920 C.3    72  TRP72       0.0564
     51  CG        55.4690    4.9260   12.1810 C.ar   72  TRP72       0.0003
     52  CD1       55.5090    6.0100   11.3570 C.ar   72  TRP72       0.0946
     53  CD2       56.2910    3.9280   11.5800 C.ar   72  TRP72       0.0152
     54  NE1       56.2620    5.7250   10.2450 N.ar   72  TRP72      -0.2442
     55  CE2       56.7530    4.4500   10.3570 C.ar   72  TRP72       0.0810
     56  CE3       56.6470    2.6220   11.9400 C.ar   72  TRP72       0.0012
     57  CZ2       57.5570    3.7170    9.4850 C.ar   72  TRP72       0.0191
     58  CZ3       57.4440    1.8870   11.0700 C.ar   72  TRP72       0.0001
     59  CH2       57.9060    2.4480    9.8620 C.ar   72  TRP72       0.0015
     60  N         52.6890    3.1430   11.9530 N.am   73  MET73      -0.1979
     61  CA        52.1140    2.6060   10.7210 C.3    73  MET73       0.1605
     62  C         50.6290    2.9710   10.5450 C.2    73  MET73       0.2287
     63  O         50.1950    3.4100    9.4620 O.2    73  MET73      -0.2864
     64  CB        52.3190    1.0860   10.6630 C.3    73  MET73       0.0413
     65  CG        51.7930    0.3970    9.3990 C.3    73  MET73       0.0598
     66  SD        52.6160    0.9380    7.8720 S.3    73  MET73      -0.1393
     67  CE        54.1990    0.1620    8.0600 C.3    73  MET73       0.0692
     68  N         50.1520    6.6250    9.7420 N.3    76  MET76      -0.1230
     69  CA        50.5540    6.8750    8.3530 C.3    76  MET76       0.1702
     70  C         49.4350    6.4420    7.4190 C.2    76  MET76       0.2592
     71  O         49.0440    7.1730    6.4940 O.2    76  MET76      -0.2718
     72  CB        51.8300    6.0880    8.0060 C.3    76  MET76       0.0401
     73  CG        53.1640    6.7910    8.3570 C.3    76  MET76       0.0596
     74  SD        54.6160    6.1130    7.4450 S.3    76  MET76      -0.1393
     75  CE        54.4310    4.3400    7.5480 C.3    76  MET76       0.0692
     76  N         48.9020    5.2530    7.6860 N.am   77  VAL77      -0.1980
     77  CA        47.8520    4.6960    6.8560 C.3    77  VAL77       0.1595
     78  C         46.6200    5.5870    6.8170 C.2    77  VAL77       0.2287
     79  O         46.0700    5.8640    5.7480 O.2    77  VAL77      -0.2864
     80  CB        47.4970    3.2570    7.2830 C.3    77  VAL77       0.0276
     81  CG1       46.1960    2.8270    6.6300 C.3    77  VAL77       0.0022
     82  CG2       48.6220    2.3160    6.9090 C.3    77  VAL77       0.0022
     83  N         47.2610    8.8500    5.0820 N.3    80  MET80      -0.1245
     84  CA        47.3820    8.5960    3.6540 C.3    80  MET80       0.1570
     85  C         46.0080    8.3820    3.0140 C.2    80  MET80       0.2261
     86  O         45.7550    8.8720    1.9160 O.2    80  MET80      -0.2867
     87  CB        48.3470    7.4570    3.3470 C.3    80  MET80       0.0387
     88  CG        48.6170    7.3280    1.8660 C.3    80  MET80       0.0595
     89  SD        47.4240    6.2870    1.0050 S.3    80  MET80      -0.1393
     90  CE        47.8260    4.6620    1.7000 C.3    80  MET80       0.0692
     91  N         44.4740   11.9480    2.5570 N.3    83  ARG83      -0.1245
     92  CA        45.1200   12.6220    1.4100 C.3    83  ARG83       0.1563
     93  C         44.5760   12.0510    0.0880 C.2    83  ARG83       0.2260
     94  O         44.3970   12.7700   -0.9000 O.2    83  ARG83      -0.2867
     95  CB        46.6270   12.3100    1.4040 C.3    83  ARG83       0.0307
     96  CG        47.4730   13.0180    2.4280 C.3    83  ARG83       0.0489
     97  CD        48.9380   13.0860    1.9540 C.3    83  ARG83       0.2205
     98  NE        49.6580   11.8100    2.0490 N.pl3  83  ARG83      -0.0865
     99  CZ        50.0230   11.2180    3.1880 C.cat  83  ARG83       0.5346
    100  NH1       50.7120   10.0760    3.1590 N.pl3  83  ARG83       0.1354
    101  NH2       49.6990   11.7500    4.3600 N.pl3  83  ARG83       0.1354
    102  N         50.3390    8.4640   -1.4940 N.3    95  PHE95      -0.1241
    103  CA        51.3950    8.3660   -0.4750 C.3    95  PHE95       0.1605
    104  C         52.0930    9.7290   -0.3250 C.2    95  PHE95       0.2264
    105  O         52.3350   10.2200    0.7870 O.2    95  PHE95      -0.2867
    106  CB        52.4150    7.2890   -0.8730 C.3    95  PHE95       0.0534
    107  CG        51.8940    5.8800   -0.7500 C.ar   95  PHE95      -0.0203
    108  CD1       51.5070    5.1660   -1.8660 C.ar   95  PHE95      -0.0042
    109  CD2       51.7500    5.2820    0.5040 C.ar   95  PHE95      -0.0042
    110  CE1       50.9950    3.8650   -1.7470 C.ar   95  PHE95      -0.0003
    111  CE2       51.2590    3.9830    0.6240 C.ar   95  PHE95      -0.0003
    112  CZ        50.8750    3.2770   -0.5070 C.ar   95  PHE95      -0.0000
    113  N         52.0850   -5.5820   -2.8420 N.3   111  MET111     -0.1245
    114  CA        51.2120   -5.4210   -1.6770 C.3   111  MET111      0.1570
    115  C         49.8200   -5.0420   -2.1470 C.2   111  MET111      0.2261
    116  O         49.1500   -4.2110   -1.5370 O.2   111  MET111     -0.2867
    117  CB        51.7180   -4.3790   -0.6680 C.3   111  MET111      0.0387
    118  CG        53.0200   -3.6880   -0.9820 C.3   111  MET111      0.0595
    119  SD        53.3230   -2.4190    0.3030 S.3   111  MET111     -0.1393
    120  CE        52.9720   -3.3310    1.7240 C.3   111  MET111      0.0692
    121  N         43.5500   -0.2760    1.8470 N.3   118  MET118     -0.1245
    122  CA        43.8330    1.1340    2.1060 C.3   118  MET118      0.1570
    123  C         42.9510    2.0140    1.2340 C.2   118  MET118      0.2261
    124  O         42.4400    3.0410    1.6820 O.2   118  MET118     -0.2867
    125  CB        45.3130    1.4170    1.8910 C.3   118  MET118      0.0387
    126  CG        46.1830    0.8690    3.0170 C.3   118  MET118      0.0595
    127  SD        47.8750    1.4690    2.8950 S.3   118  MET118     -0.1393
    128  CE        48.5830    0.4080    1.6330 C.3   118  MET118      0.0692
    129  N         50.3270   -4.5680    6.9810 N.3   204  LEU204     -0.1245
    130  CA        51.4420   -3.8060    6.4620 C.3   204  LEU204      0.1561
    131  C         52.6900   -4.1350    7.2890 C.2   204  LEU204      0.2260
    132  O         53.7910   -4.2550    6.7450 O.2   204  LEU204     -0.2867
    133  CB        51.1190   -2.3080    6.4930 C.3   204  LEU204      0.0270
    134  CG        50.2270   -1.8440    5.3290 C.3   204  LEU204      0.0019
    135  CD1       49.7180   -0.4320    5.5690 C.3   204  LEU204      0.0001
    136  CD2       51.0030   -1.9280    3.9860 C.3   204  LEU204      0.0001
    137  N         54.0650   -7.5250    6.2280 N.3   207  PHE207     -0.1227
    138  CA        54.7440   -7.4390    4.9280 C.3   207  PHE207      0.1736
    139  C         56.0930   -6.7490    5.0690 C.2   207  PHE207      0.2596
    140  O         57.1070   -7.1990    4.5200 O.2   207  PHE207     -0.2718
    141  CB        53.8540   -6.7000    3.9230 C.3   207  PHE207      0.0547
    142  CG        54.5000   -6.4790    2.5820 C.ar  207  PHE207     -0.0202
    143  CD1       55.2610   -5.3490    2.3390 C.ar  207  PHE207     -0.0042
    144  CD2       54.3140   -7.3930    1.5470 C.ar  207  PHE207     -0.0042
    145  CE1       55.8260   -5.1270    1.0780 C.ar  207  PHE207     -0.0003
    146  CE2       54.9070   -7.1950    0.2840 C.ar  207  PHE207     -0.0003
    147  CZ        55.6570   -6.0650    0.0530 C.ar  207  PHE207     -0.0000
    148  N         56.1090   -5.6510    5.8110 N.am  208  THR208     -0.1953
    149  CA        57.3580   -4.9200    6.0310 C.3   208  THR208      0.1897
    150  C         58.3980   -5.7870    6.7330 C.2   208  THR208      0.2313
    151  O         59.5740   -5.7760    6.3740 O.2   208  THR208     -0.2863
    152  CB        57.1230   -3.6250    6.8300 C.3   208  THR208      0.1794
    153  OG1       56.2660   -2.7460    6.0840 O.3   208  THR208     -0.2208
    154  CG2       58.4430   -2.9410    7.0820 C.3   208  THR208      0.0378
    155  N         59.7560   -8.3440    4.3570 N.3   211  LEU211     -0.1245
    156  CA        60.6350   -7.7020    3.3820 C.3   211  LEU211      0.1561
    157  C         61.9860   -7.3330    3.9910 C.2   211  LEU211      0.2260
    158  O         63.0170   -7.5080    3.3620 O.2   211  LEU211     -0.2867
    159  CB        59.9350   -6.4810    2.7590 C.3   211  LEU211      0.0270
    160  CG        60.6500   -5.7140    1.6490 C.3   211  LEU211      0.0019
    161  CD1       61.1780   -6.6770    0.5860 C.3   211  LEU211      0.0001
    162  CD2       59.6840   -4.6940    1.0300 C.3   211  LEU211      0.0001
    163  N         66.5740   -0.3350    3.1180 N.3   222  PHE222     -0.1241
    164  CA        65.9330    0.1020    4.3560 C.3   222  PHE222      0.1605
    165  C         66.8620    1.0500    5.0780 C.2   222  PHE222      0.2264
    166  O         67.9840    0.6790    5.4390 O.2   222  PHE222     -0.2867
    167  CB        65.6400   -1.0830    5.2850 C.3   222  PHE222      0.0534
    168  CG        64.3410   -1.7810    4.9940 C.ar  222  PHE222     -0.0203
    169  CD1       64.2950   -2.8350    4.1030 C.ar  222  PHE222     -0.0042
    170  CD2       63.1680   -1.3940    5.6250 C.ar  222  PHE222     -0.0042
    171  CE1       63.1080   -3.4920    3.8350 C.ar  222  PHE222     -0.0003
    172  CE2       61.9660   -2.0170    5.3290 C.ar  222  PHE222     -0.0003
    173  CZ        61.9420   -3.0870    4.4580 C.ar  222  PHE222     -0.0000
    174  N         64.7280    2.7510   10.0380 N.3   226  MET226     -0.1245
    175  CA        63.6230    1.8350    9.7580 C.3   226  MET226      0.1570
    176  C         64.0200    0.4260   10.1920 C.2   226  MET226      0.2261
    177  O         63.2620   -0.2490   10.8730 O.2   226  MET226     -0.2867
    178  CB        63.2370    1.8490    8.2740 C.3   226  MET226      0.0387
    179  CG        62.7050    3.1730    7.7830 C.3   226  MET226      0.0595
    180  SD        61.1900    3.6490    8.6590 S.3   226  MET226     -0.1393
    181  CE        61.8670    4.7140    9.9320 C.3   226  MET226      0.0692
    182  N         61.7110   -1.6900   12.8160 N.3   230  ILE230     -0.1245
    183  CA        61.0490   -2.8930   12.3160 C.3   230  ILE230      0.1561
    184  C         61.5410   -4.1720   12.9920 C.2   230  ILE230      0.2260
    185  O         60.8170   -5.1590   13.0770 O.2   230  ILE230     -0.2867
    186  CB        61.1870   -3.0090   10.8000 C.3   230  ILE230      0.0252
    187  CG1       60.4960   -1.8290   10.1150 C.3   230  ILE230      0.0019
    188  CG2       60.6280   -4.3550   10.3090 C.3   230  ILE230      0.0019
    189  CD1       61.0190   -1.5870    8.7080 C.3   230  ILE230      0.0001
@<TRIPOS>BOND
     1     1     2    1
     2   113   114    1
     3     8     6    1
     4   115   114    1
     5   115   116    2
     6     2     5    1
     7     2     3    1
     8   108   110   ar
     9   108   107   ar
    10     5     6    1
    11   110   112   ar
    12   114   117    1
    13     6     7    1
    14   102   103    1
    15     3     4    2
    16   118   117    1
    17   118   119    1
    18    94    93    2
    19   106   107    1
    20   106   103    1
    21    15    14    1
    22   107   109   ar
    23     9    10    1
    24    14    16    1
    25    14    13    1
    26   112   111   ar
    27   103   104    1
    28   104   105    2
    29   147   146   ar
    30   147   145   ar
    31    93    92    1
    32   146   144   ar
    33   119   120    1
    34    13    10    1
    35   109   111   ar
    36    10    11    1
    37   161   160    1
    38    89    90    1
    39    89    88    1
    40   162   160    1
    41   145   143   ar
    42    32    30    1
    43   123   124    2
    44   123   122    1
    45    95    92    1
    46    95    96    1
    47    92    91    1
    48   144   142   ar
    49   128   127    1
    50   160   159    1
    51    29    30    1
    52    29    26    1
    53    11    17   am
    54    11    12    2
    55    17    18    1
    56   121   122    1
    57    88    87    1
    58   125   122    1
    59   125   126    1
    60    86    85    2
    61    97    98    1
    62    97    96    1
    63    98    99    2
    64    30    31    1
    65   143   142   ar
    66    24    22   am
    67    25    26    1
    68   142   141    1
    69   159   156    1
    70    26    27    1
    71    22    21    1
    72    22    23    2
    73    21    18    1
    74   127   126    1
    75    18    19    1
    76    85    84    1
    77   163   164    1
    78   100    99    1
    79    99   101    1
    80    87    84    1
    81   158   157    2
    82    19    20    2
    83   156   157    1
    84   156   155    1
    85    84    83    1
    86   171   169   ar
    87   171   173   ar
    88   141   138    1
    89   136   134    1
    90   169   168   ar
    91    27    33   am
    92    27    28    2
    93   164   165    1
    94   164   167    1
    95    33    34    1
    96   173   172   ar
    97   140   139    2
    98   138   139    1
    99   138   137    1
   100   168   167    1
   101   168   170   ar
   102    44    43    2
   103   139   148   am
   104   165   166    2
   105   134   135    1
   106   134   133    1
   107   172   170   ar
   108    79    78    2
   109    34    35    1
   110   148   149    1
   111   149   150    1
   112   149   152    1
   113    42    43    1
   114    42    41    1
   115   153   152    1
   116    43    45   am
   117   151   150    2
   118   130   133    1
   119   130   129    1
   120   130   131    1
   121    71    70    2
   122    81    80    1
   123   132   131    2
   124    78    77    1
   125   152   154    1
   126    35    36    2
   127    77    80    1
   128    77    76    1
   129    82    80    1
   130    37    38    1
   131    70    76   am
   132    70    69    1
   133    41    38    1
   134    74    75    1
   135    74    73    1
   136   179   178    1
   137   179   180    1
   138    66    67    1
   139    66    65    1
   140    38    39    1
   141    72    69    1
   142    72    73    1
   143   178   175    1
   144    69    68    1
   145   180   181    1
   146   189   187    1
   147    65    64    1
   148    63    62    2
   149    39    40    2
   150    57    59   ar
   151    57    55   ar
   152   175   174    1
   153   175   176    1
   154    59    58   ar
   155   187   186    1
   156   176   177    2
   157    54    55   ar
   158    54    52   ar
   159   188   186    1
   160    55    53   ar
   161    62    61    1
   162    64    61    1
   163    61    60    1
   164   186   183    1
   165    58    56   ar
   166    52    51   ar
   167    49    48    2
   168    53    56   ar
   169    53    51   ar
   170    60    48   am
   171    51    50    1
   172    48    47    1
   173   183   182    1
   174   183   184    1
   175   184   185    2
   176    50    47    1
   177    47    46    1
