@<TRIPOS>MOLECULE
tmp/3g0xA02.pdb
 196 187 0 0 0
SMALL
GASTEIGER

@<TRIPOS>ATOM
      1  N          5.7700  -24.5060   -7.4400 N.3     5  TYR5       -0.1241
      2  CA         5.5340  -25.8750   -6.9640 C.3     5  TYR5        0.1605
      3  C          4.2730  -26.5010   -7.5630 C.2     5  TYR5        0.2264
      4  O          4.3220  -27.5720   -8.1580 O.2     5  TYR5       -0.2867
      5  CB         5.3930  -25.8610   -5.4480 C.3     5  TYR5        0.0534
      6  CG         6.6930  -25.9450   -4.7130 C.ar    5  TYR5       -0.0201
      7  CD1        7.4020  -24.7890   -4.3690 C.ar    5  TYR5       -0.0009
      8  CD2        7.2130  -27.1810   -4.3560 C.ar    5  TYR5       -0.0009
      9  CE1        8.5940  -24.8690   -3.6670 C.ar    5  TYR5        0.0417
     10  CE2        8.3990  -27.2810   -3.6820 C.ar    5  TYR5        0.0417
     11  CZ         9.0840  -26.1280   -3.3310 C.ar    5  TYR5        0.1957
     12  OH        10.2510  -26.2550   -2.6390 O.3     5  TYR5       -0.2866
     13  N          7.2620  -27.7490  -10.3030 N.3     9  LEU9       -0.1231
     14  CA         7.9920  -28.7710   -9.5510 C.3     9  LEU9        0.1693
     15  C          7.2220  -30.0970   -9.3580 C.2     9  LEU9        0.2591
     16  O          7.7250  -31.1790   -9.6900 O.2     9  LEU9       -0.2718
     17  CB         8.4240  -28.1990   -8.2040 C.3     9  LEU9        0.0284
     18  CG         9.6000  -28.8890   -7.5170 C.3     9  LEU9        0.0019
     19  CD1       10.3110  -27.8680   -6.6190 C.3     9  LEU9        0.0001
     20  CD2        9.1450  -30.1330   -6.7370 C.3     9  LEU9        0.0001
     21  N          6.0030  -29.9970   -8.8280 N.am   10  MET10      -0.1979
     22  CA         5.2330  -31.1760   -8.3960 C.3    10  MET10       0.1605
     23  C          4.7830  -32.0850   -9.5400 C.2    10  MET10       0.2287
     24  O          4.9910  -33.3000   -9.4470 O.2    10  MET10      -0.2864
     25  CB         4.0420  -30.7810   -7.5020 C.3    10  MET10       0.0413
     26  CG         4.4560  -30.1290   -6.1710 C.3    10  MET10       0.0598
     27  SD         5.6800  -31.0830   -5.1910 S.3    10  MET10      -0.1393
     28  CE         4.8040  -32.5920   -4.7580 C.3    10  MET10       0.0692
     29  N          7.9140  -33.8240  -10.9670 N.3    13  LEU13      -0.1231
     30  CA         8.2230  -34.8950  -10.0170 C.3    13  LEU13       0.1693
     31  C          7.2550  -36.0740  -10.2120 C.2    13  LEU13       0.2591
     32  O          7.6800  -37.2370  -10.1580 O.2    13  LEU13      -0.2718
     33  CB         8.1680  -34.3830   -8.5580 C.3    13  LEU13       0.0284
     34  CG         8.4300  -35.3480   -7.3810 C.3    13  LEU13       0.0019
     35  CD1        9.9220  -35.4020   -7.0250 C.3    13  LEU13       0.0001
     36  CD2        7.5980  -34.9940   -6.1000 C.3    13  LEU13       0.0001
     37  N          5.9670  -35.7580  -10.4310 N.am   14  GLN14      -0.1979
     38  CA         4.8900  -36.7600  -10.6060 C.3    14  GLN14       0.1601
     39  C          4.9970  -37.5250  -11.9490 C.2    14  GLN14       0.2287
     40  O          4.6220  -38.6920  -12.0540 O.2    14  GLN14      -0.2864
     41  CB         3.4950  -36.1000  -10.4500 C.3    14  GLN14       0.0394
     42  CG         3.2030  -35.5950   -9.0080 C.3    14  GLN14       0.0908
     43  CD         1.7110  -35.2330   -8.7160 C.2    14  GLN14       0.2608
     44  OE1        1.0810  -34.4520   -9.4420 O.2    14  GLN14      -0.2717
     45  NE2        1.1700  -35.7870   -7.6220 N.am   14  GLN14      -0.0878
     46  N          4.2480  -43.0180   -7.2910 N.3    19  PRO19      -0.2116
     47  CA         3.9900  -42.1950   -6.0770 C.3    19  PRO19       0.1372
     48  C          4.6960  -42.7430   -4.8380 C.2    19  PRO19       0.2244
     49  O          5.0990  -41.9590   -4.0150 O.2    19  PRO19      -0.2868
     50  CB         2.4920  -42.2870   -5.8700 C.3    19  PRO19       0.0268
     51  CG         1.9520  -43.1900   -6.9570 C.3    19  PRO19       0.0207
     52  CD         3.0020  -43.3670   -8.0060 C.3    19  PRO19       0.0892
     53  N          8.1450  -41.2800   -5.1050 N.3    22  ALA22      -0.1231
     54  CA         8.1250  -39.8430   -4.8780 C.3    22  ALA22       0.1694
     55  C          8.0030  -39.5930   -3.3480 C.2    22  ALA22       0.2592
     56  O          8.6240  -38.6850   -2.7890 O.2    22  ALA22      -0.2718
     57  CB         6.9180  -39.2120   -5.6060 C.3    22  ALA22       0.0304
     58  N          7.1300  -40.3660   -2.6940 N.am   23  HIS23      -0.1976
     59  CA         6.9740  -40.2280   -1.2430 C.3    23  HIS23       0.1656
     60  C          8.3270  -40.4940   -0.4330 C.2    23  HIS23       0.2291
     61  O          8.7560  -39.6850    0.4460 O.2    23  HIS23      -0.2864
     62  CB         5.9390  -41.2360   -0.7550 C.3    23  HIS23       0.0771
     63  CG         5.8200  -41.2130    0.7270 C.ar   23  HIS23       0.0820
     64  ND1        5.9250  -42.3360    1.5060 N.ar   23  HIS23      -0.2267
     65  CD2        5.7440  -40.1690    1.5820 C.ar   23  HIS23       0.1154
     66  CE1        5.8450  -41.9940    2.7780 C.ar   23  HIS23       0.1986
     67  NE2        5.6870  -40.6900    2.8440 N.ar   23  HIS23      -0.2212
     68  N         10.5690  -37.6060   -1.0300 N.3    26  ALA26      -0.1245
     69  CA        10.0800  -36.4890   -0.2210 C.3    26  ALA26       0.1562
     70  C         10.4280  -36.6500    1.3010 C.2    26  ALA26       0.2260
     71  O         10.7510  -35.6880    1.9280 O.2    26  ALA26      -0.2867
     72  CB         8.4800  -36.2640   -0.3610 C.3    26  ALA26       0.0290
     73  N         14.2630  -35.8000    1.5230 N.3    29  PHE29      -0.1227
     74  CA        14.5470  -34.3730    1.4180 C.3    29  PHE29       0.1736
     75  C         14.1220  -33.6300    2.6580 C.2    29  PHE29       0.2596
     76  O         14.8090  -32.6660    3.1000 O.2    29  PHE29      -0.2718
     77  CB        13.7950  -33.6970    0.2770 C.3    29  PHE29       0.0547
     78  CG        14.6220  -33.4780   -0.9670 C.ar   29  PHE29      -0.0202
     79  CD1       15.1430  -34.5860   -1.6660 C.ar   29  PHE29      -0.0042
     80  CD2       14.8000  -32.1910   -1.4830 C.ar   29  PHE29      -0.0042
     81  CE1       15.8990  -34.4210   -2.8800 C.ar   29  PHE29      -0.0003
     82  CE2       15.5570  -31.9880   -2.6900 C.ar   29  PHE29      -0.0003
     83  CZ        16.1160  -33.1270   -3.3840 C.ar   29  PHE29      -0.0000
     84  N         12.9130  -33.9590    3.1420 N.am   30  THR30      -0.1953
     85  CA        12.4010  -33.2630    4.3100 C.3    30  THR30       0.1897
     86  C         13.3330  -33.5400    5.4910 C.2    30  THR30       0.2313
     87  O         13.5960  -32.6350    6.2520 O.2    30  THR30      -0.2863
     88  CB        10.9530  -33.7420    4.6420 C.3    30  THR30       0.1794
     89  OG1       10.1070  -33.4450    3.5110 O.3    30  THR30      -0.2208
     90  CG2       10.4200  -33.0690    5.9320 C.3    30  THR30       0.0378
     91  N         16.0030  -29.9290    3.4510 N.3    34  LEU34      -0.1231
     92  CA        16.1090  -29.2960    2.0950 C.3    34  LEU34       0.1693
     93  C         14.7770  -28.7160    1.5790 C.2    34  LEU34       0.2591
     94  O         14.0740  -29.3200    0.7340 O.2    34  LEU34      -0.2718
     95  CB        16.6740  -30.2920    1.0540 C.3    34  LEU34       0.0284
     96  CG        17.9870  -30.9480    1.4960 C.3    34  LEU34       0.0019
     97  CD1       18.4570  -31.8870    0.4440 C.3    34  LEU34       0.0001
     98  CD2       19.0380  -29.8730    1.7930 C.3    34  LEU34       0.0001
     99  N         14.4290  -27.5590    2.1060 N.am   35  LEU35      -0.1980
    100  CA        13.1870  -26.9210    1.7830 C.3    35  LEU35       0.1596
    101  C         13.4950  -25.5050    2.1570 C.2    35  LEU35       0.2287
    102  O         14.3360  -25.2710    3.0380 O.2    35  LEU35      -0.2864
    103  CB        12.0520  -27.3770    2.7170 C.3    35  LEU35       0.0297
    104  CG        12.2390  -28.6130    3.5930 C.3    35  LEU35       0.0022
    105  CD1       11.7370  -28.4500    5.0410 C.3    35  LEU35       0.0001
    106  CD2       11.5790  -29.8040    2.8720 C.3    35  LEU35       0.0001
    107  N          2.5780  -39.7630    6.4900 N.3    62  PHE62      -0.1298
    108  CA         3.6150  -39.1350    5.6910 C.3    62  PHE62       0.1290
    109  C          4.9430  -39.5860    6.2720 C.3    62  PHE62       0.2013
    110  O          5.8860  -40.0980    5.5600 O.3    62  PHE62      -0.2188
    111  CB         3.5700  -37.5750    5.6990 C.3    62  PHE62       0.0480
    112  CG         4.7540  -36.9710    4.9800 C.ar   62  PHE62      -0.0206
    113  CD1        4.8500  -37.0570    3.5580 C.ar   62  PHE62      -0.0042
    114  CD2        5.8010  -36.3890    5.6950 C.ar   62  PHE62      -0.0042
    115  CE1        5.9620  -36.4980    2.8700 C.ar   62  PHE62      -0.0003
    116  CE2        6.9730  -35.8470    5.0380 C.ar   62  PHE62      -0.0003
    117  CZ         7.0470  -35.9250    3.6370 C.ar   62  PHE62      -0.0000
    118  N          8.8230  -26.9040    7.8880 N.3    75  MET75      -0.1245
    119  CA         7.8770  -26.5910    6.8150 C.3    75  MET75       0.1570
    120  C          6.7410  -25.7000    7.3450 C.2    75  MET75       0.2261
    121  O          5.9520  -25.1450    6.5460 O.2    75  MET75      -0.2867
    122  CB         7.2880  -27.9470    6.3220 C.3    75  MET75       0.0387
    123  CG         6.9420  -28.0100    4.8790 C.3    75  MET75       0.0595
    124  SD         6.5130  -29.6990    4.3890 S.3    75  MET75      -0.1393
    125  CE         8.0090  -30.5850    4.3370 C.3    75  MET75       0.0692
    126  N         -0.0200  -47.5940   -3.9030 N.3    98  VAL98      -0.1245
    127  CA        -0.4910  -46.2240   -3.7560 C.3    98  VAL98       0.1561
    128  C         -0.7180  -45.6490   -5.1760 C.2    98  VAL98       0.2260
    129  O          0.0750  -45.9820   -6.0960 O.2    98  VAL98      -0.2867
    130  CB         0.6200  -45.2730   -3.1710 C.3    98  VAL98       0.0252
    131  CG1       -0.0040  -43.9050   -2.7130 C.3    98  VAL98       0.0019
    132  CG2        1.3280  -45.8600   -2.0700 C.3    98  VAL98       0.0019
    133  N         -2.3370  -42.2150   -7.6730 N.3   100  ARG100     -0.1245
    134  CA        -2.7070  -40.8080   -7.6850 C.3   100  ARG100      0.1563
    135  C         -3.9300  -40.6880   -8.5720 C.2   100  ARG100      0.2260
    136  O         -3.9940  -41.4060   -9.6010 O.2   100  ARG100     -0.2867
    137  CB        -1.6410  -39.9260   -8.3450 C.3   100  ARG100      0.0307
    138  CG        -0.3810  -39.8870   -7.5760 C.3   100  ARG100      0.0489
    139  CD         0.5940  -39.1000   -8.6010 C.3   100  ARG100      0.2205
    140  NE         1.9450  -38.9900   -8.1260 N.pl3 100  ARG100     -0.0865
    141  CZ         3.0490  -39.5090   -8.6860 C.cat 100  ARG100      0.5346
    142  NH1        4.1800  -39.2670   -8.0710 N.pl3 100  ARG100      0.1354
    143  NH2        3.0480  -40.2300   -9.8440 N.pl3 100  ARG100      0.1354
    144  N         -5.9350  -39.4800   -3.6060 N.3   107  VAL107     -0.1245
    145  CA        -4.9970  -40.5550   -3.6230 C.3   107  VAL107      0.1561
    146  C         -5.7420  -41.7910   -3.1340 C.2   107  VAL107      0.2260
    147  O         -6.6710  -41.6510   -2.3270 O.2   107  VAL107     -0.2867
    148  CB        -3.7390  -40.1970   -2.7040 C.3   107  VAL107      0.0252
    149  CG1       -2.9100  -41.4560   -2.3240 C.3   107  VAL107      0.0019
    150  CG2       -2.8090  -39.1600   -3.4340 C.3   107  VAL107      0.0019
    151  N         -1.2670  -49.3620    1.7350 N.3   111  TYR111     -0.1241
    152  CA         0.0760  -49.7070    2.2670 C.3   111  TYR111      0.1605
    153  C          0.0280  -50.9330    3.1750 C.2   111  TYR111      0.2264
    154  O          0.9400  -51.7890    3.1000 O.2   111  TYR111     -0.2867
    155  CB         0.6870  -48.5260    3.0340 C.3   111  TYR111      0.0534
    156  CG         1.4830  -47.6220    2.2030 C.ar  111  TYR111     -0.0201
    157  CD1        0.9820  -46.4120    1.8020 C.ar  111  TYR111     -0.0009
    158  CD2        2.7940  -47.9860    1.7990 C.ar  111  TYR111     -0.0009
    159  CE1        1.7590  -45.5110    0.9950 C.ar  111  TYR111      0.0417
    160  CE2        3.5910  -47.0980    1.0020 C.ar  111  TYR111      0.0417
    161  CZ         3.0550  -45.9000    0.6070 C.ar  111  TYR111      0.1957
    162  OH         3.8160  -45.0450   -0.1220 O.3   111  TYR111     -0.2866
    163  N         -2.5900  -34.2410    4.5380 N.3   320  TYR320     -0.1241
    164  CA        -1.5020  -34.9960    3.9400 C.3   320  TYR320      0.1605
    165  C         -1.6320  -34.8330    2.4230 C.2   320  TYR320      0.2264
    166  O         -0.7580  -34.2570    1.7730 O.2   320  TYR320     -0.2867
    167  CB        -1.5360  -36.4680    4.4610 C.3   320  TYR320      0.0534
    168  CG        -0.4700  -37.4280    3.8830 C.ar  320  TYR320     -0.0201
    169  CD1       -0.4300  -38.8060    4.2750 C.ar  320  TYR320     -0.0009
    170  CD2        0.5170  -36.9650    3.0070 C.ar  320  TYR320     -0.0009
    171  CE1        0.4920  -39.6460    3.7120 C.ar  320  TYR320      0.0417
    172  CE2        1.4190  -37.8370    2.4280 C.ar  320  TYR320      0.0417
    173  CZ         1.3720  -39.1670    2.7780 C.ar  320  TYR320      0.1957
    174  OH         2.3530  -39.9940    2.2850 O.3   320  TYR320     -0.2866
    175  N         -0.4490  -31.8790    0.2960 N.3   323  LEU323     -0.1231
    176  CA         1.0030  -31.7420    0.1860 C.3   323  LEU323      0.1693
    177  C          1.5540  -32.4950   -1.0140 C.2   323  LEU323      0.2592
    178  O          2.4870  -32.0300   -1.7230 O.2   323  LEU323     -0.2718
    179  CB         1.6120  -32.1960    1.5450 C.3   323  LEU323      0.0284
    180  CG         3.0780  -32.0580    1.7820 C.3   323  LEU323      0.0019
    181  CD1        3.3920  -30.5770    1.9620 C.3   323  LEU323      0.0001
    182  CD2        3.3700  -32.8750    3.1250 C.3   323  LEU323      0.0001
    183  N          0.9940  -33.6640   -1.2960 N.am  324  THR324     -0.1953
    184  CA         1.4450  -34.4140   -2.4450 C.3   324  THR324      0.1897
    185  C          1.0820  -33.7420   -3.7340 C.2   324  THR324      0.2313
    186  O          1.7310  -33.9690   -4.7390 O.2   324  THR324     -0.2863
    187  CB         0.9990  -35.9040   -2.4370 C.3   324  THR324      0.1794
    188  OG1       -0.3330  -35.9240   -2.9450 O.3   324  THR324     -0.2208
    189  CG2        1.0530  -36.4700   -0.9460 C.3   324  THR324      0.0378
    190  N          5.2170  -28.1600   -0.2930 N.3   328  PRO328     -0.2116
    191  CA         5.4050  -27.3870    0.9530 C.3   328  PRO328      0.1372
    192  C          4.6920  -26.0170    1.0100 C.2   328  PRO328      0.2244
    193  O          4.2260  -25.6150    2.0800 O.2   328  PRO328     -0.2868
    194  CB         6.9340  -27.2480    1.0510 C.3   328  PRO328      0.0268
    195  CG         7.4040  -28.6390    0.5030 C.3   328  PRO328      0.0207
    196  CD         6.4520  -28.8920   -0.6960 C.3   328  PRO328      0.0892
@<TRIPOS>BOND
     1    40    39    2
     2    39    38    1
     3    29    30    1
     4    38    41    1
     5    38    37    1
     6    41    42    1
     7    37    31   am
     8    13    14    1
     9    31    32    2
    10    31    30    1
    11    30    33    1
    12   143   141    1
    13    16    15    2
    14   136   135    2
    15    14    15    1
    16    14    17    1
    17    23    24    2
    18    23    22    1
    19    44    43    2
    20    15    21   am
    21    42    43    1
    22    21    22    1
    23    43    45   am
    24   141   140    2
    25   141   142    1
    26   139   140    1
    27   139   138    1
    28   135   134    1
    29    33    34    1
    30    22    25    1
    31   137   134    1
    32   137   138    1
    33    17    18    1
    34     4     3    2
    35    52    46    1
    36    52    51    1
    37   134   133    1
    38     3     2    1
    39    18    20    1
    40    18    19    1
    41    25    26    1
    42     1     2    1
    43    34    35    1
    44    34    36    1
    45    46    47    1
    46     2     5    1
    47    51    50    1
    48    26    27    1
    49   129   128    2
    50    47    50    1
    51    47    48    1
    52    57    54    1
    53     5     6    1
    54    27    28    1
    55   128   127    1
    56    53    54    1
    57    54    55    1
    58    48    49    2
    59   186   185    2
    60     6     7   ar
    61     6     8   ar
    62     7     9   ar
    63     8    10   ar
    64   126   127    1
    65   127   130    1
    66   185   184    1
    67    10    11   ar
    68     9    11   ar
    69   145   144    1
    70   145   146    1
    71   145   148    1
    72   150   148    1
    73    83    81   ar
    74    83    82   ar
    75    55    56    2
    76    55    58   am
    77    11    12    1
    78   130   131    1
    79   130   132    1
    80   146   147    2
    81   188   187    1
    82    81    79   ar
    83   148   149    1
    84    58    59    1
    85    82    80   ar
    86   184   187    1
    87   184   183    1
    88   187   189    1
    89   178   177    2
    90    79    78   ar
    91    80    78   ar
    92   183   177   am
    93    59    62    1
    94    59    60    1
    95    68    69    1
    96   177   176    1
    97    78    77    1
    98    62    63    1
    99   196   190    1
   100   196   195    1
   101    60    61    2
   102    72    69    1
   103   190   191    1
   104    69    70    1
   105   162   161    1
   106   176   175    1
   107   176   179    1
   108    77    74    1
   109    97    96    1
   110   195   194    1
   111   161   159   ar
   112   161   160   ar
   113    63    64   ar
   114    63    65   ar
   115    94    93    2
   116   191   192    1
   117   191   194    1
   118   159   157   ar
   119   160   158   ar
   120   192   193    2
   121    95    96    1
   122    95    92    1
   123    70    71    2
   124    74    73    1
   125    74    75    1
   126    96    98    1
   127    64    66   ar
   128   179   180    1
   129    93    92    1
   130    93    99   am
   131    65    67   ar
   132   151   152    1
   133   166   165    2
   134   180   181    1
   135   180   182    1
   136   100    99    1
   137   100   101    1
   138   100   103    1
   139   158   156   ar
   140   157   156   ar
   141    92    91    1
   142   101   102    2
   143   156   155    1
   144   152   155    1
   145   152   153    1
   146   174   173    1
   147   165   164    1
   148   172   173   ar
   149   172   170   ar
   150    75    76    2
   151    75    84   am
   152   103   104    1
   153   173   171   ar
   154    66    67   ar
   155   115   113   ar
   156   115   117   ar
   157   106   104    1
   158   170   168   ar
   159   154   153    2
   160    84    85    1
   161    89    88    1
   162   113   112   ar
   163   104   105    1
   164   117   116   ar
   165   171   169   ar
   166   168   169   ar
   167   168   167    1
   168   164   167    1
   169   164   163    1
   170    85    88    1
   171    85    86    1
   172   125   124    1
   173   124   123    1
   174    88    90    1
   175   123   122    1
   176   112   114   ar
   177   112   111    1
   178   116   114   ar
   179    86    87    2
   180   110   109    1
   181   108   111    1
   182   108   109    1
   183   108   107    1
   184   122   119    1
   185   121   120    2
   186   119   120    1
   187   119   118    1
