@<TRIPOS>MOLECULE
tmp/3g0yA00.pdb
 163 159 0 0 0
SMALL
GASTEIGER

@<TRIPOS>ATOM
      1  N        -21.6080   39.9260   14.2350 N.3   162  GLN162     -0.1245
      2  CA       -20.9460   40.8310   13.3080 C.3   162  GLN162      0.1566
      3  C        -21.4910   42.2560   13.3010 C.2   162  GLN162      0.2260
      4  O        -20.9410   43.1290   12.6320 O.2   162  GLN162     -0.2867
      5  CB       -20.9190   40.2410   11.9000 C.3   162  GLN162      0.0367
      6  CG       -20.3590   38.8210   11.8430 C.3   162  GLN162      0.0905
      7  CD       -21.4450   37.7750   11.8470 C.2   162  GLN162      0.2608
      8  OE1      -22.5090   37.9760   12.4290 O.2   162  GLN162     -0.2717
      9  NE2      -21.1880   36.6510   11.1940 N.am  162  GLN162     -0.0878
     10  N        -19.2940   26.0700    8.4240 N.3   204  ALA204     -0.1231
     11  CA       -20.5390   26.6070    7.8890 C.3   204  ALA204      0.1694
     12  C        -20.3600   27.0220    6.4380 C.2   204  ALA204      0.2592
     13  O        -21.2720   27.6000    5.8230 O.2   204  ALA204     -0.2718
     14  CB       -21.0010   27.7960    8.7160 C.3   204  ALA204      0.0304
     15  N        -19.1780   26.7220    5.8990 N.am  205  ARG205     -0.1966
     16  CA       -18.8510   27.0580    4.5150 C.3   205  ARG205      0.1729
     17  C        -18.9600   28.5620    4.2810 C.2   205  ARG205      0.2616
     18  O        -19.3630   29.0120    3.2110 O.2   205  ARG205     -0.2715
     19  CB       -19.7450   26.2840    3.5430 C.3   205  ARG205      0.0348
     20  CG       -19.4870   24.7880    3.5470 C.3   205  ARG205      0.0492
     21  CD       -20.4740   24.0720    2.6470 C.3   205  ARG205      0.2205
     22  NE       -21.8250   24.1910    3.1820 N.pl3 205  ARG205     -0.0865
     23  CZ       -22.8730   24.6380    2.5000 C.cat 205  ARG205      0.5346
     24  NH1      -22.7430   25.0020    1.2300 N.pl3 205  ARG205      0.1354
     25  NH2      -24.0580   24.7150    3.0940 N.pl3 205  ARG205      0.1354
     26  N        -18.5760   29.3340    5.2890 N.am  206  ALA206     -0.1977
     27  CA       -18.6490   30.7860    5.2110 C.3   206  ALA206      0.1597
     28  C        -17.3350   31.4920    4.8620 C.2   206  ALA206      0.2287
     29  O        -17.3410   32.6800    4.5430 O.2   206  ALA206     -0.2864
     30  CB       -19.2170   31.3440    6.5070 C.3   206  ALA206      0.0319
     31  N        -16.4370   33.5920   -0.0860 N.3   227  GLY227     -0.1210
     32  CA       -16.6660   33.6810    1.3460 C.3   227  GLY227      0.1956
     33  C        -15.8320   34.7570    2.0140 C.2   227  GLY227      0.2611
     34  O        -14.8780   35.2650    1.4320 O.2   227  GLY227     -0.2717
     35  N        -16.1930   35.1070    3.2450 N.am  228  PHE228     -0.1976
     36  CA       -15.4770   36.1420    3.9780 C.3   228  PHE228      0.1639
     37  C        -14.0880   35.7750    4.4860 C.2   228  PHE228      0.2290
     38  O        -13.6870   34.6070    4.4720 O.2   228  PHE228     -0.2864
     39  CB       -16.3490   36.7760    5.0700 C.3   228  PHE228      0.0560
     40  CG       -16.3560   36.0260    6.3760 C.ar  228  PHE228     -0.0200
     41  CD1      -15.3910   36.2700    7.3370 C.ar  228  PHE228     -0.0042
     42  CD2      -17.3600   35.1120    6.6610 C.ar  228  PHE228     -0.0042
     43  CE1      -15.4070   35.5940    8.5410 C.ar  228  PHE228     -0.0003
     44  CE2      -17.3820   34.4330    7.8610 C.ar  228  PHE228     -0.0003
     45  CZ       -16.4030   34.6740    8.8040 C.ar  228  PHE228     -0.0000
     46  N        -33.9160   41.0750   10.0020 N.3   264  ASP264     -0.1239
     47  CA       -34.2410   40.4050    8.7390 C.3   264  ASP264      0.1674
     48  C        -35.4750   39.5050    8.8200 C.2   264  ASP264      0.2266
     49  O        -36.2210   39.3820    7.8420 O.2   264  ASP264     -0.2867
     50  CB       -33.0600   39.5480    8.2600 C.3   264  ASP264      0.1410
     51  CG       -32.0610   40.3250    7.4230 C.2   264  ASP264      0.3668
     52  OD1      -32.3130   41.5090    7.1080 O.co2 264  ASP264     -0.2456
     53  OD2      -31.0120   39.7370    7.0860 O.co2 264  ASP264     -0.2456
     54  N        -33.4190   34.3540    7.8880 N.3   267  HIS267     -0.1241
     55  CA       -32.6050   33.1520    8.0700 C.3   267  HIS267      0.1621
     56  C        -31.4960   33.3530    9.1190 C.2   267  HIS267      0.2264
     57  O        -30.9580   34.4500    9.2600 O.2   267  HIS267     -0.2867
     58  CB       -32.0000   32.7370    6.7270 C.3   267  HIS267      0.0745
     59  CG       -31.2230   31.4620    6.7860 C.ar  267  HIS267      0.0817
     60  ND1      -31.7840   30.2360    6.4990 N.ar  267  HIS267     -0.2268
     61  CD2      -29.9380   31.2170    7.1310 C.ar  267  HIS267      0.1154
     62  CE1      -30.8740   29.2920    6.6540 C.ar  267  HIS267      0.1986
     63  NE2      -29.7440   29.8600    7.0390 N.ar  267  HIS267     -0.2212
     64  N        -28.3300   32.3690    9.2770 N.3   269  THR269     -0.1203
     65  CA       -27.0010   32.6780    8.7570 C.3   269  THR269      0.1994
     66  C        -26.9840   33.3400    7.3760 C.2   269  THR269      0.2619
     67  O        -25.9520   33.3310    6.7020 O.2   269  THR269     -0.2717
     68  CB       -26.0820   31.4400    8.7740 C.3   269  THR269      0.1784
     69  OG1      -26.6810   30.3760    8.0200 O.3   269  THR269     -0.2211
     70  CG2      -25.8260   30.9760   10.1940 C.3   269  THR269      0.0376
     71  N        -28.1020   33.9290    6.9600 N.am  270  SER270     -0.1938
     72  CA       -28.1490   34.5860    5.6570 C.3   270  SER270      0.2040
     73  C        -29.2440   35.6430    5.5070 C.2   270  SER270      0.2485
     74  O        -30.3140   35.5350    6.1010 O.2   270  SER270     -0.2729
     75  CB       -28.2560   33.5560    4.5320 C.3   270  SER270      0.2129
     76  OG       -28.2130   34.1960    3.2630 O.3   270  SER270     -0.2179
     77  N        -28.9860   36.6800    4.6900 N.am  271  PRO271     -0.2726
     78  CA       -29.9870   37.7300    4.4810 C.3   271  PRO271      0.1402
     79  C        -30.8700   37.3690    3.2910 C.2   271  PRO271      0.2269
     80  O        -30.5600   36.4420    2.5350 O.2   271  PRO271     -0.2865
     81  CB       -29.1310   38.9460    4.1160 C.3   271  PRO271      0.0296
     82  CG       -27.9520   38.3610    3.4060 C.3   271  PRO271      0.0237
     83  CD       -27.7570   36.9430    3.9190 C.3   271  PRO271      0.0939
     84  N        -20.9640   46.6980    4.4950 N.3   302  HIS302     -0.1241
     85  CA       -20.6550   45.6090    5.3790 C.3   302  HIS302      0.1621
     86  C        -19.7400   44.7080    4.5280 C.2   302  HIS302      0.2264
     87  O        -18.7730   44.1390    5.0310 O.2   302  HIS302     -0.2867
     88  CB       -21.9360   44.9100    5.8200 C.3   302  HIS302      0.0745
     89  CG       -21.7150   43.8340    6.8370 C.ar  302  HIS302      0.0817
     90  ND1      -20.9640   44.0230    7.9760 N.ar  302  HIS302     -0.2268
     91  CD2      -22.1450   42.5500    6.8780 C.ar  302  HIS302      0.1154
     92  CE1      -20.9430   42.9030    8.6790 C.ar  302  HIS302      0.1986
     93  NE2      -21.6490   41.9940    8.0300 N.ar  302  HIS302     -0.2212
     94  N        -18.7840   41.7180    2.9590 N.3   304  THR304     -0.1218
     95  CA       -17.9370   40.6590    3.4790 C.3   304  THR304      0.1862
     96  C        -17.2400   39.7160    2.4970 C.2   304  THR304      0.2287
     97  O        -16.3250   38.9890    2.8950 O.2   304  THR304     -0.2866
     98  CB       -18.6470   39.9100    4.6080 C.3   304  THR304      0.1770
     99  OG1      -19.4910   38.8990    4.0480 O.3   304  THR304     -0.2211
    100  CG2      -19.5080   40.8780    5.4080 C.3   304  THR304      0.0375
    101  N        -19.0120   37.4100    0.5480 N.3   306  THR306     -0.1204
    102  CA       -19.7820   36.1630    0.4960 C.3   306  THR306      0.1979
    103  C        -20.6690   36.2640   -0.7400 C.2   306  THR306      0.2460
    104  O        -21.1220   37.3550   -1.1070 O.2   306  THR306     -0.2732
    105  CB       -20.6680   35.9390    1.7530 C.3   306  THR306      0.1783
    106  OG1      -21.7390   36.8920    1.7740 O.3   306  THR306     -0.2211
    107  CG2      -19.8610   36.0390    3.0210 C.3   306  THR306      0.0376
    108  N        -20.9510   35.1270   -1.3870 N.am  307  PRO307     -0.2717
    109  CA       -21.8030   35.2970   -2.5660 C.3   307  PRO307      0.1535
    110  C        -23.1690   35.9510   -2.3040 C.2   307  PRO307      0.2598
    111  O        -23.5570   36.8840   -3.0060 O.2   307  PRO307     -0.2715
    112  CB       -21.9540   33.8670   -3.0800 C.3   307  PRO307      0.0310
    113  CG       -20.6290   33.2430   -2.7500 C.3   307  PRO307      0.0237
    114  CD       -20.2140   33.8480   -1.4240 C.3   307  PRO307      0.0939
    115  N        -23.8910   35.4840   -1.2900 N.am  308  ALA308     -0.1964
    116  CA       -25.2230   36.0170   -0.9910 C.3   308  ALA308      0.1728
    117  C        -25.3310   37.3560   -0.2640 C.2   308  ALA308      0.2616
    118  O        -26.2790   38.1080   -0.4980 O.2   308  ALA308     -0.2715
    119  CB       -26.0680   34.9700   -0.2870 C.3   308  ALA308      0.0334
    120  N        -24.3940   37.6390    0.6370 N.am  309  GLY309     -0.1955
    121  CA       -24.4210   38.8660    1.4110 C.3   309  GLY309      0.1869
    122  C        -24.1470   40.1270    0.6200 C.2   309  GLY309      0.2309
    123  O        -24.7740   41.1620    0.8360 O.2   309  GLY309     -0.2863
    124  N        -12.6510   40.4080    7.9310 N.3   339  HIS339     -0.1241
    125  CA       -13.8620   40.6630    8.6850 C.3   339  HIS339      0.1621
    126  C        -13.5580   40.5350   10.1780 C.2   339  HIS339      0.2264
    127  O        -13.2830   39.4340   10.6550 O.2   339  HIS339     -0.2867
    128  CB       -14.9190   39.6410    8.2650 C.3   339  HIS339      0.0745
    129  CG       -16.2930   39.9420    8.7730 C.ar  339  HIS339      0.0817
    130  ND1      -16.5620   41.0000    9.6140 N.ar  339  HIS339     -0.2268
    131  CD2      -17.4760   39.3180    8.5640 C.ar  339  HIS339      0.1154
    132  CE1      -17.8510   41.0150    9.9010 C.ar  339  HIS339      0.1986
    133  NE2      -18.4280   40.0040    9.2760 N.ar  339  HIS339     -0.2212
    134  N        -23.9320   44.1300    9.6040 N.3   397  PHE397     -0.1227
    135  CA       -25.0270   43.1560    9.6210 C.3   397  PHE397      0.1736
    136  C        -24.5290   41.8910   10.3200 C.2   397  PHE397      0.2596
    137  O        -23.3220   41.6460   10.3540 O.2   397  PHE397     -0.2718
    138  CB       -25.4810   42.8270    8.1900 C.3   397  PHE397      0.0547
    139  CG       -25.8000   44.0430    7.3460 C.ar  397  PHE397     -0.0202
    140  CD1      -26.5660   45.0870    7.8530 C.ar  397  PHE397     -0.0042
    141  CD2      -25.3480   44.1280    6.0350 C.ar  397  PHE397     -0.0042
    142  CE1      -26.8690   46.1850    7.0750 C.ar  397  PHE397     -0.0003
    143  CE2      -25.6480   45.2280    5.2500 C.ar  397  PHE397     -0.0003
    144  CZ       -26.4070   46.2560    5.7680 C.ar  397  PHE397     -0.0000
    145  N        -25.4360   41.0930   10.8840 N.am  398  GLY398     -0.1942
    146  CA       -25.0220   39.8840   11.5780 C.3   398  GLY398      0.2014
    147  C        -25.9690   38.6920   11.6050 C.2   398  GLY398      0.2638
    148  O        -27.1710   38.8160   11.3470 O.2   398  GLY398     -0.2714
    149  N        -25.4040   37.5250   11.9230 N.am  399  PHE399     -0.1973
    150  CA       -26.1600   36.2790   12.0270 C.3   399  PHE399      0.1639
    151  C        -27.3320   36.5810   12.9520 C.2   399  PHE399      0.2290
    152  O        -27.1780   37.3300   13.9140 O.2   399  PHE399     -0.2864
    153  CB       -25.2810   35.1600   12.6250 C.3   399  PHE399      0.0560
    154  CG       -24.2620   34.5880   11.6590 C.ar  399  PHE399     -0.0200
    155  CD1      -24.2220   34.9970   10.3300 C.ar  399  PHE399     -0.0042
    156  CD2      -23.3430   33.6380   12.0840 C.ar  399  PHE399     -0.0042
    157  CE1      -23.2880   34.4660    9.4540 C.ar  399  PHE399     -0.0003
    158  CE2      -22.4100   33.1120   11.2110 C.ar  399  PHE399     -0.0003
    159  CZ       -22.3810   33.5220    9.9000 C.ar  399  PHE399     -0.0000
    160  N        -30.0670   37.8350   11.6000 N.3   401  GLY401     -0.1225
    161  CA       -30.7030   38.9220   10.8820 C.3   401  GLY401      0.1811
    162  C        -30.6240   40.2660   11.5760 C.2   401  GLY401      0.2280
    163  O        -31.4440   41.1420   11.3010 O.2   401  GLY401     -0.2866
@<TRIPOS>BOND
     1   112   113    1
     2   112   109    1
     3   111   110    2
     4   113   114    1
     5   109   110    1
     6   109   108    1
     7   110   115   am
     8   114   108    1
     9   108   103   am
    10   115   116    1
    11   104   103    2
    12   116   119    1
    13   116   117    1
    14   103   102    1
    15   118   117    2
    16   117   120   am
    17    31    32    1
    18   102   101    1
    19   102   105    1
    20   122   123    2
    21   122   121    1
    22   120   121    1
    23    24    23    1
    24    32    33    1
    25    34    33    2
    26   105   106    1
    27   105   107    1
    28    33    35   am
    29    96    97    2
    30    96    95    1
    31    23    25    1
    32    23    22    2
    33    80    79    2
    34    21    22    1
    35    21    20    1
    36    94    95    1
    37    18    17    2
    38    35    36    1
    39    76    75    1
    40    79    78    1
    41    82    83    1
    42    82    81    1
    43    95    98    1
    44    19    20    1
    45    19    16    1
    46    83    77    1
    47    36    37    1
    48    36    39    1
    49    99    98    1
    50    81    78    1
    51    17    16    1
    52    17    26   am
    53    38    37    2
    54    78    77    1
    55    84    85    1
    56    16    15    1
    57    86    87    2
    58    86    85    1
    59    75    72    1
    60    29    28    2
    61    98   100    1
    62    77    73   am
    63    28    27    1
    64    39    40    1
    65    27    26    1
    66    27    30    1
    67   143   144   ar
    68   143   141   ar
    69    85    88    1
    70    73    72    1
    71    73    74    2
    72    72    71    1
    73   144   142   ar
    74    88    89    1
    75    13    12    2
    76    15    12   am
    77   141   139   ar
    78    40    42   ar
    79    40    41   ar
    80    12    11    1
    81    60    62   ar
    82    60    59   ar
    83    62    63   ar
    84    42    44   ar
    85    67    66    2
    86    58    59    1
    87    58    55    1
    88    59    61   ar
    89    89    91   ar
    90    89    90   ar
    91    91    93   ar
    92    71    66   am
    93    63    61   ar
    94   142   140   ar
    95    53    51   ar
    96    52    51   ar
    97    41    43   ar
    98   139   140   ar
    99   139   138    1
   100    66    65    1
   101    51    50    1
   102    49    48    2
   103    44    45   ar
   104    54    55    1
   105    11    10    1
   106    11    14    1
   107   124   125    1
   108    90    92   ar
   109    69    68    1
   110    93    92   ar
   111    55    56    1
   112   138   135    1
   113    50    47    1
   114   128   125    1
   115   128   129    1
   116    43    45   ar
   117   131   129   ar
   118   131   133   ar
   119   125   126    1
   120    47    48    1
   121    47    46    1
   122    65    68    1
   123    65    64    1
   124   129   130   ar
   125    68    70    1
   126    56    57    2
   127   133   132   ar
   128   157   159   ar
   129   157   155   ar
   130   134   135    1
   131   130   132   ar
   132   135   136    1
   133   159   158   ar
   134   126   127    2
   135   136   137    2
   136   136   145   am
   137   155   154   ar
   138   161   162    1
   139   161   160    1
   140   145   146    1
   141     9     7   am
   142   158   156   ar
   143   163   162    2
   144   148   147    2
   145   146   147    1
   146   147   149   am
   147   154   156   ar
   148   154   153    1
   149     6     7    1
   150     6     5    1
   151     7     8    2
   152     5     2    1
   153   149   150    1
   154   150   153    1
   155   150   151    1
   156     4     3    2
   157   151   152    2
   158     3     2    1
   159     2     1    1
