@<TRIPOS>MOLECULE
tmp/3g11A00.pdb
 171 168 0 0 0
SMALL
GASTEIGER

@<TRIPOS>ATOM
      1  N         52.6890   38.6940   34.7320 N.3   162  GLN162     -0.1245
      2  CA        51.5370   38.5500   35.6520 C.3   162  GLN162      0.1566
      3  C         50.5470   39.7210   35.6570 C.2   162  GLN162      0.2260
      4  O         49.5010   39.6500   36.2600 O.2   162  GLN162     -0.2867
      5  CB        52.0050   38.1990   37.0670 C.3   162  GLN162      0.0367
      6  CG        52.8720   36.9480   37.0920 C.3   162  GLN162      0.0905
      7  CD        54.3480   37.3120   37.1190 C.2   162  GLN162      0.2608
      8  OE1       54.7220   38.3510   36.6130 O.2   162  GLN162     -0.2717
      9  NE2       55.1800   36.4690   37.7270 N.am  162  GLN162     -0.0878
     10  N         63.5100   29.6190   40.3900 N.3   204  ALA204     -0.1231
     11  CA        63.5830   30.9700   40.9360 C.3   204  ALA204      0.1694
     12  C         63.2140   31.0460   42.4190 C.2   204  ALA204      0.2592
     13  O         63.1870   32.1410   42.9710 O.2   204  ALA204     -0.2718
     14  CB        62.6350   31.9060   40.1390 C.3   204  ALA204      0.0304
     15  N         62.8680   29.9170   43.0420 N.am  205  ARG205     -0.1966
     16  CA        62.4780   29.9110   44.4720 C.3   205  ARG205      0.1729
     17  C         61.1920   30.7050   44.6970 C.2   205  ARG205      0.2616
     18  O         60.9610   31.2520   45.7760 O.2   205  ARG205     -0.2715
     19  CB        63.6160   30.4940   45.3400 C.3   205  ARG205      0.0348
     20  CG        64.8750   29.5790   45.4070 C.3   205  ARG205      0.0492
     21  CD        66.0520   30.2240   46.2030 C.3   205  ARG205      0.2205
     22  NE        66.4820   31.4700   45.5540 N.pl3 205  ARG205     -0.0865
     23  CZ        66.5310   32.6650   46.1330 C.cat 205  ARG205      0.5346
     24  NH1       66.2290   32.8210   47.4210 N.pl3 205  ARG205      0.1354
     25  NH2       66.8860   33.7120   45.4090 N.pl3 205  ARG205      0.1354
     26  N         60.3330   30.7610   43.6830 N.am  206  ALA206     -0.1977
     27  CA        59.1150   31.5430   43.8270 C.3   206  ALA206      0.1597
     28  C         57.8230   30.7670   44.1350 C.2   206  ALA206      0.2287
     29  O         56.8060   31.3530   44.4350 O.2   206  ALA206     -0.2864
     30  CB        58.9440   32.4340   42.6090 C.3   206  ALA206      0.0319
     31  N         55.4680   31.0650   48.9920 N.3   227  GLY227     -0.1210
     32  CA        55.5360   31.2070   47.5410 C.3   227  GLY227      0.1956
     33  C         54.1890   31.0410   46.8640 C.2   227  GLY227      0.2611
     34  O         53.2280   30.6160   47.4910 O.2   227  GLY227     -0.2717
     35  N         54.1080   31.3830   45.5800 N.am  228  PHE228     -0.1976
     36  CA        52.8320   31.2750   44.8860 C.3   228  PHE228      0.1639
     37  C         52.5200   29.8840   44.3990 C.2   228  PHE228      0.2290
     38  O         53.3860   28.9760   44.4250 O.2   228  PHE228     -0.2864
     39  CB        52.6730   32.3430   43.7860 C.3   228  PHE228      0.0560
     40  CG        53.3480   31.9910   42.4740 C.ar  228  PHE228     -0.0200
     41  CD1       52.6750   31.2850   41.5000 C.ar  228  PHE228     -0.0042
     42  CD2       54.6320   32.4690   42.1870 C.ar  228  PHE228     -0.0042
     43  CE1       53.2890   30.9940   40.2660 C.ar  228  PHE228     -0.0003
     44  CE2       55.2580   32.1830   40.9820 C.ar  228  PHE228     -0.0003
     45  CZ        54.5880   31.4550   40.0170 C.ar  228  PHE228     -0.0000
     46  N         57.7250   49.7510   38.9850 N.3   264  ASP264     -0.1239
     47  CA        58.4600   49.8240   40.2470 C.3   264  ASP264      0.1674
     48  C         59.8680   50.4100   40.0480 C.2   264  ASP264      0.2266
     49  O         60.3840   51.0540   40.9560 O.2   264  ASP264     -0.2867
     50  CB        58.6590   48.4350   40.8330 C.3   264  ASP264      0.1410
     51  CG        57.4170   47.8680   41.4800 C.2   264  ASP264      0.3668
     52  OD1       56.4500   48.5900   41.7590 O.co2 264  ASP264     -0.2456
     53  OD2       57.4380   46.6560   41.6970 O.co2 264  ASP264     -0.2456
     54  N         63.3980   46.0520   40.9910 N.3   267  HIS267     -0.1226
     55  CA        64.0790   44.8010   40.7860 C.3   267  HIS267      0.1752
     56  C         63.2260   43.9900   39.7830 C.2   267  HIS267      0.2596
     57  O         62.0230   44.1750   39.7100 O.2   267  HIS267     -0.2718
     58  CB        64.1850   44.0830   42.1160 C.3   267  HIS267      0.0759
     59  CG        64.8370   42.7430   42.0340 C.ar  267  HIS267      0.0818
     60  ND1       66.1850   42.5580   42.2730 N.ar  267  HIS267     -0.2268
     61  CD2       64.3220   41.5180   41.7650 C.ar  267  HIS267      0.1154
     62  CE1       66.4690   41.2670   42.1460 C.ar  267  HIS267      0.1986
     63  NE2       65.3500   40.6190   41.8500 N.ar  267  HIS267     -0.2212
     64  N         63.8660   43.1280   39.0090 N.am  268  MET268     -0.1965
     65  CA        63.1710   42.3300   37.9800 C.3   268  MET268      0.1736
     66  C         62.1500   41.3270   38.5220 C.2   268  MET268      0.2617
     67  O         61.1430   41.0320   37.8630 O.2   268  MET268     -0.2715
     68  CB        64.2110   41.6040   37.1180 C.3   268  MET268      0.0427
     69  CG        64.9620   42.5470   36.2110 C.3   268  MET268      0.0599
     70  SD        63.8470   43.5750   35.1570 S.3   268  MET268     -0.1393
     71  CE        63.2170   42.1540   33.9890 C.3   268  MET268      0.0692
     72  N         62.3990   40.7850   39.7100 N.am  269  THR269     -0.1937
     73  CA        61.4810   39.7730   40.2520 C.3   269  THR269      0.2028
     74  C         60.9760   40.0200   41.6670 C.2   269  THR269      0.2643
     75  O         60.4840   39.0990   42.3170 O.2   269  THR269     -0.2714
     76  CB        62.0480   38.3670   40.1420 C.3   269  THR269      0.1808
     77  OG1       63.1940   38.2300   41.0120 O.3   269  THR269     -0.2208
     78  CG2       62.4340   38.0620   38.7150 C.3   269  THR269      0.0379
     79  N         61.0660   41.2490   42.1460 N.am  270  SER270     -0.1936
     80  CA        60.5530   41.5330   43.4760 C.3   270  SER270      0.2040
     81  C         60.1450   43.0080   43.5580 C.2   270  SER270      0.2485
     82  O         60.7900   43.8570   42.9820 O.2   270  SER270     -0.2729
     83  CB        61.6050   41.1970   44.5540 C.3   270  SER270      0.2129
     84  OG        61.0700   41.4220   45.8560 O.3   270  SER270     -0.2179
     85  N         59.0580   43.3250   44.2850 N.am  271  PRO271     -0.2726
     86  CA        58.6110   44.7260   44.4400 C.3   271  PRO271      0.1402
     87  C         59.3930   45.3520   45.5990 C.2   271  PRO271      0.2269
     88  O         59.9950   44.6410   46.3870 O.2   271  PRO271     -0.2865
     89  CB        57.1480   44.5710   44.8610 C.3   271  PRO271      0.0296
     90  CG        57.0990   43.2130   45.5580 C.3   271  PRO271      0.0237
     91  CD        58.1850   42.3700   44.9990 C.3   271  PRO271      0.0939
     92  N         46.3870   41.5010   44.2940 N.3   302  HIS302     -0.1241
     93  CA        47.1840   40.6330   43.4630 C.3   302  HIS302      0.1621
     94  C         47.4930   39.4140   44.3680 C.2   302  HIS302      0.2264
     95  O         47.4420   38.2750   43.9280 O.2   302  HIS302     -0.2867
     96  CB        48.4790   41.3540   42.9770 C.3   302  HIS302      0.0745
     97  CG        49.2690   40.5520   41.9930 C.ar  302  HIS302      0.0817
     98  ND1       48.6970   39.9780   40.8730 N.ar  302  HIS302     -0.2268
     99  CD2       50.5790   40.2030   41.9680 C.ar  302  HIS302      0.1154
    100  CE1       49.6250   39.3200   40.1990 C.ar  302  HIS302      0.1986
    101  NE2       50.7690   39.4180   40.8550 N.ar  302  HIS302     -0.2212
    102  N         49.7290   37.1270   45.8520 N.3   304  THR304     -0.1218
    103  CA        50.1810   35.8440   45.3470 C.3   304  THR304      0.1862
    104  C         50.6170   34.7740   46.3260 C.2   304  THR304      0.2287
    105  O         50.8010   33.6200   45.9160 O.2   304  THR304     -0.2866
    106  CB        51.3150   36.0520   44.3370 C.3   304  THR304      0.1770
    107  OG1       52.4850   36.5010   45.0470 O.3   304  THR304     -0.2211
    108  CG2       50.9050   37.0890   43.3160 C.3   304  THR304      0.0375
    109  N         53.5110   35.1490   48.2590 N.3   306  THR306     -0.1204
    110  CA        54.9690   35.1920   48.4210 C.3   306  THR306      0.1979
    111  C         55.2470   36.0440   49.6730 C.2   306  THR306      0.2460
    112  O         54.4820   36.9890   50.0160 O.2   306  THR306     -0.2732
    113  CB        55.7440   35.7720   47.2140 C.3   306  THR306      0.1783
    114  OG1       55.4130   37.1520   47.0560 O.3   306  THR306     -0.2211
    115  CG2       55.4430   35.0190   45.9300 C.3   306  THR306      0.0376
    116  N         56.3680   35.7500   50.3560 N.am  307  PRO307     -0.2717
    117  CA        56.6840   36.5660   51.5420 C.3   307  PRO307      0.1535
    118  C         56.7870   38.0620   51.2050 C.2   307  PRO307      0.2598
    119  O         56.1040   38.8990   51.8090 O.2   307  PRO307     -0.2715
    120  CB        58.0360   35.9890   52.0050 C.3   307  PRO307      0.0310
    121  CG        57.9300   34.5170   51.6290 C.3   307  PRO307      0.0237
    122  CD        57.1890   34.5190   50.2790 C.3   307  PRO307      0.0939
    123  N         57.6350   38.4350   50.2450 N.am  308  ALA308     -0.1964
    124  CA        57.7900   39.8690   49.9660 C.3   308  ALA308      0.1728
    125  C         56.6580   40.5400   49.2090 C.2   308  ALA308      0.2616
    126  O         56.4160   41.7320   49.4030 O.2   308  ALA308     -0.2715
    127  CB        59.1220   40.1520   49.2340 C.3   308  ALA308      0.0334
    128  N         56.0270   39.8280   48.2750 N.am  309  GLY309     -0.1955
    129  CA        54.9770   40.4780   47.4920 C.3   309  GLY309      0.1869
    130  C         53.7610   40.8600   48.3100 C.2   309  GLY309      0.2309
    131  O         53.2300   41.9410   48.1570 O.2   309  GLY309     -0.2863
    132  N         47.6280   31.0550   41.0190 N.3   339  HIS339     -0.1241
    133  CA        47.9990   32.2350   40.2190 C.3   339  HIS339      0.1621
    134  C         47.9640   31.9600   38.7150 C.2   339  HIS339      0.2264
    135  O         48.8350   31.2510   38.1770 O.2   339  HIS339     -0.2867
    136  CB        49.4470   32.6090   40.6140 C.3   339  HIS339      0.0745
    137  CG        49.8740   33.9610   40.1390 C.ar  339  HIS339      0.0817
    138  ND1       49.2230   34.6370   39.1280 N.ar  339  HIS339     -0.2268
    139  CD2       50.8780   34.7720   40.5480 C.ar  339  HIS339      0.1154
    140  CE1       49.8090   35.8040   38.9320 C.ar  339  HIS339      0.1986
    141  NE2       50.8140   35.9120   39.7850 N.ar  339  HIS339     -0.2212
    142  N         50.1940   42.6590   39.3960 N.3   397  PHE397     -0.1227
    143  CA        51.5800   43.1860   39.3100 C.3   397  PHE397      0.1736
    144  C         52.4240   42.1310   38.6080 C.2   397  PHE397      0.2596
    145  O         52.0370   40.9740   38.5940 O.2   397  PHE397     -0.2718
    146  CB        52.1300   43.4940   40.7210 C.3   397  PHE397      0.0547
    147  CG        51.1600   44.2800   41.5880 C.ar  397  PHE397     -0.0202
    148  CD1       50.6210   45.4780   41.1450 C.ar  397  PHE397     -0.0042
    149  CD2       50.8440   43.8440   42.8650 C.ar  397  PHE397     -0.0042
    150  CE1       49.7830   46.2260   41.9390 C.ar  397  PHE397     -0.0003
    151  CE2       49.9980   44.5740   43.6720 C.ar  397  PHE397     -0.0003
    152  CZ        49.4650   45.7710   43.2140 C.ar  397  PHE397     -0.0000
    153  N         53.5640   42.4950   38.0110 N.am  398  GLY398     -0.1942
    154  CA        54.3170   41.4640   37.3140 C.3   398  GLY398      0.2014
    155  C         55.8320   41.5990   37.3370 C.2   398  GLY398      0.2638
    156  O         56.3680   42.6560   37.6980 O.2   398  GLY398     -0.2714
    157  N         56.5170   40.5370   36.9360 N.am  399  PHE399     -0.1973
    158  CA        58.0030   40.5740   36.8690 C.3   399  PHE399      0.1639
    159  C         58.3200   41.7470   35.9540 C.2   399  PHE399      0.2290
    160  O         57.5470   42.0580   35.0240 O.2   399  PHE399     -0.2864
    161  CB        58.5560   39.2890   36.2740 C.3   399  PHE399      0.0560
    162  CG        58.6010   38.1420   37.2370 C.ar  399  PHE399     -0.0200
    163  CD1       58.2130   38.3140   38.5560 C.ar  399  PHE399     -0.0042
    164  CD2       59.0570   36.8910   36.8320 C.ar  399  PHE399     -0.0042
    165  CE1       58.2720   37.2560   39.4560 C.ar  399  PHE399     -0.0003
    166  CE2       59.1530   35.8210   37.7340 C.ar  399  PHE399     -0.0003
    167  CZ        58.7410   36.0060   39.0470 C.ar  399  PHE399     -0.0000
    168  N         58.5870   44.5650   37.3270 N.3   401  GLY401     -0.1225
    169  CA        58.0420   45.7000   38.0710 C.3   401  GLY401      0.1811
    170  C         56.8820   46.4300   37.3940 C.2   401  GLY401      0.2280
    171  O         56.6120   47.5910   37.7030 O.2   401  GLY401     -0.2866
@<TRIPOS>BOND
     1    71    70    1
     2     1     2    1
     3   160   159    2
     4    70    69    1
     5     2     3    1
     6     2     5    1
     7     3     4    2
     8   159   158    1
     9    69    68    1
    10   161   158    1
    11   161   162    1
    12     8     7    2
    13   164   162   ar
    14   164   166   ar
    15   158   157    1
    16   157   155   am
    17     5     6    1
    18     6     7    1
    19    68    65    1
    20     7     9   am
    21   162   163   ar
    22   154   155    1
    23   154   153    1
    24   168   169    1
    25   155   156    2
    26   170   171    2
    27   170   169    1
    28   166   167   ar
    29    67    66    2
    30    65    66    1
    31    65    64    1
    32   153   144   am
    33   135   134    2
    34    66    72   am
    35   163   165   ar
    36   145   144    2
    37   144   143    1
    38   134   133    1
    39    78    76    1
    40   140   138   ar
    41   140   141   ar
    42    46    47    1
    43    64    56   am
    44   167   165   ar
    45   138   137   ar
    46   143   142    1
    47   143   146    1
    48    72    73    1
    49    57    56    2
    50    56    55    1
    51   141   139   ar
    52    45    43   ar
    53    45    44   ar
    54    48    47    1
    55    48    49    2
    56    14    11    1
    57   137   139   ar
    58   137   136    1
    59    76    73    1
    60    76    77    1
    61   100   101   ar
    62   100    98   ar
    63   133   136    1
    64   133   132    1
    65    47    50    1
    66    73    74    1
    67    43    41   ar
    68    10    11    1
    69   146   147    1
    70    55    54    1
    71    55    58    1
    72    50    51    1
    73   101    99   ar
    74    98    97   ar
    75    11    12    1
    76    44    42   ar
    77   148   147   ar
    78   148   150   ar
    79    51    53   ar
    80    51    52   ar
    81    41    40   ar
    82   147   149   ar
    83    74    79   am
    84    74    75    2
    85    61    63   ar
    86    61    59   ar
    87    63    62   ar
    88   150   152   ar
    89    99    97   ar
    90    97    96    1
    91    59    58    1
    92    59    60   ar
    93    79    80    1
    94    62    60   ar
    95    42    40   ar
    96    12    13    2
    97    12    15   am
    98    40    39    1
    99    30    27    1
   100   149   151   ar
   101    96    93    1
   102    82    81    2
   103    15    16    1
   104   152   151   ar
   105   108   106    1
   106    93    92    1
   107    93    94    1
   108    80    81    1
   109    80    83    1
   110    81    85   am
   111    26    27    1
   112    26    17   am
   113    39    36    1
   114    27    28    1
   115    95    94    2
   116    28    29    2
   117    85    86    1
   118    85    91    1
   119   106   107    1
   120   106   103    1
   121    37    38    2
   122    37    36    1
   123    86    89    1
   124    86    87    1
   125    16    17    1
   126    16    19    1
   127    83    84    1
   128    17    18    2
   129    89    90    1
   130    36    35    1
   131    91    90    1
   132    19    20    1
   133   103   102    1
   134   103   104    1
   135    20    21    1
   136    25    23    1
   137    22    23    2
   138    22    21    1
   139    35    33   am
   140    87    88    2
   141   105   104    2
   142   115   113    1
   143    23    24    1
   144    33    34    2
   145    33    32    1
   146   114   113    1
   147   113   110    1
   148   129   128    1
   149   129   130    1
   150    32    31    1
   151   131   130    2
   152   109   110    1
   153   128   125   am
   154   110   111    1
   155   125   126    2
   156   125   124    1
   157   127   124    1
   158   111   112    2
   159   111   116   am
   160   124   123    1
   161   123   118   am
   162   122   116    1
   163   122   121    1
   164   116   117    1
   165   118   117    1
   166   118   119    2
   167   117   120    1
   168   121   120    1
