@<TRIPOS>MOLECULE
tmp/3g15A01.pdb
 173 171 0 0 0
SMALL
GASTEIGER

@<TRIPOS>ATOM
      1  N        -11.2330   -5.2440    1.5390 N.3   203  ASP203     -0.1239
      2  CA       -11.8010   -6.4490    2.1290 C.3   203  ASP203      0.1674
      3  C        -13.3330   -6.3260    2.2690 C.2   203  ASP203      0.2266
      4  O        -13.9430   -6.6200    3.2900 O.2   203  ASP203     -0.2867
      5  CB       -11.0800   -6.7550    3.4580 C.3   203  ASP203      0.1410
      6  CG       -11.4360   -8.1010    4.0570 C.2   203  ASP203      0.3668
      7  OD1      -11.9140   -9.0110    3.3310 O.co2 203  ASP203     -0.2456
      8  OD2      -11.2270   -8.2430    5.3040 O.co2 203  ASP203     -0.2456
      9  N        -16.1730   -7.8090    2.0050 N.3   205  GLN205     -0.1245
     10  CA       -16.8670   -9.0990    2.0300 C.3   205  GLN205      0.1566
     11  C        -18.0790   -8.9540    2.9430 C.2   205  GLN205      0.2260
     12  O        -18.1590   -8.0330    3.7430 O.2   205  GLN205     -0.2867
     13  CB       -15.9430  -10.2350    2.5000 C.3   205  GLN205      0.0367
     14  CG       -15.4410  -10.1140    3.9420 C.3   205  GLN205      0.0905
     15  CD       -15.5530  -11.4190    4.6830 C.2   205  GLN205      0.2608
     16  OE1      -16.6570  -12.0030    4.8260 O.2   205  GLN205     -0.2717
     17  NE2      -14.4190  -11.9050    5.1600 N.am  205  GLN205     -0.0878
     18  N         -7.3010   -3.6920    6.3710 N.3   230  TYR230     -0.1241
     19  CA        -6.5070   -3.7770    5.1180 C.3   230  TYR230      0.1605
     20  C         -6.5470   -2.5230    4.2460 C.2   230  TYR230      0.2264
     21  O         -5.9520   -2.4990    3.1730 O.2   230  TYR230     -0.2867
     22  CB        -6.9800   -4.9710    4.2870 C.3   230  TYR230      0.0534
     23  CG        -6.8310   -6.2900    4.9940 C.ar  230  TYR230     -0.0201
     24  CD1       -5.5950   -6.8870    5.1460 C.ar  230  TYR230     -0.0009
     25  CD2       -7.9390   -6.9560    5.4960 C.ar  230  TYR230     -0.0009
     26  CE1       -5.4660   -8.0920    5.8000 C.ar  230  TYR230      0.0417
     27  CE2       -7.8030   -8.1440    6.1610 C.ar  230  TYR230      0.0417
     28  CZ        -6.5770   -8.7180    6.2960 C.ar  230  TYR230      0.1957
     29  OH        -6.4320   -9.9220    6.9370 O.3   230  TYR230     -0.2866
     30  N        -15.8840  -12.1370   -3.7790 N.3   246  GLU246     -0.1245
     31  CA       -16.5240  -12.5040   -2.4830 C.3   246  GLU246      0.1567
     32  C        -17.9270  -13.0750   -2.6060 C.2   246  GLU246      0.2260
     33  O        -18.4180  -13.7920   -1.7330 O.2   246  GLU246     -0.2867
     34  CB       -16.4710  -11.3370   -1.4900 C.3   246  GLU246      0.0388
     35  CG       -15.1100  -11.1960   -0.8460 C.3   246  GLU246      0.1160
     36  CD       -14.6920  -12.4100    0.0370 C.2   246  GLU246      0.3649
     37  OE1      -15.5140  -13.3020    0.3370 O.co2 246  GLU246     -0.2457
     38  OE2      -13.5080  -12.4780    0.4040 O.co2 246  GLU246     -0.2457
     39  N        -17.8680  -18.2140    4.1840 N.3   251  TYR251     -0.1241
     40  CA       -16.9680  -18.5330    5.3080 C.3   251  TYR251      0.1605
     41  C        -17.7210  -18.9970    6.5490 C.2   251  TYR251      0.2264
     42  O        -17.1530  -19.0660    7.6540 O.2   251  TYR251     -0.2867
     43  CB       -16.1380  -17.3070    5.6740 C.3   251  TYR251      0.0534
     44  CG       -15.3260  -16.7290    4.5390 C.ar  251  TYR251     -0.0201
     45  CD1      -14.2330  -17.4060    4.0120 C.ar  251  TYR251     -0.0009
     46  CD2      -15.6720  -15.5150    3.9760 C.ar  251  TYR251     -0.0009
     47  CE1      -13.5240  -16.8810    2.9710 C.ar  251  TYR251      0.0417
     48  CE2      -14.9500  -14.9770    2.9510 C.ar  251  TYR251      0.0417
     49  CZ       -13.8940  -15.6560    2.4460 C.ar  251  TYR251      0.1957
     50  OH       -13.2010  -15.0640    1.4140 O.3   251  TYR251     -0.2866
     51  N        -19.5430  -21.9820    6.6060 N.3   253  TYR253     -0.1227
     52  CA       -19.7290  -23.4380    6.5110 C.3   253  TYR253      0.1736
     53  C        -19.1300  -24.1310    7.7610 C.2   253  TYR253      0.2595
     54  O        -18.0310  -23.8150    8.2010 O.2   253  TYR253     -0.2718
     55  CB       -19.1160  -23.9720    5.1930 C.3   253  TYR253      0.0548
     56  CG       -19.1020  -25.4610    5.0060 C.ar  253  TYR253     -0.0200
     57  CD1      -20.2380  -26.2390    5.2350 C.ar  253  TYR253     -0.0009
     58  CD2      -17.9560  -26.0980    4.5590 C.ar  253  TYR253     -0.0009
     59  CE1      -20.2100  -27.6150    5.0570 C.ar  253  TYR253      0.0417
     60  CE2      -17.9180  -27.4740    4.3680 C.ar  253  TYR253      0.0417
     61  CZ       -19.0510  -28.2280    4.6210 C.ar  253  TYR253      0.1957
     62  OH       -19.0220  -29.5970    4.4320 O.3   253  TYR253     -0.2866
     63  N        -19.8920  -25.0630    8.3170 N.am  254  GLU254     -0.1979
     64  CA       -19.6700  -25.5540    9.6950 C.3   254  GLU254      0.1602
     65  C        -18.7060  -26.7160    9.8100 C.2   254  GLU254      0.2287
     66  O        -18.2620  -27.0750   10.9030 O.2   254  GLU254     -0.2864
     67  CB       -21.0140  -25.9250   10.3570 C.3   254  GLU254      0.0415
     68  CG       -21.9050  -24.7110   10.7190 C.3   254  GLU254      0.1163
     69  CD       -21.3410  -23.8400   11.8210 C.2   254  GLU254      0.3649
     70  OE1      -21.1860  -24.2060   12.9760 O.co2 254  GLU254     -0.2457
     71  OE2      -20.9820  -22.7340   11.4040 O.co2 254  GLU254     -0.2457
     72  N        -14.3380  -25.3770    6.3370 N.3   258  PHE258     -0.1241
     73  CA       -15.0100  -24.1980    6.9680 C.3   258  PHE258      0.1605
     74  C        -15.2920  -22.9920    6.0380 C.2   258  PHE258      0.2264
     75  O        -15.6010  -21.8650    6.4700 O.2   258  PHE258     -0.2867
     76  CB       -14.3020  -23.7720    8.2700 C.3   258  PHE258      0.0534
     77  CG       -14.1010  -24.9300    9.2130 C.ar  258  PHE258     -0.0203
     78  CD1      -15.1860  -25.4940    9.8640 C.ar  258  PHE258     -0.0042
     79  CD2      -12.8420  -25.5130    9.3790 C.ar  258  PHE258     -0.0042
     80  CE1      -15.0120  -26.5800   10.7080 C.ar  258  PHE258     -0.0003
     81  CE2      -12.6580  -26.6160   10.2290 C.ar  258  PHE258     -0.0003
     82  CZ       -13.7450  -27.1410   10.8910 C.ar  258  PHE258     -0.0000
     83  N         -4.9380  -13.2160   -2.0410 N.3   317  TRP317     -0.1241
     84  CA        -5.5520  -13.9410   -0.9030 C.3   317  TRP317      0.1605
     85  C         -5.1960  -15.4100   -0.8770 C.2   317  TRP317      0.2264
     86  O         -5.1390  -16.0510    0.1820 O.2   317  TRP317     -0.2867
     87  CB        -7.0590  -13.6900   -0.8670 C.3   317  TRP317      0.0550
     88  CG        -7.4370  -12.2960   -0.5980 C.ar  317  TRP317      0.0003
     89  CD1       -8.3780  -11.5950   -1.2720 C.ar  317  TRP317      0.0946
     90  CD2       -6.9890  -11.4280    0.4700 C.ar  317  TRP317      0.0152
     91  NE1       -8.5380  -10.3620   -0.7410 N.ar  317  TRP317     -0.2442
     92  CE2       -7.6920  -10.2180    0.3300 C.ar  317  TRP317      0.0810
     93  CE3       -6.0380  -11.5490    1.5040 C.ar  317  TRP317      0.0012
     94  CZ2       -7.5120   -9.1370    1.1890 C.ar  317  TRP317      0.0191
     95  CZ3       -5.8440  -10.4680    2.3500 C.ar  317  TRP317      0.0001
     96  CH2       -6.5670   -9.2760    2.1850 C.ar  317  TRP317      0.0015
     97  N         -1.7580  -15.1690    0.7360 N.3   320  TRP320     -0.1241
     98  CA        -2.1170  -14.9050    2.1540 C.3   320  TRP320      0.1605
     99  C         -2.5070  -16.1840    2.8960 C.2   320  TRP320      0.2264
    100  O         -2.0320  -16.4360    4.0050 O.2   320  TRP320     -0.2867
    101  CB        -3.2280  -13.8350    2.2400 C.3   320  TRP320      0.0550
    102  CG        -3.8340  -13.5840    3.6170 C.ar  320  TRP320      0.0003
    103  CD1       -3.4760  -12.6130    4.5010 C.ar  320  TRP320      0.0946
    104  CD2       -4.9020  -14.3170    4.2410 C.ar  320  TRP320      0.0152
    105  NE1       -4.2630  -12.6780    5.6270 N.ar  320  TRP320     -0.2442
    106  CE2       -5.1500  -13.7120    5.4900 C.ar  320  TRP320      0.0810
    107  CE3       -5.6840  -15.4030    3.8570 C.ar  320  TRP320      0.0012
    108  CZ2       -6.1350  -14.1850    6.3710 C.ar  320  TRP320      0.0191
    109  CZ3       -6.6690  -15.8640    4.7330 C.ar  320  TRP320      0.0001
    110  CH2       -6.8660  -15.2660    5.9720 C.ar  320  TRP320      0.0015
    111  N         -5.7330  -20.9060   14.0090 N.3   330  ILE330     -0.1231
    112  CA        -7.1940  -20.8740   13.8300 C.3   330  ILE330      0.1692
    113  C         -7.6810  -22.1080   13.0600 C.2   330  ILE330      0.2592
    114  O         -6.9920  -22.6290   12.1790 O.2   330  ILE330     -0.2718
    115  CB        -7.6390  -19.5440   13.1010 C.3   330  ILE330      0.0266
    116  CG1       -7.3420  -18.3490   14.0120 C.3   330  ILE330      0.0019
    117  CG2       -9.1130  -19.6180   12.6360 C.3   330  ILE330      0.0020
    118  CD1       -7.3610  -17.0260   13.3050 C.3   330  ILE330      0.0001
    119  N         -8.8510  -22.5830   13.4460 N.am  331  GLU331     -0.1966
    120  CA        -9.4720  -23.7590   12.8320 C.3   331  GLU331      0.1733
    121  C        -10.1520  -23.3450   11.5220 C.2   331  GLU331      0.2616
    122  O        -11.3090  -22.9930   11.4840 O.2   331  GLU331     -0.2715
    123  CB       -10.4730  -24.4320   13.7730 C.3   331  GLU331      0.0429
    124  CG       -10.8410  -25.8330   13.3200 C.3   331  GLU331      0.1163
    125  CD       -11.8430  -26.5290   14.2150 C.2   331  GLU331      0.3649
    126  OE1      -12.3960  -25.8800   15.1350 O.co2 331  GLU331     -0.2457
    127  OE2      -12.0830  -27.7260   13.9640 O.co2 331  GLU331     -0.2457
    128  N         -9.3550  -23.3890   10.4650 N.am  332  PHE332     -0.1974
    129  CA        -9.8260  -23.0670    9.1110 C.3   332  PHE332      0.1639
    130  C         -8.9380  -23.8120    8.1200 C.2   332  PHE332      0.2290
    131  O         -7.7700  -23.9960    8.3650 O.2   332  PHE332     -0.2864
    132  CB        -9.7750  -21.5400    8.9080 C.3   332  PHE332      0.0560
    133  CG       -10.3760  -21.0590    7.5900 C.ar  332  PHE332     -0.0200
    134  CD1      -11.7410  -20.9890    7.4270 C.ar  332  PHE332     -0.0042
    135  CD2       -9.5440  -20.6960    6.5300 C.ar  332  PHE332     -0.0042
    136  CE1      -12.2820  -20.5230    6.2210 C.ar  332  PHE332     -0.0003
    137  CE2      -10.0970  -20.2410    5.3130 C.ar  332  PHE332     -0.0003
    138  CZ       -11.4500  -20.1660    5.1950 C.ar  332  PHE332     -0.0000
    139  N         -6.9380  -23.4860    5.5390 N.3   334  TYR334     -0.1241
    140  CA        -6.2060  -22.4080    4.8350 C.3   334  TYR334      0.1605
    141  C         -5.6220  -22.8660    3.5110 C.2   334  TYR334      0.2264
    142  O         -5.6450  -22.1390    2.5170 O.2   334  TYR334     -0.2867
    143  CB        -5.1020  -21.8270    5.6950 C.3   334  TYR334      0.0534
    144  CG        -5.5960  -20.9660    6.8280 C.ar  334  TYR334     -0.0201
    145  CD1       -6.0990  -19.7150    6.5790 C.ar  334  TYR334     -0.0009
    146  CD2       -5.5310  -21.4080    8.1560 C.ar  334  TYR334     -0.0009
    147  CE1       -6.5290  -18.8930    7.5940 C.ar  334  TYR334      0.0417
    148  CE2       -5.9750  -20.5900    9.1950 C.ar  334  TYR334      0.0417
    149  CZ        -6.4680  -19.3270    8.8990 C.ar  334  TYR334      0.1957
    150  OH        -6.9360  -18.4860    9.8860 O.3   334  TYR334     -0.2866
    151  N         -8.3650  -23.4330    1.0200 N.3   337  TYR337     -0.1241
    152  CA        -8.7990  -22.0840    0.5880 C.3   337  TYR337      0.1605
    153  C         -7.8240  -21.4840   -0.4250 C.2   337  TYR337      0.2264
    154  O         -8.2170  -20.9320   -1.4480 O.2   337  TYR337     -0.2867
    155  CB        -8.9950  -21.1420    1.7710 C.3   337  TYR337      0.0534
    156  CG        -9.5210  -19.7910    1.3820 C.ar  337  TYR337     -0.0201
    157  CD1      -10.8510  -19.6140    1.0770 C.ar  337  TYR337     -0.0009
    158  CD2       -8.6780  -18.6930    1.3090 C.ar  337  TYR337     -0.0009
    159  CE1      -11.3570  -18.3650    0.7170 C.ar  337  TYR337      0.0417
    160  CE2       -9.1580  -17.4290    0.9490 C.ar  337  TYR337      0.0417
    161  CZ       -10.5230  -17.2730    0.6370 C.ar  337  TYR337      0.1957
    162  OH       -11.0330  -16.0370    0.2660 O.3   337  TYR337     -0.2866
    163  N         -8.6550  -20.4310   -4.3140 N.3   341  ARG341     -0.1245
    164  CA        -8.3880  -19.1170   -4.8850 C.3   341  ARG341      0.1563
    165  C         -7.6070  -19.2470   -6.1770 C.2   341  ARG341      0.2260
    166  O         -7.9110  -18.5690   -7.1560 O.2   341  ARG341     -0.2867
    167  CB        -7.6740  -18.1580   -3.9260 C.3   341  ARG341      0.0307
    168  CG        -8.5080  -17.6770   -2.7380 C.3   341  ARG341      0.0489
    169  CD        -9.9620  -17.3090   -3.0680 C.3   341  ARG341      0.2205
    170  NE       -10.1300  -16.1140   -3.8870 N.pl3 341  ARG341     -0.0865
    171  CZ       -10.3610  -14.8870   -3.4390 C.cat 341  ARG341      0.5346
    172  NH1      -10.3960  -14.6210   -2.1170 N.pl3 341  ARG341      0.1354
    173  NH2      -10.5120  -13.9120   -4.3100 N.pl3 341  ARG341      0.1354
@<TRIPOS>BOND
     1   166   165    2
     2   165   164    1
     3   164   163    1
     4   164   167    1
     5   173   171    1
     6   167   168    1
     7   170   171    2
     8   170   169    1
     9    30    31    1
    10   171   172    1
    11   169   168    1
    12    32    31    1
    13    32    33    2
    14    31    34    1
    15    83    84    1
    16    34    35    1
    17   154   153    2
    18    89    91   ar
    19    89    88   ar
    20    84    85    1
    21    84    87    1
    22    85    86    2
    23    87    88    1
    24    35    36    1
    25    91    92   ar
    26    88    90   ar
    27   153   152    1
    28    36    37   ar
    29    36    38   ar
    30   162   161    1
    31    92    90   ar
    32    92    94   ar
    33    90    93   ar
    34   152   151    1
    35   152   155    1
    36   161   159   ar
    37   161   160   ar
    38   159   157   ar
    39    97    98    1
    40   160   158   ar
    41   157   156   ar
    42    94    96   ar
    43   158   156   ar
    44   156   155    1
    45    50    49    1
    46    93    95   ar
    47     1     2    1
    48     9    10    1
    49    10    13    1
    50    10    11    1
    51     2     3    1
    52     2     5    1
    53    98   101    1
    54    98    99    1
    55    96    95   ar
    56   101   102    1
    57     3     4    2
    58    49    48   ar
    59    49    47   ar
    60    13    14    1
    61   142   141    2
    62    99   100    2
    63    11    12    2
    64    48    46   ar
    65    47    45   ar
    66    21    20    2
    67     7     6   ar
    68     5     6    1
    69   141   140    1
    70   102   104   ar
    71   102   103   ar
    72   107   104   ar
    73   107   109   ar
    74    14    15    1
    75    46    44   ar
    76    45    44   ar
    77     6     8   ar
    78    39    40    1
    79   104   106   ar
    80    20    19    1
    81    22    23    1
    82    22    19    1
    83    60    58   ar
    84    60    61   ar
    85    62    61    1
    86   103   105   ar
    87    44    43    1
    88    58    56   ar
    89    61    59   ar
    90    15    16    2
    91    15    17   am
    92   109   110   ar
    93   140   139    1
    94   140   143    1
    95    23    24   ar
    96    23    25   ar
    97    56    55    1
    98    56    57   ar
    99    59    57   ar
   100    19    18    1
   101    24    26   ar
   102    55    52    1
   103   138   137   ar
   104   138   136   ar
   105    40    43    1
   106    40    41    1
   107   137   135   ar
   108   106   105   ar
   109   106   108   ar
   110    25    27   ar
   111   143   144    1
   112    26    28   ar
   113   110   108   ar
   114    74    75    2
   115    74    73    1
   116    27    28   ar
   117   136   134   ar
   118    28    29    1
   119    72    73    1
   120    52    51    1
   121    52    53    1
   122   135   133   ar
   123    41    42    2
   124   145   144   ar
   125   145   147   ar
   126   144   146   ar
   127    73    76    1
   128   134   133   ar
   129   133   132    1
   130   147   149   ar
   131    53    54    2
   132    53    63   am
   133   130   131    2
   134   130   129    1
   135   146   148   ar
   136    76    77    1
   137    63    64    1
   138   149   148   ar
   139   149   150    1
   140   132   129    1
   141   129   128    1
   142    77    79   ar
   143    77    78   ar
   144    79    81   ar
   145    64    65    1
   146    64    67    1
   147    65    66    2
   148    78    80   ar
   149    81    82   ar
   150    67    68    1
   151   128   121   am
   152    80    82   ar
   153    68    69    1
   154    71    69   ar
   155   122   121    2
   156   121   120    1
   157    69    70   ar
   158   114   113    2
   159   117   115    1
   160   120   119    1
   161   120   123    1
   162   113   119   am
   163   113   112    1
   164   115   112    1
   165   115   116    1
   166   118   116    1
   167   124   123    1
   168   124   125    1
   169   112   111    1
   170   127   125   ar
   171   125   126   ar
