@<TRIPOS>MOLECULE
tmp/3g15A00.pdb
 160 149 0 0 0
SMALL
GASTEIGER

@<TRIPOS>ATOM
      1  N        -18.5460  -12.2110   22.2070 N.3    36  ILE36      -0.1231
      2  CA       -18.9870  -12.2420   20.8030 C.3    36  ILE36       0.1692
      3  C        -18.1000  -13.2110   20.0400 C.2    36  ILE36       0.2591
      4  O        -18.5770  -14.0460   19.2750 O.2    36  ILE36      -0.2718
      5  CB       -18.9370  -10.8420   20.1570 C.3    36  ILE36       0.0266
      6  CG1      -19.9090   -9.9080   20.8740 C.3    36  ILE36       0.0019
      7  CG2      -19.2540  -10.9130   18.6710 C.3    36  ILE36       0.0020
      8  CD1      -19.8200   -8.4710   20.4180 C.3    36  ILE36       0.0001
      9  N        -16.8010  -13.0950   20.2900 N.am   37  ARG37      -0.1980
     10  CA       -15.7820  -14.0160   19.7200 C.3    37  ARG37       0.1597
     11  C        -14.5840  -14.2100   20.6400 C.2    37  ARG37       0.2287
     12  O        -13.9730  -13.2540   21.1140 O.2    37  ARG37      -0.2864
     13  CB       -15.2930  -13.5040   18.3580 C.3    37  ARG37       0.0334
     14  CG       -14.3800  -14.4880   17.6160 C.3    37  ARG37       0.0492
     15  CD       -14.1160  -14.0310   16.2090 C.3    37  ARG37       0.2205
     16  NE       -13.5380  -12.6910   16.1830 N.pl3  37  ARG37      -0.0865
     17  CZ       -13.6120  -11.8430   15.1560 C.cat  37  ARG37       0.5346
     18  NH1      -14.2590  -12.1690   14.0340 N.pl3  37  ARG37       0.1354
     19  NH2      -13.0390  -10.6490   15.2570 N.pl3  37  ARG37       0.1354
     20  N         -7.8100  -11.2350   18.4200 N.3    42  ASN42      -0.1240
     21  CA        -8.9650  -10.4440   17.9340 C.3    42  ASN42       0.1653
     22  C        -10.3070  -10.8680   18.5560 C.2    42  ASN42       0.2266
     23  O        -11.3230  -11.0540   17.8750 O.2    42  ASN42      -0.2867
     24  CB        -9.0380  -10.5080   16.4140 C.3    42  ASN42       0.1155
     25  CG        -7.7110  -10.1900   15.7690 C.2    42  ASN42       0.2627
     26  OD1       -7.2180  -10.9440   14.9220 O.2    42  ASN42      -0.2716
     27  ND2       -7.1030   -9.0800   16.1870 N.am   42  ASN42      -0.0877
     28  N        -13.6820  -10.4620   20.6490 N.3    44  LEU44      -0.1245
     29  CA       -14.7180   -9.4390   20.7190 C.3    44  LEU44       0.1561
     30  C        -15.7060   -9.7280   21.8350 C.2    44  LEU44       0.2260
     31  O        -16.1100  -10.8770   22.0620 O.2    44  LEU44      -0.2867
     32  CB       -15.4600   -9.3360   19.3970 C.3    44  LEU44       0.0270
     33  CG       -14.6050   -9.0580   18.1660 C.3    44  LEU44       0.0019
     34  CD1      -15.4310   -9.3270   16.9490 C.3    44  LEU44       0.0001
     35  CD2      -14.0670   -7.6360   18.1640 C.3    44  LEU44       0.0001
     36  N        -18.6520   -2.2610   22.2500 N.3    64  LEU64      -0.1245
     37  CA       -17.8760   -3.3800   21.7890 C.3    64  LEU64       0.1561
     38  C        -16.4470   -3.2270   22.2560 C.2    64  LEU64       0.2260
     39  O        -15.8060   -2.2190   21.9760 O.2    64  LEU64      -0.2867
     40  CB       -17.8790   -3.4350   20.2470 C.3    64  LEU64       0.0270
     41  CG       -17.3230   -4.7240   19.6430 C.3    64  LEU64       0.0019
     42  CD1      -18.1970   -5.9210   19.9970 C.3    64  LEU64       0.0001
     43  CD2      -17.2280   -4.5870   18.1530 C.3    64  LEU64       0.0001
     44  N        -12.7890   -4.7620   21.6550 N.3    66  ARG66      -0.1245
     45  CA       -11.9270   -5.5170   20.7380 C.3    66  ARG66       0.1563
     46  C        -10.5490   -5.6320   21.3350 C.2    66  ARG66       0.2260
     47  O         -9.8810   -4.6280   21.5740 O.2    66  ARG66      -0.2867
     48  CB       -11.8410   -4.7970   19.3900 C.3    66  ARG66       0.0307
     49  CG       -10.9210   -5.4900   18.3470 C.3    66  ARG66       0.0489
     50  CD       -10.7560   -4.6200   17.1020 C.3    66  ARG66       0.2205
     51  NE       -12.0550   -4.2340   16.5540 N.pl3  66  ARG66      -0.0865
     52  CZ       -12.7540   -4.9330   15.6620 C.cat  66  ARG66       0.5346
     53  NH1      -12.2730   -6.0530   15.1550 N.pl3  66  ARG66       0.1354
     54  NH2      -13.9330   -4.4900   15.2620 N.pl3  66  ARG66       0.1354
     55  N        -17.9340    2.9850   13.0000 N.3    91  PRO91      -0.2116
     56  CA       -18.3710    3.0260   14.4020 C.3    91  PRO91       0.1372
     57  C        -17.5850    4.0640   15.1680 C.2    91  PRO91       0.2244
     58  O        -16.3800    4.2690   14.9010 O.2    91  PRO91      -0.2868
     59  CB       -18.0370    1.6160   14.9090 C.3    91  PRO91       0.0268
     60  CG       -17.9550    0.7730   13.6820 C.3    91  PRO91       0.0207
     61  CD       -17.3980    1.6630   12.6400 C.3    91  PRO91       0.0892
     62  N        -15.3150    0.3680   21.0390 N.3   103  GLU103     -0.1231
     63  CA       -16.0040    0.8850   19.8610 C.3   103  GLU103      0.1699
     64  C        -17.5110    0.9300   20.0960 C.2   103  GLU103      0.2592
     65  O        -18.0820    0.1920   20.9200 O.2   103  GLU103     -0.2718
     66  CB       -15.7050   -0.0100   18.6390 C.3   103  GLU103      0.0402
     67  CG       -14.2550   -0.1610   18.2990 C.3   103  GLU103      0.1161
     68  CD       -13.9850   -1.2770   17.2740 C.2   103  GLU103      0.3649
     69  OE1      -14.9460   -1.7660   16.6740 O.co2 103  GLU103     -0.2457
     70  OE2      -12.7980   -1.6460   17.1010 O.co2 103  GLU103     -0.2457
     71  N        -18.1530    1.7880   19.3400 N.am  104  GLN104     -0.1966
     72  CA       -19.6140    1.8180   19.3150 C.3   104  GLN104      0.1733
     73  C        -20.1220    0.4360   18.9430 C.2   104  GLN104      0.2616
     74  O        -19.6150   -0.2190   18.0440 O.2   104  GLN104     -0.2715
     75  CB       -20.1110    2.8540   18.3040 C.3   104  GLN104      0.0408
     76  CG       -21.6070    2.9310   18.1320 C.3   104  GLN104      0.0908
     77  CD       -21.9590    3.8470   17.0020 C.2   104  GLN104      0.2608
     78  OE1      -21.0680    4.3560   16.3140 O.2   104  GLN104     -0.2717
     79  NE2      -23.2520    4.0870   16.8030 N.am  104  GLN104     -0.0878
     80  N        -21.1000   -0.0060   19.7090 N.am  105  PHE105     -0.1960
     81  CA       -21.8500   -1.2250   19.4100 C.3   105  PHE105      0.1771
     82  C        -23.0630   -0.8660   18.5570 C.2   105  PHE105      0.2619
     83  O        -23.9750   -0.1390   18.9600 O.2   105  PHE105     -0.2715
     84  CB       -22.2750   -1.9800   20.6680 C.3   105  PHE105      0.0574
     85  CG       -22.9070   -3.3080   20.3590 C.ar  105  PHE105     -0.0200
     86  CD1      -22.1350   -4.4180   20.1490 C.ar  105  PHE105     -0.0042
     87  CD2      -24.2740   -3.4180   20.2000 C.ar  105  PHE105     -0.0042
     88  CE1      -22.7070   -5.6240   19.8200 C.ar  105  PHE105     -0.0003
     89  CE2      -24.8470   -4.6320   19.8700 C.ar  105  PHE105     -0.0003
     90  CZ       -24.0670   -5.7180   19.6790 C.ar  105  PHE105     -0.0000
     91  N        -23.0430   -1.3990   17.3520 N.am  106  ILE106     -0.1977
     92  CA       -24.0620   -1.1140   16.3520 C.3   106  ILE106      0.1596
     93  C        -25.0040   -2.3260   16.2270 C.2   106  ILE106      0.2287
     94  O        -24.5850   -3.3860   15.7650 O.2   106  ILE106     -0.2864
     95  CB       -23.4210   -0.7900   14.9790 C.3   106  ILE106      0.0276
     96  CG1      -22.5310    0.4600   15.0880 C.3   106  ILE106      0.0022
     97  CG2      -24.5010   -0.5800   13.9270 C.3   106  ILE106      0.0022
     98  CD1      -21.6860    0.7140   13.8860 C.3   106  ILE106      0.0001
     99  N        -27.2690   -4.7660   14.7180 N.3   108  SER108     -0.1217
    100  CA       -27.0760   -5.1950   13.3140 C.3   108  SER108      0.1889
    101  C        -26.7810   -6.6660   13.2500 C.2   108  SER108      0.2288
    102  O        -26.5960   -7.3380   14.2670 O.2   108  SER108     -0.2866
    103  CB       -25.8760   -4.4240   12.7140 C.3   108  SER108      0.2089
    104  OG       -24.6840   -4.7040   13.4440 O.3   108  SER108     -0.2183
    105  N        -24.3510   -9.0530   10.3330 N.3   110  ARG110     -0.1245
    106  CA       -23.5900   -9.0860    9.0710 C.3   110  ARG110      0.1563
    107  C        -24.4020   -9.8000    7.9840 C.2   110  ARG110      0.2260
    108  O        -25.2910  -10.6370    8.2450 O.2   110  ARG110     -0.2867
    109  CB       -22.1970   -9.6730    9.2780 C.3   110  ARG110      0.0307
    110  CG       -22.2060  -11.1050    9.8390 C.3   110  ARG110      0.0489
    111  CD       -20.8400  -11.4740   10.3990 C.3   110  ARG110      0.2205
    112  NE       -20.7560  -12.8540   10.8870 N.pl3 110  ARG110     -0.0865
    113  CZ       -21.0100  -13.2410   12.1400 C.cat 110  ARG110      0.5346
    114  NH1      -21.3770  -12.3580   13.0620 N.pl3 110  ARG110      0.1354
    115  NH2      -20.8820  -14.5210   12.4730 N.pl3 110  ARG110      0.1354
    116  N        -19.0780  -10.3670    5.6020 N.3   207  GLY207     -0.1210
    117  CA       -18.7280  -10.3040    7.0560 C.3   207  GLY207      0.1956
    118  C        -18.3660   -8.9370    7.5810 C.2   207  GLY207      0.2611
    119  O        -18.4010   -8.6780    8.7980 O.2   207  GLY207     -0.2717
    120  N        -17.9830   -8.0840    6.6510 N.am  208  ASN208     -0.1974
    121  CA       -17.5710   -6.6890    6.9100 C.3   208  ASN208      0.1688
    122  C        -18.6180   -5.6440    6.4640 C.2   208  ASN208      0.2292
    123  O        -18.3450   -4.4540    6.2530 O.2   208  ASN208     -0.2864
    124  CB       -16.2230   -6.4380    6.2620 C.3   208  ASN208      0.1181
    125  CG       -15.1510   -7.2650    6.8700 C.2   208  ASN208      0.2629
    126  OD1      -15.2770   -7.7060    8.0100 O.2   208  ASN208     -0.2716
    127  ND2      -14.0980   -7.5280    6.1220 N.am  208  ASN208     -0.0877
    128  N        -22.4370   -4.5480    7.6880 N.3   210  LEU210     -0.1245
    129  CA       -23.5160   -4.6210    8.6900 C.3   210  LEU210      0.1561
    130  C        -24.8300   -4.1400    8.1070 C.2   210  LEU210      0.2260
    131  O        -24.9340   -3.0620    7.5310 O.2   210  LEU210     -0.2867
    132  CB       -23.1720   -3.7700    9.9180 C.3   210  LEU210      0.0270
    133  CG       -21.9110   -4.0980   10.7110 C.3   210  LEU210      0.0019
    134  CD1      -21.8080   -3.1660   11.9200 C.3   210  LEU210      0.0001
    135  CD2      -21.8620   -5.5440   11.1210 C.3   210  LEU210      0.0001
    136  N        -17.5420   -1.9670    7.6290 N.3   226  ILE226     -0.1231
    137  CA       -16.6750   -1.9990    8.8040 C.3   226  ILE226      0.1692
    138  C        -15.4070   -2.7580    8.4710 C.2   226  ILE226      0.2592
    139  O        -15.2590   -3.2940    7.3760 O.2   226  ILE226     -0.2718
    140  CB       -17.3940   -2.6430   10.0440 C.3   226  ILE226      0.0266
    141  CG1      -17.8630   -4.0770    9.7270 C.3   226  ILE226      0.0019
    142  CG2      -18.5630   -1.7810   10.4750 C.3   226  ILE226      0.0020
    143  CD1      -18.0120   -4.9780   10.9360 C.3   226  ILE226      0.0001
    144  N        -14.5070   -2.7870    9.4320 N.am  227  ASP227     -0.1974
    145  CA       -13.3010   -3.6240    9.4140 C.3   227  ASP227      0.1709
    146  C        -12.2770   -3.1570    8.3840 C.2   227  ASP227      0.2293
    147  O        -12.0820   -3.7390    7.3020 O.2   227  ASP227     -0.2864
    148  CB       -13.6510   -5.0750    9.2260 C.3   227  ASP227      0.1436
    149  CG       -12.4610   -5.9620    9.3540 C.2   227  ASP227      0.3671
    150  OD1      -12.6110   -7.1860    9.1240 O.co2 227  ASP227     -0.2456
    151  OD2      -11.3600   -5.4460    9.6580 O.co2 227  ASP227     -0.2456
    152  N         -8.9840   -2.9680    8.4800 N.3   229  GLU229     -0.1245
    153  CA        -7.6080   -3.3750    8.7360 C.3   229  GLU229      0.1567
    154  C         -6.7200   -3.3710    7.5160 C.2   229  GLU229      0.2260
    155  O         -5.5360   -3.0640    7.6030 O.2   229  GLU229     -0.2867
    156  CB        -7.5040   -4.7210    9.4360 C.3   229  GLU229      0.0388
    157  CG        -7.9580   -5.8960    8.7120 C.3   229  GLU229      0.1160
    158  CD        -7.8350   -7.1460    9.5900 C.2   229  GLU229      0.3649
    159  OE1       -6.6870   -7.4700    9.9960 O.co2 229  GLU229     -0.2457
    160  OE2       -8.8740   -7.7890    9.8890 O.co2 229  GLU229     -0.2457
@<TRIPOS>BOND
     1   116   117    1
     2   127   125   am
     3   123   122    2
     4   124   125    1
     5   124   121    1
     6   122   121    1
     7   120   121    1
     8   120   118   am
     9   125   126    2
    10   117   118    1
    11   147   146    2
    12   139   138    2
    13   154   155    2
    14   154   153    1
    15   131   130    2
    16   118   119    2
    17   136   137    1
    18   128   129    1
    19   107   108    2
    20   107   106    1
    21   130   129    1
    22   146   145    1
    23   138   137    1
    24   138   144   am
    25   152   153    1
    26   129   132    1
    27   157   156    1
    28   157   158    1
    29   153   156    1
    30   137   140    1
    31   106   109    1
    32   106   105    1
    33   150   149   ar
    34   148   149    1
    35   148   145    1
    36   109   110    1
    37   149   151   ar
    38   145   144    1
    39   158   160   ar
    40   158   159   ar
    41   141   140    1
    42   141   143    1
    43   110   111    1
    44   132   133    1
    45   140   142    1
    46   111   112    1
    47   133   135    1
    48   133   134    1
    49   112   113    2
    50   113   115    1
    51   113   114    1
    52    61    55    1
    53    61    60    1
    54   103   100    1
    55   103   104    1
    56    55    56    1
    57   101   100    1
    58   101   102    2
    59   100    99    1
    60    60    59    1
    61    98    96    1
    62    97    95    1
    63    18    17    1
    64    56    59    1
    65    56    57    1
    66    58    57    2
    67    26    25    2
    68    95    96    1
    69    95    92    1
    70    53    52    1
    71    17    19    1
    72    17    16    2
    73    54    52    1
    74    52    51    2
    75    94    93    2
    76    25    27   am
    77    25    24    1
    78    16    15    1
    79    15    14    1
    80    93    92    1
    81    78    77    2
    82    92    91    1
    83    24    21    1
    84    51    50    1
    85    69    68   ar
    86    79    77   am
    87    34    33    1
    88    77    76    1
    89    70    68   ar
    90    50    49    1
    91    68    67    1
    92    91    82   am
    93    14    13    1
    94    23    22    2
    95    21    20    1
    96    21    22    1
    97    74    73    2
    98    76    75    1
    99    43    41    1
   100    35    33    1
   101    33    32    1
   102    67    66    1
   103    75    72    1
   104    49    48    1
   105    13    10    1
   106    82    83    2
   107    82    81    1
   108    66    63    1
   109     7     5    1
   110    73    72    1
   111    73    80   am
   112     4     3    2
   113    72    71    1
   114    71    64   am
   115    48    45    1
   116    32    29    1
   117    81    80    1
   118    81    84    1
   119    41    42    1
   120    41    40    1
   121    90    88   ar
   122    90    89   ar
   123    10     9    1
   124    10    11    1
   125    88    86   ar
   126    63    64    1
   127    63    62    1
   128    89    87   ar
   129     3     9   am
   130     3     2    1
   131    64    65    2
   132    86    85   ar
   133     5     2    1
   134     5     6    1
   135    87    85   ar
   136    40    37    1
   137    85    84    1
   138     8     6    1
   139    11    12    2
   140    28    29    1
   141    29    30    1
   142    45    46    1
   143    45    44    1
   144     2     1    1
   145    46    47    2
   146    37    36    1
   147    37    38    1
   148    30    31    2
   149    39    38    2
