@<TRIPOS>MOLECULE
tmp/3g19A00.pdb
 107 105 0 0 0
SMALL
GASTEIGER

@<TRIPOS>ATOM
      1  N         17.1940    1.5460  -14.5350 N.3    12  ASN12      -0.1225
      2  CA        18.2260    0.5860  -14.8830 C.3    12  ASN12       0.1785
      3  C         19.6170    1.0950  -14.5420 C.2    12  ASN12       0.2597
      4  O         19.8650    2.2990  -14.5120 O.2    12  ASN12      -0.2718
      5  CB        18.1640    0.2380  -16.3700 C.3    12  ASN12       0.1169
      6  CG        19.1300   -0.8690  -16.7460 C.2    12  ASN12       0.2627
      7  OD1       19.1560   -1.9220  -16.1100 O.2    12  ASN12      -0.2716
      8  ND2       19.9300   -0.6360  -17.7800 N.am   12  ASN12      -0.0877
      9  N         20.5170    0.1590  -14.2730 N.am   13  ASP13      -0.1960
     10  CA        21.9380    0.4520  -14.1800 C.3    13  ASP13       0.1840
     11  C         22.6800   -0.8120  -14.5890 C.2    13  ASP13       0.2622
     12  O         22.0730   -1.8730  -14.7250 O.2    13  ASP13      -0.2715
     13  CB        22.3250    0.9070  -12.7700 C.3    13  ASP13       0.1450
     14  CG        22.1950   -0.1960  -11.7430 C.2    13  ASP13       0.3671
     15  OD1       22.9490   -1.1850  -11.8340 O.co2  13  ASP13      -0.2456
     16  OD2       21.3490   -0.0670  -10.8330 O.co2  13  ASP13      -0.2456
     17  N         23.9860   -0.7030  -14.7920 N.am   14  ASP14      -0.1957
     18  CA        24.7530   -1.8170  -15.3360 C.3    14  ASP14       0.1840
     19  C         25.3790   -2.6990  -14.2570 C.2    14  ASP14       0.2622
     20  O         26.1760   -3.5840  -14.5630 O.2    14  ASP14      -0.2715
     21  CB        25.8400   -1.2950  -16.2800 C.3    14  ASP14       0.1450
     22  CG        25.2730   -0.4800  -17.4280 C.2    14  ASP14       0.3671
     23  OD1       24.2550   -0.9020  -18.0140 O.co2  14  ASP14      -0.2456
     24  OD2       25.8490    0.5810  -17.7480 O.co2  14  ASP14      -0.2456
     25  N         25.0060   -2.4730  -13.0010 N.am   15  TYR15      -0.1960
     26  CA        25.6830   -3.1330  -11.8840 C.3    15  TYR15       0.1771
     27  C         24.7910   -4.0170  -11.0110 C.2    15  TYR15       0.2620
     28  O         25.2180   -5.0790  -10.5630 O.2    15  TYR15      -0.2715
     29  CB        26.4160   -2.0930  -11.0350 C.3    15  TYR15       0.0574
     30  CG        27.3040   -1.2060  -11.8710 C.ar   15  TYR15      -0.0198
     31  CD1       28.5390   -1.6550  -12.3160 C.ar   15  TYR15      -0.0009
     32  CD2       26.8970    0.0690  -12.2390 C.ar   15  TYR15      -0.0009
     33  CE1       29.3520   -0.8560  -13.0910 C.ar   15  TYR15       0.0417
     34  CE2       27.7050    0.8790  -13.0160 C.ar   15  TYR15       0.0417
     35  CZ        28.9320    0.4090  -13.4390 C.ar   15  TYR15       0.1957
     36  OH        29.7450    1.2020  -14.2120 O.3    15  TYR15      -0.2866
     37  N         23.5600   -3.5820  -10.7670 N.am   16  THR16      -0.1937
     38  CA        22.6300   -4.3580   -9.9530 C.3    16  THR16       0.2013
     39  C         22.2400   -5.6520  -10.6560 C.2    16  THR16       0.2484
     40  O         21.8510   -5.6300  -11.8220 O.2    16  THR16      -0.2729
     41  CB        21.3500   -3.5640   -9.6480 C.3    16  THR16       0.1807
     42  OG1       21.6960   -2.2900   -9.0940 O.3    16  THR16      -0.2208
     43  CG2       20.4770   -4.3270   -8.6630 C.3    16  THR16       0.0379
     44  N         22.3460   -6.7860   -9.9480 N.am   17  PRO17      -0.2715
     45  CA        21.9810   -8.0860  -10.5230 C.3    17  PRO17       0.1536
     46  C         20.4880   -8.2030  -10.7970 C.2    17  PRO17       0.2598
     47  O         19.6690   -7.7520   -9.9970 O.2    17  PRO17      -0.2715
     48  CB        22.3760   -9.0870   -9.4310 C.3    17  PRO17       0.0310
     49  CG        23.3110   -8.3580   -8.5380 C.3    17  PRO17       0.0237
     50  CD        22.9220   -6.9180   -8.6000 C.3    17  PRO17       0.0939
     51  N         20.1480   -8.8180  -11.9240 N.am   18  MET18      -0.1964
     52  CA        18.7580   -9.0870  -12.2610 C.3    18  MET18       0.1736
     53  C         18.0350   -9.7470  -11.0930 C.2    18  MET18       0.2616
     54  O         16.9250   -9.3550  -10.7360 O.2    18  MET18      -0.2715
     55  CB        18.6770   -9.9790  -13.4980 C.3    18  MET18       0.0427
     56  CG        18.9950   -9.2640  -14.7960 C.3    18  MET18       0.0599
     57  SD        18.6050  -10.2840  -16.2270 S.3    18  MET18      -0.1393
     58  CE        19.0440   -9.1800  -17.5620 C.3    18  MET18       0.0692
     59  N         18.6800  -10.7470  -10.4990 N.am   19  GLU19      -0.1977
     60  CA        18.1170  -11.4730   -9.3640 C.3    19  GLU19       0.1602
     61  C         17.6650  -10.5460   -8.2400 C.2    19  GLU19       0.2287
     62  O         16.6300  -10.7780   -7.6190 O.2    19  GLU19      -0.2864
     63  CB        19.1350  -12.4710   -8.8080 C.3    19  GLU19       0.0415
     64  CG        19.8380  -13.3100   -9.8550 C.3    19  GLU19       0.1163
     65  CD        18.8860  -14.1820  -10.6410 C.2    19  GLU19       0.3649
     66  OE1       18.7580  -15.3750  -10.2980 O.co2  19  GLU19      -0.2457
     67  OE2       18.2600  -13.6740  -11.5930 O.co2  19  GLU19      -0.2457
     68  N         16.7180   -7.3600   -8.4500 N.3    21  VAL21      -0.1245
     69  CA        15.5480   -6.6070   -8.8840 C.3    21  VAL21       0.1561
     70  C         14.2780   -7.4560   -8.8130 C.2    21  VAL21       0.2260
     71  O         13.2180   -6.9680   -8.4240 O.2    21  VAL21      -0.2867
     72  CB        15.7370   -6.0400  -10.3020 C.3    21  VAL21       0.0252
     73  CG1       14.4650   -5.3510  -10.7730 C.3    21  VAL21       0.0019
     74  CG2       16.9140   -5.0730  -10.3290 C.3    21  VAL21       0.0019
     75  N         11.2280   -6.5620  -14.4610 N.3    40  MET40      -0.1245
     76  CA        12.6850   -6.5500  -14.3870 C.3    40  MET40       0.1570
     77  C         13.3030   -6.4430  -15.7780 C.2    40  MET40       0.2261
     78  O         14.2070   -5.6400  -16.0050 O.2    40  MET40      -0.2867
     79  CB        13.1960   -7.8020  -13.6670 C.3    40  MET40       0.0387
     80  CG        14.7130   -7.9020  -13.5680 C.3    40  MET40       0.0595
     81  SD        15.4850   -8.6390  -15.0240 S.3    40  MET40      -0.1393
     82  CE        14.7880  -10.2890  -14.9810 C.3    40  MET40       0.0692
     83  N         12.9140   -3.0550  -17.2260 N.3    43  VAL43      -0.1231
     84  CA        13.9300   -2.1610  -16.6850 C.3    43  VAL43       0.1692
     85  C         15.2470   -2.3460  -17.4310 C.2    43  VAL43       0.2592
     86  O         15.8760   -1.3780  -17.8580 O.2    43  VAL43      -0.2718
     87  CB        14.1700   -2.4230  -15.1860 C.3    43  VAL43       0.0266
     88  CG1       15.3390   -1.5870  -14.6820 C.3    43  VAL43       0.0020
     89  CG2       12.9110   -2.1330  -14.3840 C.3    43  VAL43       0.0020
     90  N         15.6540   -3.6010  -17.5860 N.am   44  HIS44      -0.1976
     91  CA        16.9200   -3.9320  -18.2300 C.3    44  HIS44       0.1656
     92  C         16.9630   -3.4910  -19.6900 C.2    44  HIS44       0.2291
     93  O         18.0030   -3.0540  -20.1830 O.2    44  HIS44      -0.2864
     94  CB        17.1840   -5.4370  -18.1300 C.3    44  HIS44       0.0771
     95  CG        18.4360   -5.8800  -18.8200 C.ar   44  HIS44       0.0820
     96  ND1       19.6740   -5.8340  -18.2180 N.ar   44  HIS44      -0.2267
     97  CD2       18.6400   -6.3830  -20.0610 C.ar   44  HIS44       0.1154
     98  CE1       20.5880   -6.2870  -19.0570 C.ar   44  HIS44       0.1986
     99  NE2       19.9860   -6.6270  -20.1830 N.ar   44  HIS44      -0.2212
    100  N         21.3530    0.5440   -7.3350 N.3    77  LEU77      -0.1245
    101  CA        19.9900    0.6550   -7.8510 C.3    77  LEU77       0.1561
    102  C         19.2950    1.9460   -7.4260 C.2    77  LEU77       0.2260
    103  O         19.3620    2.3480   -6.2640 O.2    77  LEU77      -0.2867
    104  CB        19.1510   -0.5500   -7.4190 C.3    77  LEU77       0.0270
    105  CG        17.7850   -0.6870   -8.0970 C.3    77  LEU77       0.0019
    106  CD1       17.9550   -0.9620   -9.5830 C.3    77  LEU77       0.0001
    107  CD2       16.9650   -1.7850   -7.4390 C.3    77  LEU77       0.0001
@<TRIPOS>BOND
     1    99    97   ar
     2    99    98   ar
     3    93    92    2
     4    97    95   ar
     5    92    91    1
     6    98    96   ar
     7    95    96   ar
     8    95    94    1
     9    91    94    1
    10    91    90    1
    11    23    22   ar
    12    86    85    2
    13     8     6   am
    14    24    22   ar
    15    90    85   am
    16    58    57    1
    17    85    84    1
    18    22    21    1
    19    83    84    1
    20     6     5    1
    21     6     7    2
    22    84    87    1
    23     5     2    1
    24    21    18    1
    25    57    56    1
    26    78    77    2
    27    77    76    1
    28    18    17    1
    29    18    19    1
    30    87    88    1
    31    87    89    1
    32    81    82    1
    33    81    80    1
    34     2     3    1
    35     2     1    1
    36    56    55    1
    37    17    11   am
    38    12    11    2
    39    11    10    1
    40    20    19    2
    41     3     4    2
    42     3     9   am
    43    75    76    1
    44    76    79    1
    45     9    10    1
    46    19    25   am
    47    36    35    1
    48    10    13    1
    49    79    80    1
    50    55    52    1
    51    35    33   ar
    52    35    34   ar
    53    33    31   ar
    54    34    32   ar
    55    25    26    1
    56    13    14    1
    57    31    30   ar
    58    52    51    1
    59    52    53    1
    60    32    30   ar
    61    51    46   am
    62    26    29    1
    63    26    27    1
    64    30    29    1
    65    15    14   ar
    66    40    39    2
    67    14    16   ar
    68    67    65   ar
    69    53    54    2
    70    53    59   am
    71    27    37   am
    72    27    28    2
    73    46    45    1
    74    46    47    2
    75    73    72    1
    76    37    38    1
    77    39    38    1
    78    39    44   am
    79    65    66   ar
    80    65    64    1
    81    45    44    1
    82    45    48    1
    83    59    60    1
    84    74    72    1
    85    72    69    1
    86    38    41    1
    87    44    50    1
    88    64    63    1
    89    41    42    1
    90    41    43    1
    91   106   105    1
    92    48    49    1
    93    60    63    1
    94    60    61    1
    95    69    70    1
    96    69    68    1
    97    70    71    2
    98    50    49    1
    99    61    62    2
   100   105   107    1
   101   105   104    1
   102   101   102    1
   103   101   104    1
   104   101   100    1
   105   102   103    2
