@<TRIPOS>MOLECULE
tmp/3g1bA00.pdb
 120 118 0 0 0
SMALL
GASTEIGER

@<TRIPOS>ATOM
      1  N          7.4310  -10.4410   27.0500 N.3     6  ILE6       -0.1231
      2  CA         8.8710  -10.3770   27.2590 C.3     6  ILE6        0.1692
      3  C          9.5560  -11.1060   26.1160 C.2     6  ILE6        0.2592
      4  O          9.0240  -12.0920   25.5960 O.2     6  ILE6       -0.2718
      5  CB         9.3220  -10.9580   28.6150 C.3     6  ILE6        0.0266
      6  CG1        8.6860  -12.3210   28.8670 C.3     6  ILE6        0.0019
      7  CG2        8.9970  -10.0010   29.7340 C.3     6  ILE6        0.0020
      8  CD1        9.2900  -13.0490   30.0680 C.3     6  ILE6        0.0001
      9  N         10.7240  -10.6020   25.7200 N.am    7  LEU7       -0.1966
     10  CA        11.4930  -11.1640   24.6240 C.3     7  LEU7        0.1728
     11  C         12.7040  -11.8780   25.2030 C.2     7  LEU7        0.2616
     12  O         13.2550  -11.4570   26.2100 O.2     7  LEU7       -0.2715
     13  CB        11.9550  -10.0440   23.6640 C.3     7  LEU7        0.0311
     14  CG        10.8700   -9.0580   23.2220 C.3     7  LEU7        0.0022
     15  CD1       11.4190   -8.0510   22.2120 C.3     7  LEU7        0.0001
     16  CD2        9.6870   -9.8000   22.6550 C.3     7  LEU7        0.0001
     17  N         13.1290  -12.9600   24.5590 N.am    8  ASN8       -0.1958
     18  CA        14.3310  -13.6590   24.9850 C.3     8  ASN8        0.1819
     19  C         15.5820  -12.8380   24.6920 C.2     8  ASN8        0.2621
     20  O         15.6070  -12.0520   23.7610 O.2     8  ASN8       -0.2715
     21  CB        14.4620  -15.0010   24.2620 C.3     8  ASN8        0.1195
     22  CG        15.5640  -15.8450   24.8410 C.2     8  ASN8        0.2630
     23  OD1       15.5940  -16.0930   26.0430 O.2     8  ASN8       -0.2716
     24  ND2       16.4770  -16.2970   23.9920 N.am    8  ASN8       -0.0877
     25  N         16.6040  -13.0340   25.5110 N.am    9  ASP9       -0.1957
     26  CA        17.9380  -12.5140   25.2240 C.3     9  ASP9        0.1840
     27  C         18.9170  -13.4940   25.8670 C.2     9  ASP9        0.2622
     28  O         18.5000  -14.3440   26.6660 O.2     9  ASP9       -0.2715
     29  CB        18.1000  -11.0740   25.7330 C.3     9  ASP9        0.1450
     30  CG        18.1330  -10.9710   27.2550 C.2     9  ASP9        0.3671
     31  OD1       19.0920  -11.4750   27.8520 O.co2   9  ASP9       -0.2456
     32  OD2       17.2140  -10.3910   27.8740 O.co2   9  ASP9       -0.2456
     33  N         20.2010  -13.3890   25.5430 N.am   10  ASP10      -0.1957
     34  CA        21.1730  -14.3700   26.0290 C.3    10  ASP10       0.1840
     35  C         21.8890  -13.9510   27.3170 C.2    10  ASP10       0.2622
     36  O         22.8650  -14.5810   27.7160 O.2    10  ASP10      -0.2715
     37  CB        22.2240  -14.6430   24.9560 C.3    10  ASP10       0.1450
     38  CG        21.6390  -15.2440   23.6920 C.2    10  ASP10       0.3671
     39  OD1       20.5650  -15.8840   23.7490 O.co2  10  ASP10      -0.2456
     40  OD2       22.2780  -15.0820   22.6310 O.co2  10  ASP10      -0.2456
     41  N         21.4090  -12.8880   27.9510 N.am   11  TYR11      -0.1960
     42  CA        22.0460  -12.3290   29.1410 C.3    11  TYR11       0.1771
     43  C         21.2450  -12.4450   30.4360 C.2    11  TYR11       0.2620
     44  O         21.8080  -12.6910   31.5050 O.2    11  TYR11      -0.2715
     45  CB        22.3040  -10.8460   28.9120 C.3    11  TYR11       0.0574
     46  CG        23.0550  -10.5170   27.6500 C.ar   11  TYR11      -0.0198
     47  CD1       24.4080  -10.7630   27.5510 C.ar   11  TYR11      -0.0009
     48  CD2       22.4000   -9.9730   26.5540 C.ar   11  TYR11      -0.0009
     49  CE1       25.1020  -10.4470   26.4070 C.ar   11  TYR11       0.0417
     50  CE2       23.0800   -9.6640   25.3990 C.ar   11  TYR11       0.0417
     51  CZ        24.4330   -9.8980   25.3320 C.ar   11  TYR11       0.1957
     52  OH        25.1120   -9.5860   24.1770 O.3    11  TYR11      -0.2866
     53  N         19.9470  -12.1930   30.3590 N.am   12  THR12      -0.1937
     54  CA        19.1180  -12.1740   31.5550 C.3    12  THR12       0.2013
     55  C         19.0310  -13.5900   32.1290 C.2    12  THR12       0.2484
     56  O         18.6640  -14.5240   31.3990 O.2    12  THR12      -0.2729
     57  CB        17.7000  -11.6560   31.2400 C.3    12  THR12       0.1807
     58  OG1       17.7700  -10.3530   30.6410 O.3    12  THR12      -0.2208
     59  CG2       16.8620  -11.5790   32.4990 C.3    12  THR12       0.0379
     60  N         19.3500  -13.7640   33.4310 N.am   13  PRO13      -0.2715
     61  CA        19.1880  -15.1050   34.0150 C.3    13  PRO13       0.1536
     62  C         17.7440  -15.5870   34.0460 C.2    13  PRO13       0.2598
     63  O         16.8180  -14.8200   34.3380 O.2    13  PRO13      -0.2715
     64  CB        19.6810  -14.9410   35.4600 C.3    13  PRO13       0.0310
     65  CG        20.4650  -13.6800   35.4830 C.3    13  PRO13       0.0237
     66  CD        19.8800  -12.7940   34.4070 C.3    13  PRO13       0.0939
     67  N         17.5660  -16.8720   33.7910 N.am   14  ALA14      -0.1964
     68  CA        16.2650  -17.4980   33.8590 C.3    14  ALA14       0.1728
     69  C         15.5730  -17.2110   35.1890 C.2    14  ALA14       0.2616
     70  O         14.3760  -16.9660   35.2300 O.2    14  ALA14      -0.2715
     71  CB        16.4210  -19.0140   33.6600 C.3    14  ALA14       0.0334
     72  N         16.3280  -17.2170   36.2830 N.am   15  GLU15      -0.1977
     73  CA        15.7500  -17.0260   37.6050 C.3    15  GLU15       0.1602
     74  C         15.1830  -15.6220   37.7550 C.2    15  GLU15       0.2287
     75  O         14.2370  -15.3970   38.5140 O.2    15  GLU15      -0.2864
     76  CB        16.8000  -17.2640   38.6990 C.3    15  GLU15       0.0415
     77  CG        17.3190  -18.7050   38.7600 C.3    15  GLU15       0.1163
     78  CD        18.5260  -18.9990   37.8490 C.2    15  GLU15       0.3649
     79  OE1       19.1640  -20.0520   38.0790 O.co2  15  GLU15      -0.2457
     80  OE2       18.8540  -18.2180   36.9180 O.co2  15  GLU15      -0.2457
     81  N         13.8540  -13.8660   35.2120 N.3    17  VAL17      -0.1245
     82  CA        12.6140  -13.8890   34.4500 C.3    17  VAL17       0.1561
     83  C         11.4880  -14.4910   35.2920 C.2    17  VAL17       0.2260
     84  O         10.3870  -13.9490   35.3490 O.2    17  VAL17      -0.2867
     85  CB        12.8000  -14.6340   33.1170 C.3    17  VAL17       0.0252
     86  CG1       11.4700  -14.7160   32.3680 C.3    17  VAL17       0.0019
     87  CG2       13.8730  -13.9430   32.2900 C.3    17  VAL17       0.0019
     88  N          8.6700  -18.6670   31.2990 N.3    36  MET36      -0.1245
     89  CA        10.0910  -18.4590   31.1140 C.3    36  MET36       0.1570
     90  C         10.6580  -19.4420   30.0760 C.2    36  MET36       0.2261
     91  O         11.4190  -19.0380   29.1890 O.2    36  MET36      -0.2867
     92  CB        10.8120  -18.5730   32.4610 C.3    36  MET36       0.0387
     93  CG        12.3180  -18.4540   32.4030 C.3    36  MET36       0.0595
     94  SD        13.1750  -19.9740   31.9660 S.3    36  MET36      -0.1393
     95  CE        12.8580  -20.9790   33.4170 C.3    36  MET36       0.0692
     96  N          9.5300  -18.5950   26.5100 N.3    39  VAL39      -0.1231
     97  CA        10.2650  -17.4730   25.9430 C.3    39  VAL39       0.1692
     98  C         11.6740  -17.8740   25.5270 C.2    39  VAL39       0.2592
     99  O         12.1800  -17.4250   24.5020 O.2    39  VAL39      -0.2718
    100  CB        10.3340  -16.2990   26.9270 C.3    39  VAL39       0.0266
    101  CG1       11.0570  -15.1390   26.3040 C.3    39  VAL39       0.0020
    102  CG2        8.9330  -15.8910   27.3280 C.3    39  VAL39       0.0020
    103  N         12.3170  -18.7120   26.3260 N.am   40  HIS40      -0.1976
    104  CA        13.6560  -19.1820   26.0190 C.3    40  HIS40       0.1656
    105  C         13.6560  -19.9520   24.6960 C.2    40  HIS40       0.2291
    106  O         14.5520  -19.7870   23.8610 O.2    40  HIS40      -0.2864
    107  CB        14.1420  -20.0780   27.1580 C.3    40  HIS40       0.0771
    108  CG        15.5130  -20.6330   26.9450 C.ar   40  HIS40       0.0820
    109  ND1       16.6570  -19.9050   27.1770 N.ar   40  HIS40      -0.2267
    110  CD2       15.9220  -21.8590   26.5400 C.ar   40  HIS40       0.1154
    111  CE1       17.7140  -20.6500   26.9090 C.ar   40  HIS40       0.1986
    112  NE2       17.2950  -21.8430   26.5270 N.ar   40  HIS40      -0.2212
    113  N         16.8050   -7.3320   29.7760 N.3    73  LEU73      -0.1245
    114  CA        15.4780   -7.8660   29.4670 C.3    73  LEU73       0.1561
    115  C         14.5570   -6.8540   28.7970 C.2    73  LEU73       0.2260
    116  O         14.3090   -5.7650   29.3160 O.2    73  LEU73      -0.2867
    117  CB        14.8350   -8.3630   30.7590 C.3    73  LEU73       0.0270
    118  CG        13.4210   -8.9250   30.6770 C.3    73  LEU73       0.0019
    119  CD1       13.4180  -10.1860   29.8270 C.3    73  LEU73       0.0001
    120  CD2       12.8870   -9.2070   32.0750 C.3    73  LEU73       0.0001
@<TRIPOS>BOND
     1    15    14    1
     2    40    38   ar
     3    16    14    1
     4    14    13    1
     5    13    10    1
     6    38    39   ar
     7    38    37    1
     8    20    19    2
     9   106   105    2
    10    24    22   am
    11    52    51    1
    12    21    22    1
    13    21    18    1
    14    99    98    2
    15    17    18    1
    16    17    11   am
    17    10    11    1
    18    10     9    1
    19    19    18    1
    20    19    25   am
    21   105   104    1
    22    22    23    2
    23    37    34    1
    24    11    12    2
    25    26    25    1
    26    26    29    1
    27    26    27    1
    28    51    50   ar
    29    51    49   ar
    30    50    48   ar
    31    98    97    1
    32    98   103   am
    33    33    27   am
    34    33    34    1
    35     4     3    2
    36     9     3   am
    37    29    30    1
    38    27    28    2
    39    97    96    1
    40    97   100    1
    41   104   103    1
    42   104   107    1
    43    34    35    1
    44     3     2    1
    45   101   100    1
    46    49    47   ar
    47   112   110   ar
    48   112   111   ar
    49   110   108   ar
    50    48    46   ar
    51   111   109   ar
    52   100   102    1
    53   108   107    1
    54   108   109   ar
    55     1     2    1
    56    30    31   ar
    57    30    32   ar
    58     2     5    1
    59    35    36    2
    60    35    41   am
    61    47    46   ar
    62    46    45    1
    63    41    42    1
    64     5     6    1
    65     5     7    1
    66   115   116    2
    67   115   114    1
    68     6     8    1
    69    45    42    1
    70    42    43    1
    71    91    90    2
    72   114   113    1
    73   114   117    1
    74   119   118    1
    75    90    89    1
    76    53    43   am
    77    53    54    1
    78    43    44    2
    79    58    57    1
    80   118   117    1
    81   118   120    1
    82    89    88    1
    83    89    92    1
    84    57    54    1
    85    57    59    1
    86    56    55    2
    87    54    55    1
    88    94    93    1
    89    94    95    1
    90    55    60   am
    91    87    85    1
    92    86    85    1
    93    93    92    1
    94    85    82    1
    95    60    61    1
    96    60    66    1
    97    71    68    1
    98    67    68    1
    99    67    62   am
   100    68    69    1
   101    61    62    1
   102    61    64    1
   103    62    63    2
   104    66    65    1
   105    82    81    1
   106    82    83    1
   107    69    70    2
   108    69    72   am
   109    83    84    2
   110    64    65    1
   111    72    73    1
   112    80    78   ar
   113    73    74    1
   114    73    76    1
   115    74    75    2
   116    78    79   ar
   117    78    77    1
   118    76    77    1
