@<TRIPOS>MOLECULE
tmp/3g1fG00.pdb
 175 165 0 0 0
SMALL
GASTEIGER

@<TRIPOS>ATOM
      1  N        -88.4170   79.4600  -73.4360 N.3    10  ALA10      -0.1245
      2  CA       -89.4440   78.4600  -73.2040 C.3    10  ALA10       0.1562
      3  C        -89.8680   77.9980  -74.5910 C.2    10  ALA10       0.2260
      4  O        -90.6120   78.6960  -75.2830 O.2    10  ALA10      -0.2867
      5  CB       -90.6280   79.0700  -72.4550 C.3    10  ALA10       0.0290
      6  N        -92.1130   76.1100  -76.5760 N.3    12  ASP12      -0.1239
      7  CA       -93.3860   75.4160  -76.5690 C.3    12  ASP12       0.1674
      8  C        -93.9730   75.2140  -77.9520 C.2    12  ASP12       0.2266
      9  O        -95.1380   74.8370  -78.0800 O.2    12  ASP12      -0.2867
     10  CB       -94.3820   76.1660  -75.6890 C.3    12  ASP12       0.1410
     11  CG       -93.8940   76.3120  -74.2670 C.2    12  ASP12       0.3668
     12  OD1      -93.7110   75.2740  -73.5900 O.co2  12  ASP12      -0.2456
     13  OD2      -93.6870   77.4650  -73.8350 O.co2  12  ASP12      -0.2456
     14  N        -85.9520   75.6770  -71.8960 N.3    34  LYS34      -0.1245
     15  CA       -87.0410   74.9950  -71.2180 C.3    34  LYS34       0.1561
     16  C        -87.8340   74.2040  -72.2500 C.2    34  LYS34       0.2260
     17  O        -88.1890   74.7160  -73.3090 O.2    34  LYS34      -0.2867
     18  CB       -87.9560   76.0070  -70.5270 C.3    34  LYS34       0.0271
     19  CG       -88.9140   75.3650  -69.5460 C.3    34  LYS34       0.0035
     20  CD       -89.5940   76.3890  -68.6560 C.3    34  LYS34       0.0206
     21  CE       -90.8130   76.9970  -69.3180 C.3    34  LYS34       0.1093
     22  NZ       -91.8550   75.9670  -69.5650 N.3    34  LYS34      -0.1314
     23  N        -89.9000   70.9770  -68.2260 N.3    62  ASP62      -0.1239
     24  CA       -91.0020   71.5540  -67.4790 C.3    62  ASP62       0.1674
     25  C        -92.1560   70.5760  -67.4650 C.2    62  ASP62       0.2266
     26  O        -93.1530   70.7730  -68.1460 O.2    62  ASP62      -0.2867
     27  CB       -91.4460   72.8620  -68.1280 C.3    62  ASP62       0.1410
     28  CG       -92.3690   73.6650  -67.2350 C.2    62  ASP62       0.3668
     29  OD1      -92.8570   73.1040  -66.2190 O.co2  62  ASP62      -0.2456
     30  OD2      -92.6050   74.8520  -67.5570 O.co2  62  ASP62      -0.2456
     31  N        -93.7830   69.5850  -64.5650 N.3    64  LYS64      -0.1245
     32  CA       -94.6680   69.7920  -63.4220 C.3    64  LYS64       0.1561
     33  C        -95.1080   68.5090  -62.7610 C.2    64  LYS64       0.2260
     34  O        -96.2880   68.3040  -62.5210 O.2    64  LYS64      -0.2867
     35  CB       -95.8990   70.5600  -63.8690 C.3    64  LYS64       0.0271
     36  CG       -95.5420   71.9300  -64.3330 C.3    64  LYS64       0.0035
     37  CD       -96.7470   72.6700  -64.7760 C.3    64  LYS64       0.0206
     38  CE       -96.3240   74.0500  -65.1990 C.3    64  LYS64       0.1093
     39  NZ       -95.2270   73.9560  -66.2120 N.3    64  LYS64      -0.1314
     40  N        -88.7370   70.3760  -63.5940 N.3    88  ILE88      -0.1245
     41  CA       -89.6260   71.1860  -62.7660 C.3    88  ILE88       0.1561
     42  C        -90.6830   70.3140  -62.0880 C.2    88  ILE88       0.2260
     43  O        -91.4000   69.5640  -62.7480 O.2    88  ILE88      -0.2867
     44  CB       -90.3150   72.2760  -63.6140 C.3    88  ILE88       0.0252
     45  CG1      -89.2470   73.1630  -64.2620 C.3    88  ILE88       0.0019
     46  CG2      -91.2440   73.1130  -62.7460 C.3    88  ILE88       0.0019
     47  CD1      -89.7940   74.3130  -65.0700 C.3    88  ILE88       0.0001
     48  N        -91.7970   74.3220  -58.1240 N.3   115  LEU115     -0.1245
     49  CA       -92.6800   75.3940  -58.5320 C.3   115  LEU115      0.1561
     50  C        -93.6100   75.6440  -57.3440 C.2   115  LEU115      0.2260
     51  O        -94.4730   74.8090  -57.0500 O.2   115  LEU115     -0.2867
     52  CB       -93.4680   74.9350  -59.7580 C.3   115  LEU115      0.0270
     53  CG       -94.7130   75.7060  -60.1850 C.3   115  LEU115      0.0019
     54  CD1      -94.3390   77.1530  -60.4480 C.3   115  LEU115      0.0001
     55  CD2      -95.3170   75.0570  -61.4280 C.3   115  LEU115      0.0001
     56  N        -95.3550   78.8710  -56.7590 N.3   117  GLU117     -0.1231
     57  CA       -96.4830   79.7080  -57.1480 C.3   117  GLU117      0.1699
     58  C        -96.5100   79.8820  -58.6480 C.2   117  GLU117      0.2592
     59  O        -95.5120   80.2550  -59.2400 O.2   117  GLU117     -0.2718
     60  CB       -96.3810   81.0800  -56.4620 C.3   117  GLU117      0.0402
     61  CG       -97.5160   82.0570  -56.7910 C.3   117  GLU117      0.1161
     62  CD       -97.6920   83.1350  -55.7280 C.2   117  GLU117      0.3649
     63  OE1      -96.6980   83.8080  -55.3860 O.co2 117  GLU117     -0.2457
     64  OE2      -98.8250   83.3080  -55.2350 O.co2 117  GLU117     -0.2457
     65  N        -97.6540   79.6130  -59.2630 N.am  118  MET118     -0.1965
     66  CA       -97.7720   79.7490  -60.7060 C.3   118  MET118      0.1736
     67  C        -98.0260   81.2030  -61.1140 C.2   118  MET118      0.2617
     68  O        -98.1460   82.0780  -60.2500 O.2   118  MET118     -0.2715
     69  CB       -98.8530   78.8030  -61.2270 C.3   118  MET118      0.0427
     70  CG       -98.4650   77.3370  -61.0330 C.3   118  MET118      0.0599
     71  SD       -99.7390   76.1780  -61.5150 S.3   118  MET118     -0.1393
     72  CE       -99.7350   76.4010  -63.3440 C.3   118  MET118      0.0692
     73  N        -98.1080   81.4630  -62.4190 N.am  119  SER119     -0.1936
     74  CA       -98.2650   82.8330  -62.9030 C.3   119  SER119      0.2055
     75  C        -99.6240   83.2650  -63.4300 C.2   119  SER119      0.2643
     76  O        -99.9600   84.4480  -63.3730 O.2   119  SER119     -0.2714
     77  CB       -97.2060   83.1270  -63.9780 C.3   119  SER119      0.2130
     78  OG       -97.4100   82.3390  -65.1390 O.3   119  SER119     -0.2179
     79  N       -100.3950   82.3220  -63.9540 N.am  120  HIS120     -0.1973
     80  CA      -101.7120   82.6310  -64.4980 C.3   120  HIS120      0.1656
     81  C       -102.6700   83.0150  -63.3610 C.2   120  HIS120      0.2291
     82  O       -102.3790   82.7840  -62.1800 O.2   120  HIS120     -0.2864
     83  CB      -102.2520   81.4210  -65.2610 C.3   120  HIS120      0.0771
     84  CG      -102.6400   80.2810  -64.3750 C.ar  120  HIS120      0.0820
     85  ND1     -101.8290   79.8200  -63.3610 N.ar  120  HIS120     -0.2267
     86  CD2     -103.7620   79.5240  -64.3350 C.ar  120  HIS120      0.1154
     87  CE1     -102.4360   78.8310  -62.7320 C.ar  120  HIS120      0.1986
     88  NE2     -103.6110   78.6320  -63.3030 N.ar  120  HIS120     -0.2212
     89  N        -89.0570   77.9770  -58.8910 N.3   147  VAL147     -0.1245
     90  CA       -89.7700   78.6030  -59.9980 C.3   147  VAL147      0.1561
     91  C        -90.8430   79.5470  -59.4520 C.2   147  VAL147      0.2260
     92  O        -91.7730   79.1120  -58.7610 O.2   147  VAL147     -0.2867
     93  CB       -90.4140   77.5430  -60.9170 C.3   147  VAL147      0.0252
     94  CG1      -91.3560   78.2090  -61.9060 C.3   147  VAL147      0.0019
     95  CG2      -89.3170   76.7840  -61.6640 C.3   147  VAL147      0.0019
     96  N        -91.2730   82.6980  -65.0720 N.3   172  PRO172     -0.2102
     97  CA       -91.8960   82.9260  -66.3750 C.3   172  PRO172      0.1504
     98  C        -93.0200   83.9430  -66.1900 C.2   172  PRO172      0.2576
     99  O        -93.2120   84.4700  -65.0920 O.2   172  PRO172     -0.2718
    100  CB       -92.4310   81.5470  -66.7250 C.3   172  PRO172      0.0282
    101  CG       -92.9850   81.1130  -65.4130 C.3   172  PRO172      0.0208
    102  CD       -91.9010   81.5320  -64.4140 C.3   172  PRO172      0.0893
    103  N        -93.7750   84.2020  -67.2510 N.am  173  GLY173     -0.1943
    104  CA       -94.8580   85.1600  -67.1420 C.3   173  GLY173      0.2014
    105  C        -94.3500   86.5080  -67.5850 C.2   173  GLY173      0.2638
    106  O        -94.9060   87.5510  -67.2520 O.2   173  GLY173     -0.2714
    107  N        -93.2580   86.4740  -68.3350 N.am  174  VAL174     -0.1977
    108  CA       -92.6440   87.6800  -68.8630 C.3   174  VAL174      0.1596
    109  C        -93.2240   87.8940  -70.2570 C.2   174  VAL174      0.2287
    110  O        -93.2820   86.9640  -71.0640 O.2   174  VAL174     -0.2864
    111  CB       -91.1160   87.5190  -68.9670 C.3   174  VAL174      0.0276
    112  CG1      -90.4860   88.8290  -69.3980 C.3   174  VAL174      0.0022
    113  CG2      -90.5500   87.0440  -67.6330 C.3   174  VAL174      0.0022
    114  N        -95.8320   87.8330  -72.7370 N.3   176  ALA176     -0.1231
    115  CA       -97.1420   87.2570  -73.0500 C.3   176  ALA176      0.1694
    116  C        -98.1370   87.2740  -71.8930 C.2   176  ALA176      0.2591
    117  O        -99.3350   87.4550  -72.1070 O.2   176  ALA176     -0.2718
    118  CB       -96.9700   85.8310  -73.5660 C.3   176  ALA176      0.0304
    119  N        -97.6460   87.0770  -70.6730 N.am  177  GLN177     -0.1979
    120  CA       -98.5100   87.0800  -69.4960 C.3   177  GLN177      0.1601
    121  C        -98.4330   88.4300  -68.7830 C.2   177  GLN177      0.2287
    122  O        -99.0690   88.6330  -67.7460 O.2   177  GLN177     -0.2864
    123  CB       -98.1030   85.9590  -68.5330 C.3   177  GLN177      0.0394
    124  CG       -98.1050   84.5730  -69.1630 C.3   177  GLN177      0.0908
    125  CD       -97.8000   83.4690  -68.1640 C.2   177  GLN177      0.2608
    126  OE1      -98.6050   83.1740  -67.2790 O.2   177  GLN177     -0.2717
    127  NE2      -96.6280   82.8560  -68.3010 N.am  177  GLN177     -0.0878
    128  N        -87.9200   83.7570  -67.6520 N.3   192  ILE192     -0.1231
    129  CA       -88.3460   82.7360  -68.5920 C.3   192  ILE192      0.1692
    130  C        -89.2720   83.3190  -69.6470 C.2   192  ILE192      0.2592
    131  O        -90.3790   83.7580  -69.3330 O.2   192  ILE192     -0.2718
    132  CB       -89.0950   81.6280  -67.8720 C.3   192  ILE192      0.0266
    133  CG1      -88.2200   81.0710  -66.7530 C.3   192  ILE192      0.0019
    134  CG2      -89.4970   80.5460  -68.8710 C.3   192  ILE192      0.0020
    135  CD1      -88.9700   80.1820  -65.7830 C.3   192  ILE192      0.0001
    136  N        -88.8270   83.2990  -70.9000 N.am  193  VAL193     -0.1966
    137  CA       -89.6140   83.8410  -72.0090 C.3   193  VAL193      0.1727
    138  C        -89.9970   82.7940  -73.0580 C.2   193  VAL193      0.2617
    139  O        -89.1480   82.0710  -73.5760 O.2   193  VAL193     -0.2715
    140  CB       -88.8470   84.9720  -72.7190 C.3   193  VAL193      0.0290
    141  CG1      -89.7280   85.6060  -73.7800 C.3   193  VAL193      0.0023
    142  CG2      -88.3820   86.0020  -71.6980 C.3   193  VAL193      0.0023
    143  N        -91.2880   82.7320  -73.3710 N.am  194  GLY194     -0.1940
    144  CA       -91.7720   81.7760  -74.3530 C.3   194  GLY194      0.2014
    145  C        -92.4250   82.4030  -75.5770 C.2   194  GLY194      0.2639
    146  O        -91.7450   82.7430  -76.5490 O.2   194  GLY194     -0.2714
    147  N        -93.7440   82.5620  -75.5280 N.am  195  ARG195     -0.1963
    148  CA       -94.4970   83.1290  -76.6440 C.3   195  ARG195      0.1729
    149  C        -93.9440   84.4400  -77.2090 C.2   195  ARG195      0.2616
    150  O        -93.9040   84.6250  -78.4290 O.2   195  ARG195     -0.2715
    151  CB       -95.9660   83.3120  -76.2470 C.3   195  ARG195      0.0348
    152  CG       -96.6660   82.0030  -75.8960 C.3   195  ARG195      0.0492
    153  CD       -98.1690   82.1510  -75.9300 C.3   195  ARG195      0.2205
    154  NE       -98.6620   83.1290  -74.9670 N.pl3 195  ARG195     -0.0865
    155  CZ       -98.6640   82.9470  -73.6510 C.cat 195  ARG195      0.5346
    156  NH1      -98.1940   81.8210  -73.1380 N.pl3 195  ARG195      0.1354
    157  NH2      -99.1540   83.8830  -72.8500 N.pl3 195  ARG195      0.1354
    158  N        -93.5170   85.3450  -76.3360 N.am  196  SER196     -0.1950
    159  CA       -92.9720   86.6250  -76.7840 C.3   196  SER196      0.1924
    160  C        -91.8330   86.4270  -77.7830 C.2   196  SER196      0.2314
    161  O        -91.5300   87.3170  -78.5790 O.2   196  SER196     -0.2863
    162  CB       -92.4600   87.4330  -75.5900 C.3   196  SER196      0.2116
    163  OG       -93.4910   87.6620  -74.6490 O.3   196  SER196     -0.2180
    164  N        -91.1690   82.9220  -79.4700 N.3   198  TYR198     -0.1241
    165  CA       -91.5130   81.9710  -80.5260 C.3   198  TYR198      0.1605
    166  C        -92.8040   82.2910  -81.2930 C.2   198  TYR198      0.2264
    167  O        -93.1790   81.5650  -82.2170 O.2   198  TYR198     -0.2867
    168  CB       -91.5450   80.5290  -79.9780 C.3   198  TYR198      0.0534
    169  CG       -92.6430   80.1960  -78.9870 C.ar  198  TYR198     -0.0201
    170  CD1      -93.9860   80.2300  -79.3590 C.ar  198  TYR198     -0.0009
    171  CD2      -92.3350   79.8080  -77.6850 C.ar  198  TYR198     -0.0009
    172  CE1      -94.9940   79.8850  -78.4600 C.ar  198  TYR198      0.0417
    173  CE2      -93.3360   79.4610  -76.7780 C.ar  198  TYR198      0.0417
    174  CZ       -94.6620   79.5020  -77.1730 C.ar  198  TYR198      0.1957
    175  OH       -95.6550   79.1650  -76.2820 O.3   198  TYR198     -0.2866
@<TRIPOS>BOND
     1   167   166    2
     2   166   165    1
     3   165   168    1
     4   165   164    1
     5   168   169    1
     6   170   169   ar
     7   170   172   ar
     8   169   171   ar
     9   161   160    2
    10   172   174   ar
    11   150   149    2
    12     9     8    2
    13     8     7    1
    14   160   159    1
    15   171   173   ar
    16   149   148    1
    17   149   158   am
    18   174   173   ar
    19   174   175    1
    20   159   158    1
    21   159   162    1
    22   148   151    1
    23   148   147    1
    24     6     7    1
    25     7    10    1
    26   146   145    2
    27   151   152    1
    28   153   152    1
    29   153   154    1
    30    10    11    1
    31   162   163    1
    32   145   147   am
    33   145   144    1
    34     4     3    2
    35   154   155    2
    36     3     2    1
    37   144   143    1
    38    11    13   ar
    39    11    12   ar
    40   141   140    1
    41   155   156    1
    42   155   157    1
    43   139   138    2
    44   118   115    1
    45     1     2    1
    46   143   138   am
    47    17    16    2
    48     2     5    1
    49   138   137    1
    50   115   114    1
    51   115   116    1
    52   140   137    1
    53   140   142    1
    54    16    15    1
    55   117   116    2
    56   137   136    1
    57    14    15    1
    58   116   119   am
    59    15    18    1
    60   110   109    2
    61   136   130   am
    62   119   120    1
    63    18    19    1
    64   109   108    1
    65   130   131    2
    66   130   129    1
    67    22    21    1
    68    19    20    1
    69   120   121    1
    70   120   123    1
    71   112   111    1
    72    21    20    1
    73   124   123    1
    74   124   125    1
    75   111   108    1
    76   111   113    1
    77   134   132    1
    78   108   107    1
    79   121   122    2
    80   129   132    1
    81   129   128    1
    82   107   105   am
    83   127   125   am
    84    23    24    1
    85   125   126    2
    86    26    25    2
    87    27    24    1
    88    27    28    1
    89   132   133    1
    90   105   106    2
    91   105   104    1
    92    30    28   ar
    93    24    25    1
    94   103   104    1
    95   103    98   am
    96    28    29   ar
    97   133   135    1
    98   100    97    1
    99   100   101    1
   100    97    98    1
   101    97    96    1
   102    39    38    1
   103    98    99    2
   104   101   102    1
   105    83    80    1
   106    83    84    1
   107    38    37    1
   108    78    77    1
   109    96   102    1
   110    47    45    1
   111    37    36    1
   112    31    32    1
   113    80    79    1
   114    80    81    1
   115    84    86   ar
   116    84    85   ar
   117    86    88   ar
   118    36    35    1
   119    45    44    1
   120    77    74    1
   121    79    75   am
   122    35    32    1
   123    44    41    1
   124    44    46    1
   125    40    41    1
   126    75    76    2
   127    75    74    1
   128    32    33    1
   129    81    82    2
   130    85    87   ar
   131    72    71    1
   132    88    87   ar
   133    74    73    1
   134    41    42    1
   135    33    34    2
   136    43    42    2
   137    73    67   am
   138    94    93    1
   139    95    93    1
   140    71    70    1
   141    55    53    1
   142    69    70    1
   143    69    66    1
   144    67    66    1
   145    67    68    2
   146    93    90    1
   147    66    65    1
   148    54    53    1
   149    53    52    1
   150    90    91    1
   151    90    89    1
   152    52    49    1
   153    91    92    2
   154    65    58   am
   155    59    58    2
   156    58    57    1
   157    49    48    1
   158    49    50    1
   159    50    51    2
   160    57    56    1
   161    57    60    1
   162    61    60    1
   163    61    62    1
   164    62    63   ar
   165    62    64   ar
