@<TRIPOS>MOLECULE
tmp/3g1lA00.pdb
 184 182 0 0 0
SMALL
GASTEIGER

@<TRIPOS>ATOM
      1  N         25.3350   67.7540   11.6190 N.3    66  LEU66      -0.1245
      2  CA        26.5710   67.4620   12.3680 C.3    66  LEU66       0.1561
      3  C         26.3900   66.4460   13.5210 C.2    66  LEU66       0.2260
      4  O         27.2350   65.5730   13.7240 O.2    66  LEU66      -0.2867
      5  CB        27.1800   68.7620   12.9130 C.3    66  LEU66       0.0270
      6  CG        28.6250   68.6970   13.4270 C.3    66  LEU66       0.0019
      7  CD1       29.6460   68.2010   12.4010 C.3    66  LEU66       0.0001
      8  CD2       29.0150   70.0850   13.9920 C.3    66  LEU66       0.0001
      9  N         37.3060   62.2740    7.4580 N.3    81  MET81      -0.1230
     10  CA        36.4730   62.5560    8.6030 C.3    81  MET81       0.1702
     11  C         36.2000   64.0680    8.7140 C.2    81  MET81       0.2592
     12  O         35.0550   64.5070    8.9030 O.2    81  MET81      -0.2718
     13  CB        37.1500   62.0520    9.8880 C.3    81  MET81       0.0401
     14  CG        36.5710   62.6180   11.2070 C.3    81  MET81       0.0596
     15  SD        37.4120   62.0290   12.7420 S.3    81  MET81      -0.1393
     16  CE        38.8180   63.1460   12.9080 C.3    81  MET81       0.0692
     17  N         37.2580   64.8670    8.5870 N.am   82  TRP82      -0.1976
     18  CA        37.0960   66.3280    8.6560 C.3    82  TRP82       0.1640
     19  C         36.3150   66.8660    7.4420 C.2    82  TRP82       0.2290
     20  O         35.4700   67.7500    7.5870 O.2    82  TRP82      -0.2864
     21  CB        38.4650   66.9930    8.7980 C.3    82  TRP82       0.0576
     22  CG        39.0950   66.7170   10.1220 C.ar   82  TRP82       0.0006
     23  CD1       40.1750   65.9080   10.3840 C.ar   82  TRP82       0.0946
     24  CD2       38.6710   67.2400   11.3780 C.ar   82  TRP82       0.0152
     25  NE1       40.4730   65.9320   11.7450 N.ar   82  TRP82      -0.2442
     26  CE2       39.5600   66.7380   12.3740 C.ar   82  TRP82       0.0810
     27  CE3       37.6500   68.1170   11.7650 C.ar   82  TRP82       0.0012
     28  CZ2       39.4250   67.0770   13.7320 C.ar   82  TRP82       0.0191
     29  CZ3       37.4960   68.4240   13.1150 C.ar   82  TRP82       0.0001
     30  CH2       38.4030   67.9240   14.0760 C.ar   82  TRP82       0.0015
     31  N         32.5550   66.4600    7.8930 N.3    85  GLY85      -0.1210
     32  CA        32.0100   67.4880    8.7730 C.3    85  GLY85       0.1956
     33  C         31.8950   68.8790    8.1610 C.2    85  GLY85       0.2611
     34  O         30.8680   69.5480    8.2890 O.2    85  GLY85      -0.2717
     35  N         32.9760   69.3420    7.5560 N.am   86  ILE86      -0.1979
     36  CA        32.9850   70.6600    6.8900 C.3    86  ILE86       0.1595
     37  C         31.9100   70.6760    5.8060 C.2    86  ILE86       0.2287
     38  O         31.1950   71.6550    5.6790 O.2    86  ILE86      -0.2864
     39  CB        34.3610   71.0330    6.2800 C.3    86  ILE86       0.0276
     40  CG1       35.4200   71.1470    7.4180 C.3    86  ILE86       0.0022
     41  CG2       34.2410   72.3630    5.4520 C.3    86  ILE86       0.0022
     42  CD1       36.8470   71.3530    6.9510 C.3    86  ILE86       0.0001
     43  N         28.3320   71.9740    6.5070 N.3    89  PHE89      -0.1241
     44  CA        28.1760   73.4260    6.4600 C.3    89  PHE89       0.1605
     45  C         28.2040   73.9330    5.0360 C.2    89  PHE89       0.2264
     46  O         27.4470   74.8050    4.7180 O.2    89  PHE89      -0.2867
     47  CB        29.2450   74.1080    7.3210 C.3    89  PHE89       0.0534
     48  CG        29.1200   73.7630    8.7590 C.ar   89  PHE89      -0.0203
     49  CD1       29.7600   72.6330    9.2740 C.ar   89  PHE89      -0.0042
     50  CD2       28.2720   74.5000    9.5820 C.ar   89  PHE89      -0.0042
     51  CE1       29.5990   72.2690   10.5870 C.ar   89  PHE89      -0.0003
     52  CE2       28.1270   74.1780   10.8870 C.ar   89  PHE89      -0.0003
     53  CZ        28.7720   73.0410   11.3970 C.ar   89  PHE89      -0.0000
     54  N         24.5500   75.5170    4.2570 N.3    93  PHE93      -0.1241
     55  CA        24.4770   76.9490    3.9750 C.3    93  PHE93       0.1605
     56  C         24.4620   77.2350    2.5000 C.2    93  PHE93       0.2264
     57  O         23.8300   78.2010    2.0480 O.2    93  PHE93      -0.2867
     58  CB        25.5900   77.7090    4.6990 C.3    93  PHE93       0.0534
     59  CG        25.3460   77.8220    6.1890 C.ar   93  PHE93      -0.0203
     60  CD1       25.9660   76.9540    7.0630 C.ar   93  PHE93      -0.0042
     61  CD2       24.4630   78.8000    6.7090 C.ar   93  PHE93      -0.0042
     62  CE1       25.7100   77.0420    8.4690 C.ar   93  PHE93      -0.0003
     63  CE2       24.2190   78.8980    8.0940 C.ar   93  PHE93      -0.0003
     64  CZ        24.8520   78.0250    8.9650 C.ar   93  PHE93      -0.0000
     65  N         23.7560   83.3340   16.0610 N.3   117  TRP117     -0.1241
     66  CA        25.0200   82.9870   15.4370 C.3   117  TRP117      0.1605
     67  C         26.1060   82.6550   16.4900 C.2   117  TRP117      0.2264
     68  O         26.7710   81.6070   16.4050 O.2   117  TRP117     -0.2867
     69  CB        25.4650   84.0650   14.4370 C.3   117  TRP117      0.0550
     70  CG        26.5290   83.4830   13.5820 C.ar  117  TRP117      0.0003
     71  CD1       27.8610   83.7150   13.6860 C.ar  117  TRP117      0.0946
     72  CD2       26.3630   82.5000   12.5360 C.ar  117  TRP117      0.0152
     73  NE1       28.5420   82.9740   12.7480 N.ar  117  TRP117     -0.2442
     74  CE2       27.6530   82.2030   12.0440 C.ar  117  TRP117      0.0810
     75  CE3       25.2570   81.8480   11.9750 C.ar  117  TRP117      0.0012
     76  CZ2       27.8710   81.2830   10.9950 C.ar  117  TRP117      0.0191
     77  CZ3       25.4650   80.9540   10.9330 C.ar  117  TRP117      0.0001
     78  CH2       26.7640   80.6680   10.4570 C.ar  117  TRP117      0.0015
     79  N         28.0280   78.9940   17.0060 N.3   121  MET121     -0.1245
     80  CA        29.4910   79.0060   16.7830 C.3   121  MET121      0.1570
     81  C         30.2200   78.4130   17.9940 C.2   121  MET121      0.2261
     82  O         31.1990   77.6940   17.8450 O.2   121  MET121     -0.2867
     83  CB        30.0090   80.4240   16.4370 C.3   121  MET121      0.0387
     84  CG        29.6360   80.9130   15.0180 C.3   121  MET121      0.0595
     85  SD        30.4340   79.9240   13.6880 S.3   121  MET121     -0.1393
     86  CE        32.1380   80.5080   13.7890 C.3   121  MET121      0.0692
     87  N         29.8330   74.6520   17.7690 N.3   124  TRP124     -0.1241
     88  CA        30.6390   74.0560   16.7050 C.3   124  TRP124      0.1605
     89  C         32.1290   74.0940   17.0240 C.2   124  TRP124      0.2264
     90  O         32.8320   73.1220   16.7800 O.2   124  TRP124     -0.2867
     91  CB        30.3140   74.7140   15.3630 C.3   124  TRP124      0.0550
     92  CG        28.8330   74.5200   15.0120 C.ar  124  TRP124      0.0003
     93  CD1       28.0130   73.4700   15.4160 C.ar  124  TRP124      0.0946
     94  CD2       28.0130   75.3880   14.2290 C.ar  124  TRP124      0.0152
     95  NE1       26.7390   73.6400   14.8940 N.ar  124  TRP124     -0.2442
     96  CE2       26.7070   74.8040   14.1700 C.ar  124  TRP124      0.0810
     97  CE3       28.2320   76.6080   13.5810 C.ar  124  TRP124      0.0012
     98  CZ2       25.6440   75.4070   13.4740 C.ar  124  TRP124      0.0191
     99  CZ3       27.1560   77.2160   12.9000 C.ar  124  TRP124      0.0001
    100  CH2       25.8910   76.6070   12.8430 C.ar  124  TRP124      0.0015
    101  N         32.7210   71.4730   19.6970 N.3   127  TYR127     -0.1227
    102  CA        32.7260   70.1380   19.1320 C.3   127  TYR127      0.1736
    103  C         34.0170   69.8720   18.3140 C.2   127  TYR127      0.2596
    104  O         34.6170   68.8310   18.4310 O.2   127  TYR127     -0.2718
    105  CB        31.4800   69.9140   18.2830 C.3   127  TYR127      0.0548
    106  CG        31.5200   68.5670   17.6610 C.ar  127  TYR127     -0.0200
    107  CD1       31.4620   67.4080   18.4710 C.ar  127  TYR127     -0.0009
    108  CD2       31.7200   68.4140   16.2720 C.ar  127  TYR127     -0.0009
    109  CE1       31.5350   66.1320   17.9160 C.ar  127  TYR127      0.0417
    110  CE2       31.7840   67.1080   15.7090 C.ar  127  TYR127      0.0417
    111  CZ        31.6660   65.9950   16.5350 C.ar  127  TYR127      0.1957
    112  OH        31.7400   64.7160   16.0230 O.3   127  TYR127     -0.2866
    113  N         34.4140   70.8300   17.4670 N.am  128  THR128     -0.1953
    114  CA        35.7130   70.7990   16.8490 C.3   128  THR128      0.1897
    115  C         36.8650   70.4830   17.8300 C.2   128  THR128      0.2313
    116  O         37.7160   69.6020   17.5780 O.2   128  THR128     -0.2863
    117  CB        36.0050   72.1340   16.0680 C.3   128  THR128      0.1794
    118  OG1       34.9610   72.3970   15.0910 O.3   128  THR128     -0.2208
    119  CG2       37.3330   72.0080   15.3440 C.3   128  THR128      0.0378
    120  N         36.8750   66.8880   19.2220 N.3   131  VAL131     -0.1245
    121  CA        37.4330   65.9630   18.2400 C.3   131  VAL131      0.1561
    122  C         38.9620   66.0410   18.1690 C.2   131  VAL131      0.2260
    123  O         39.6190   65.0250   18.1360 O.2   131  VAL131     -0.2867
    124  CB        36.7800   66.1510   16.8540 C.3   131  VAL131      0.0252
    125  CG1       37.2730   65.0890   15.8630 C.3   131  VAL131      0.0019
    126  CG2       35.2380   66.0870   16.9250 C.3   131  VAL131      0.0019
    127  N         37.1210   77.5650   12.6490 N.3   155  ASN155     -0.1240
    128  CA        35.7010   77.8040   12.4830 C.3   155  ASN155      0.1653
    129  C         35.4220   79.2060   11.9330 C.2   155  ASN155      0.2266
    130  O         34.6280   79.3620   11.0310 O.2   155  ASN155     -0.2867
    131  CB        34.9230   77.5350   13.7990 C.3   155  ASN155      0.1155
    132  CG        34.5810   76.0550   13.9610 C.2   155  ASN155      0.2627
    133  OD1       33.4900   75.6110   13.5560 O.2   155  ASN155     -0.2716
    134  ND2       35.5220   75.2760   14.4390 N.am  155  ASN155     -0.0877
    135  N         36.2830   79.1660    8.3240 N.3   158  ASN158     -0.1225
    136  CA        35.2090   78.5580    7.4890 C.3   158  ASN158      0.1785
    137  C         34.0250   79.4930    7.3040 C.2   158  ASN158      0.2597
    138  O         33.4670   79.5790    6.1980 O.2   158  ASN158     -0.2718
    139  CB        34.7540   77.2310    8.0510 C.3   158  ASN158      0.1169
    140  CG        35.7440   76.0920    7.7920 C.2   158  ASN158      0.2627
    141  OD1       36.9250   76.3030    7.4970 O.2   158  ASN158     -0.2716
    142  ND2       35.2490   74.8590    7.9510 N.am  158  ASN158     -0.0877
    143  N         33.6070   80.1670    8.3780 N.am  159  GLU159     -0.1979
    144  CA        32.5440   81.1680    8.3100 C.3   159  GLU159      0.1602
    145  C         32.8350   82.1820    7.1940 C.2   159  GLU159      0.2287
    146  O         32.1010   82.2630    6.1810 O.2   159  GLU159     -0.2864
    147  CB        32.4040   81.8850    9.6500 C.3   159  GLU159      0.0415
    148  CG        31.3200   82.9820    9.6430 C.3   159  GLU159      0.1163
    149  CD        31.4100   83.8430   10.8880 C.2   159  GLU159      0.3649
    150  OE1       31.4500   83.2910   12.0090 O.co2 159  GLU159     -0.2457
    151  OE2       31.5040   85.0840   10.7460 O.co2 159  GLU159     -0.2457
    152  N         33.6180   80.3640    3.4480 N.3   162  LEU162     -0.1231
    153  CA        32.3940   79.8100    2.8070 C.3   162  LEU162      0.1693
    154  C         31.4660   80.9180    2.3110 C.2   162  LEU162      0.2592
    155  O         30.9870   80.9230    1.1410 O.2   162  LEU162     -0.2718
    156  CB        31.6650   78.8450    3.7760 C.3   162  LEU162      0.0284
    157  CG        32.2830   77.4670    3.9820 C.3   162  LEU162      0.0019
    158  CD1       31.4760   76.6690    5.0280 C.3   162  LEU162      0.0001
    159  CD2       32.4470   76.6950    2.6160 C.3   162  LEU162      0.0001
    160  N         31.2410   81.8840    3.1730 N.am  163  PHE163     -0.1976
    161  CA        30.2740   82.9210    2.8890 C.3   163  PHE163      0.1639
    162  C         30.7720   83.8460    1.7650 C.2   163  PHE163      0.2290
    163  O         29.9910   84.1920    0.8710 O.2   163  PHE163     -0.2864
    164  CB        29.8340   83.6220    4.1810 C.3   163  PHE163      0.0560
    165  CG        29.1710   82.6980    5.2020 C.ar  163  PHE163     -0.0200
    166  CD1       28.8180   81.3710    4.8970 C.ar  163  PHE163     -0.0042
    167  CD2       28.8600   83.1810    6.4760 C.ar  163  PHE163     -0.0042
    168  CE1       28.2180   80.5370    5.8640 C.ar  163  PHE163     -0.0003
    169  CE2       28.2490   82.3600    7.4480 C.ar  163  PHE163     -0.0003
    170  CZ        27.9230   81.0550    7.1500 C.ar  163  PHE163     -0.0000
    171  N         42.5870   72.6270    7.5240 N.3   186  TRP186     -0.1241
    172  CA        42.1950   71.9450    8.7590 C.3   186  TRP186      0.1605
    173  C         43.1560   70.7840    9.0340 C.2   186  TRP186      0.2264
    174  O         43.7700   70.7100   10.0990 O.2   186  TRP186     -0.2867
    175  CB        40.7460   71.4370    8.6410 C.3   186  TRP186      0.0550
    176  CG        39.6980   72.4960    8.9350 C.ar  186  TRP186      0.0003
    177  CD1       39.5060   73.7130    8.2770 C.ar  186  TRP186      0.0946
    178  CD2       38.6770   72.4300    9.9590 C.ar  186  TRP186      0.0152
    179  NE1       38.4110   74.3680    8.8180 N.ar  186  TRP186     -0.2442
    180  CE2       37.9120   73.6310    9.8740 C.ar  186  TRP186      0.0810
    181  CE3       38.3520   71.4850   10.9480 C.ar  186  TRP186      0.0012
    182  CZ2       36.8550   73.9300   10.7750 C.ar  186  TRP186      0.0191
    183  CZ3       37.2790   71.7590   11.8200 C.ar  186  TRP186      0.0001
    184  CH2       36.5460   72.9800   11.7290 C.ar  186  TRP186      0.0015
@<TRIPOS>BOND
     1   163   162    2
     2   155   154    2
     3   162   161    1
     4    57    56    2
     5   154   153    1
     6   154   160   am
     7    56    55    1
     8   159   157    1
     9   153   152    1
    10   153   156    1
    11   161   160    1
    12   161   164    1
    13   156   157    1
    14    55    54    1
    15    55    58    1
    16   157   158    1
    17   164   165    1
    18    58    59    1
    19    46    45    2
    20   166   165   ar
    21   166   168   ar
    22    45    44    1
    23   165   167   ar
    24    41    39    1
    25    38    37    2
    26    37    36    1
    27   168   170   ar
    28   146   145    2
    29    59    61   ar
    30    59    60   ar
    31   138   137    2
    32    39    36    1
    33    39    40    1
    34    44    43    1
    35    44    47    1
    36   167   169   ar
    37    61    63   ar
    38    36    35    1
    39    42    40    1
    40    60    62   ar
    41   170   169   ar
    42   145   144    1
    43   137   136    1
    44   137   143   am
    45    47    48    1
    46    19    20    2
    47    19    18    1
    48     9    10    1
    49   136   139    1
    50   136   135    1
    51   141   140    2
    52   171   172    1
    53    35    33   am
    54   140   142   am
    55   140   139    1
    56    31    32    1
    57    63    64   ar
    58    33    34    2
    59    33    32    1
    60   177   179   ar
    61   177   176   ar
    62   144   143    1
    63   144   147    1
    64    62    64   ar
    65    17    18    1
    66    17    11   am
    67    10    11    1
    68    10    13    1
    69   175   172    1
    70   175   176    1
    71    18    21    1
    72    11    12    2
    73   172   173    1
    74    48    49   ar
    75    48    50   ar
    76    21    22    1
    77   179   180   ar
    78   176   178   ar
    79   173   174    2
    80    49    51   ar
    81    50    52   ar
    82   148   147    1
    83   148   149    1
    84   180   178   ar
    85   180   182   ar
    86    13    14    1
    87   178   181   ar
    88    22    23   ar
    89    22    24   ar
    90    23    25   ar
    91    78    77   ar
    92    78    76   ar
    93    51    53   ar
    94   151   149   ar
    95   182   184   ar
    96    52    53   ar
    97   149   150   ar
    98    77    75   ar
    99   181   183   ar
   100    76    74   ar
   101   130   129    2
   102    14    15    1
   103    24    27   ar
   104    24    26   ar
   105     1     2    1
   106   184   183   ar
   107    25    26   ar
   108    27    29   ar
   109   129   128    1
   110    75    72   ar
   111    74    72   ar
   112    74    73   ar
   113     2     5    1
   114     2     3    1
   115    26    28   ar
   116     7     6    1
   117   128   127    1
   118   128   131    1
   119    72    70   ar
   120    15    16    1
   121    73    71   ar
   122   100    99   ar
   123   100    98   ar
   124    99    97   ar
   125     5     6    1
   126    29    30   ar
   127     6     8    1
   128    98    96   ar
   129     3     4    2
   130   133   132    2
   131    97    94   ar
   132    70    71   ar
   133    70    69    1
   134    85    86    1
   135    85    84    1
   136    28    30   ar
   137   131   132    1
   138   132   134   am
   139    96    94   ar
   140    96    95   ar
   141    94    92   ar
   142    69    66    1
   143    95    93   ar
   144    92    91    1
   145    92    93   ar
   146    84    83    1
   147   118   117    1
   148   119   117    1
   149    91    88    1
   150    66    65    1
   151    66    67    1
   152   110   108   ar
   153   110   111   ar
   154   125   124    1
   155   112   111    1
   156   117   114    1
   157   108   106   ar
   158    68    67    2
   159    83    80    1
   160   111   109   ar
   161    88    89    1
   162    88    87    1
   163    90    89    2
   164    80    79    1
   165    80    81    1
   166   114   113    1
   167   114   115    1
   168   124   126    1
   169   124   121    1
   170   113   103   am
   171   116   115    2
   172   106   105    1
   173   106   107   ar
   174    82    81    2
   175   109   107   ar
   176   123   122    2
   177   122   121    1
   178   121   120    1
   179   105   102    1
   180   103   104    2
   181   103   102    1
   182   102   101    1
