@<TRIPOS>MOLECULE
tmp/3g1mA00.pdb
 212 208 0 0 0
SMALL
GASTEIGER

@<TRIPOS>ATOM
      1  N         25.1270   67.9850   11.6460 N.3    66  LEU66      -0.1245
      2  CA        26.4060   67.7460   12.3080 C.3    66  LEU66       0.1561
      3  C         26.2620   66.6950   13.4100 C.2    66  LEU66       0.2260
      4  O         27.0900   65.7920   13.5100 O.2    66  LEU66      -0.2867
      5  CB        27.0010   69.0490   12.8650 C.3    66  LEU66       0.0270
      6  CG        28.3500   68.8850   13.5820 C.3    66  LEU66       0.0019
      7  CD1       29.4630   68.4270   12.6220 C.3    66  LEU66       0.0001
      8  CD2       28.7350   70.1770   14.2880 C.3    66  LEU66       0.0001
      9  N         25.9630   63.2100   11.8870 N.3    69  LEU69      -0.1231
     10  CA        27.2930   62.8240   11.4660 C.3    69  LEU69       0.1693
     11  C         28.1040   62.3670   12.6710 C.2    69  LEU69       0.2591
     12  O         28.7500   61.3280   12.6250 O.2    69  LEU69      -0.2718
     13  CB        27.9900   64.0120   10.8020 C.3    69  LEU69       0.0284
     14  CG        28.6430   63.8550    9.4350 C.3    69  LEU69       0.0019
     15  CD1       29.7450   64.9030    9.3430 C.3    69  LEU69       0.0001
     16  CD2       29.1830   62.4410    9.1590 C.3    69  LEU69       0.0001
     17  N         28.0400   63.1480   13.7500 N.am   70  ALA70      -0.1980
     18  CA        28.7510   62.8630   14.9940 C.3    70  ALA70       0.1597
     19  C         28.3260   61.5360   15.6270 C.2    70  ALA70       0.2287
     20  O         29.1530   60.8240   16.2060 O.2    70  ALA70      -0.2864
     21  CB        28.5560   64.0100   15.9790 C.3    70  ALA70       0.0319
     22  N         27.4290   58.8560   14.1700 N.3    72  ASN72      -0.1240
     23  CA        28.1260   57.7810   13.4760 C.3    72  ASN72       0.1653
     24  C         29.5570   57.6300   14.0000 C.2    72  ASN72       0.2266
     25  O         30.1750   58.6160   14.4180 O.2    72  ASN72      -0.2867
     26  CB        28.1390   58.0500   11.9670 C.3    72  ASN72       0.1155
     27  CG        26.7510   57.9720   11.3470 C.2    72  ASN72       0.2627
     28  OD1       26.2020   58.9780   10.8870 O.2    72  ASN72      -0.2716
     29  ND2       26.1740   56.7750   11.3370 N.am   72  ASN72      -0.0877
     30  N         37.0920   62.5830    7.4290 N.3    81  MET81      -0.1230
     31  CA        36.2720   62.9240    8.5840 C.3    81  MET81       0.1702
     32  C         35.9630   64.4290    8.5900 C.2    81  MET81       0.2592
     33  O         34.7910   64.8150    8.6630 O.2    81  MET81      -0.2718
     34  CB        36.9570   62.5320    9.9090 C.3    81  MET81       0.0401
     35  CG        36.1790   62.9500   11.1610 C.3    81  MET81       0.0596
     36  SD        36.9850   62.4900   12.7370 S.3    81  MET81      -0.1393
     37  CE        38.2840   63.7350   12.7890 C.3    81  MET81       0.0692
     38  N         37.0100   65.2550    8.5100 N.am   82  TRP82      -0.1976
     39  CA        36.8250   66.7050    8.5710 C.3    82  TRP82       0.1640
     40  C         36.1070   67.1950    7.3200 C.2    82  TRP82       0.2290
     41  O         35.2620   68.0910    7.3900 O.2    82  TRP82      -0.2864
     42  CB        38.1690   67.4180    8.7290 C.3    82  TRP82       0.0576
     43  CG        38.7660   67.1970   10.1130 C.ar   82  TRP82       0.0006
     44  CD1       39.8750   66.4530   10.4260 C.ar   82  TRP82       0.0946
     45  CD2       38.2580   67.7140   11.3550 C.ar   82  TRP82       0.0152
     46  NE1       40.0930   66.4910   11.7990 N.ar   82  TRP82      -0.2442
     47  CE2       39.1210   67.2630   12.3830 C.ar   82  TRP82       0.0810
     48  CE3       37.1670   68.5290   11.6980 C.ar   82  TRP82       0.0012
     49  CZ2       38.9180   67.6030   13.7410 C.ar   82  TRP82       0.0191
     50  CZ3       36.9630   68.8620   13.0570 C.ar   82  TRP82       0.0001
     51  CH2       37.8490   68.4030   14.0480 C.ar   82  TRP82       0.0015
     52  N         33.8210   65.6160    5.5720 N.3    84  THR84      -0.1203
     53  CA        32.3840   65.3530    5.6740 C.3    84  THR84       0.1994
     54  C         31.7080   66.3630    6.5990 C.2    84  THR84       0.2618
     55  O         30.5930   66.8470    6.3060 O.2    84  THR84      -0.2717
     56  CB        32.1060   63.9010    6.1240 C.3    84  THR84       0.1784
     57  OG1       32.8310   63.0070    5.2690 O.3    84  THR84      -0.2211
     58  CG2       30.6150   63.5910    5.9970 C.3    84  THR84       0.0376
     59  N         32.3940   66.7210    7.6870 N.am   85  GLY85      -0.1942
     60  CA        31.8810   67.7090    8.6390 C.3    85  GLY85       0.2014
     61  C         31.7610   69.1140    8.0390 C.2    85  GLY85       0.2638
     62  O         30.7290   69.7630    8.1550 O.2    85  GLY85      -0.2714
     63  N         32.8200   69.5900    7.3870 N.am   86  ILE86      -0.1977
     64  CA        32.7710   70.9110    6.7170 C.3    86  ILE86       0.1596
     65  C         31.6800   70.8900    5.6360 C.2    86  ILE86       0.2287
     66  O         30.9510   71.8630    5.4400 O.2    86  ILE86      -0.2864
     67  CB        34.1530   71.3310    6.1460 C.3    86  ILE86       0.0276
     68  CG1       35.1480   71.5140    7.2990 C.3    86  ILE86       0.0022
     69  CG2       34.0600   72.6660    5.3460 C.3    86  ILE86       0.0022
     70  CD1       36.6050   71.5700    6.8240 C.3    86  ILE86       0.0001
     71  N         28.1040   71.9810    6.4270 N.3    89  PHE89      -0.1241
     72  CA        27.8790   73.4230    6.4030 C.3    89  PHE89       0.1605
     73  C         27.8930   74.0030    5.0010 C.2    89  PHE89       0.2264
     74  O         27.0640   74.8550    4.6640 O.2    89  PHE89      -0.2867
     75  CB        28.8920   74.0970    7.3420 C.3    89  PHE89       0.0534
     76  CG        28.6450   73.7310    8.7600 C.ar   89  PHE89      -0.0203
     77  CD1       29.2630   72.5890    9.3130 C.ar   89  PHE89      -0.0042
     78  CD2       27.7360   74.4560    9.5290 C.ar   89  PHE89      -0.0042
     79  CE1       29.0010   72.2030   10.6310 C.ar   89  PHE89      -0.0003
     80  CE2       27.4590   74.0710   10.8610 C.ar   89  PHE89      -0.0003
     81  CZ        28.0920   72.9360   11.4030 C.ar   89  PHE89      -0.0000
     82  N         24.3050   75.6250    4.1950 N.3    93  PHE93      -0.1241
     83  CA        24.2540   77.0550    3.9320 C.3    93  PHE93       0.1605
     84  C         24.2190   77.3560    2.4270 C.2    93  PHE93       0.2264
     85  O         23.5620   78.3080    2.0020 O.2    93  PHE93      -0.2867
     86  CB        25.4040   77.7860    4.6300 C.3    93  PHE93       0.0534
     87  CG        25.3710   77.6910    6.1430 C.ar   93  PHE93      -0.0203
     88  CD1       26.5600   77.7270    6.8670 C.ar   93  PHE93      -0.0042
     89  CD2       24.1750   77.5460    6.8360 C.ar   93  PHE93      -0.0042
     90  CE1       26.5580   77.6670    8.2660 C.ar   93  PHE93      -0.0003
     91  CE2       24.1640   77.4710    8.2430 C.ar   93  PHE93      -0.0003
     92  CZ        25.3480   77.5440    8.9440 C.ar   93  PHE93      -0.0000
     93  N         23.4580   83.7700   15.9560 N.3   117  TRP117     -0.1241
     94  CA        24.6890   83.3990   15.2730 C.3   117  TRP117      0.1605
     95  C         25.7800   83.0680   16.2980 C.2   117  TRP117      0.2264
     96  O         26.4370   82.0050   16.2120 O.2   117  TRP117     -0.2867
     97  CB        25.1460   84.4670   14.2700 C.3   117  TRP117      0.0550
     98  CG        26.2350   83.9010   13.4240 C.ar  117  TRP117      0.0003
     99  CD1       27.5660   84.1880   13.5020 C.ar  117  TRP117      0.0946
    100  CD2       26.0990   82.8720   12.4300 C.ar  117  TRP117      0.0152
    101  NE1       28.2670   83.4200   12.5950 N.ar  117  TRP117     -0.2442
    102  CE2       27.3940   82.6020   11.9290 C.ar  117  TRP117      0.0810
    103  CE3       25.0100   82.1580   11.9130 C.ar  117  TRP117      0.0012
    104  CZ2       27.6300   81.6490   10.9270 C.ar  117  TRP117      0.0191
    105  CZ3       25.2440   81.2170   10.9080 C.ar  117  TRP117      0.0001
    106  CH2       26.5420   80.9690   10.4290 C.ar  117  TRP117      0.0015
    107  N         27.7930   79.4710   16.7120 N.3   121  MET121     -0.1245
    108  CA        29.2580   79.4640   16.5450 C.3   121  MET121      0.1570
    109  C         29.9660   78.9040   17.7820 C.2   121  MET121      0.2261
    110  O         30.9010   78.1100   17.6630 O.2   121  MET121     -0.2867
    111  CB        29.7920   80.8510   16.1760 C.3   121  MET121      0.0387
    112  CG        29.3570   81.3130   14.7710 C.3   121  MET121      0.0595
    113  SD        30.1050   80.3130   13.4540 S.3   121  MET121     -0.1393
    114  CE        31.8060   80.8720   13.5240 C.3   121  MET121      0.0692
    115  N         29.4970   75.1260   17.7030 N.3   124  TRP124     -0.1241
    116  CA        30.3140   74.4910   16.6630 C.3   124  TRP124      0.1605
    117  C         31.8030   74.5360   16.9870 C.2   124  TRP124      0.2264
    118  O         32.5200   73.5710   16.7480 O.2   124  TRP124     -0.2867
    119  CB        30.0110   75.0920   15.2930 C.3   124  TRP124      0.0550
    120  CG        28.5630   74.8980   14.9400 C.ar  124  TRP124      0.0003
    121  CD1       27.7480   73.8720   15.3570 C.ar  124  TRP124      0.0946
    122  CD2       27.7590   75.7380   14.1040 C.ar  124  TRP124      0.0152
    123  NE1       26.4850   74.0340   14.8310 N.ar  124  TRP124     -0.2442
    124  CE2       26.4630   75.1660   14.0650 C.ar  124  TRP124      0.0810
    125  CE3       27.9940   76.9250   13.3990 C.ar  124  TRP124      0.0012
    126  CZ2       25.4130   75.7250   13.3220 C.ar  124  TRP124      0.0191
    127  CZ3       26.9370   77.4980   12.6670 C.ar  124  TRP124      0.0001
    128  CH2       25.6620   76.8900   12.6360 C.ar  124  TRP124      0.0015
    129  N         32.3880   71.9430   19.7040 N.3   127  TYR127     -0.1227
    130  CA        32.4020   70.6010   19.1510 C.3   127  TYR127      0.1736
    131  C         33.7170   70.3350   18.4020 C.2   127  TYR127      0.2596
    132  O         34.3260   69.2860   18.5820 O.2   127  TYR127     -0.2718
    133  CB        31.1960   70.2700   18.2690 C.3   127  TYR127      0.0548
    134  CG        31.1850   68.7700   18.0380 C.ar  127  TYR127     -0.0200
    135  CD1       31.0810   67.8860   19.1250 C.ar  127  TYR127     -0.0009
    136  CD2       31.3660   68.2350   16.7720 C.ar  127  TYR127     -0.0009
    137  CE1       31.1160   66.5070   18.9440 C.ar  127  TYR127      0.0417
    138  CE2       31.4020   66.8520   16.5760 C.ar  127  TYR127      0.0417
    139  CZ        31.2760   66.0000   17.6660 C.ar  127  TYR127      0.1957
    140  OH        31.3170   64.6350   17.4870 O.3   127  TYR127     -0.2866
    141  N         34.1790   71.2810   17.5900 N.am  128  THR128     -0.1953
    142  CA        35.4420   71.0100   16.9210 C.3   128  THR128      0.1897
    143  C         36.6040   70.8760   17.9050 C.2   128  THR128      0.2313
    144  O         37.4680   70.0580   17.6830 O.2   128  THR128     -0.2863
    145  CB        35.7770   71.8520   15.6180 C.3   128  THR128      0.1794
    146  OG1       37.1030   72.4310   15.6140 O.3   128  THR128     -0.2208
    147  CG2       34.6610   72.6800   15.0930 C.3   128  THR128      0.0378
    148  N         36.6380   67.4160   19.2960 N.3   131  VAL131     -0.1245
    149  CA        37.1310   66.4240   18.3600 C.3   131  VAL131      0.1561
    150  C         38.6630   66.5150   18.2700 C.2   131  VAL131      0.2260
    151  O         39.3530   65.4980   18.2700 O.2   131  VAL131     -0.2867
    152  CB        36.4530   66.5510   16.9680 C.3   131  VAL131      0.0252
    153  CG1       37.0410   65.5260   15.9850 C.3   131  VAL131      0.0019
    154  CG2       34.9210   66.3970   17.0780 C.3   131  VAL131      0.0019
    155  N         36.8910   77.9770   12.6660 N.3   155  ASN155     -0.1240
    156  CA        35.4700   78.2300   12.4430 C.3   155  ASN155      0.1653
    157  C         35.1990   79.6290   11.8910 C.2   155  ASN155      0.2266
    158  O         34.3340   79.8010   11.0440 O.2   155  ASN155     -0.2867
    159  CB        34.6620   78.0240   13.7280 C.3   155  ASN155      0.1155
    160  CG        34.2740   76.5650   13.9400 C.2   155  ASN155      0.2627
    161  OD1       33.1580   76.1660   13.5950 O.2   155  ASN155     -0.2716
    162  ND2       35.1870   75.7630   14.4760 N.am  155  ASN155     -0.0877
    163  N         35.9760   79.6030    8.2950 N.3   158  ASN158     -0.1225
    164  CA        34.8790   78.9950    7.5310 C.3   158  ASN158      0.1785
    165  C         33.7270   79.9440    7.3340 C.2   158  ASN158      0.2597
    166  O         33.1760   80.0290    6.2370 O.2   158  ASN158     -0.2718
    167  CB        34.3760   77.6820    8.1590 C.3   158  ASN158      0.1169
    168  CG        35.3350   76.5210    7.9700 C.2   158  ASN158      0.2627
    169  OD1       36.5150   76.7150    7.6420 O.2   158  ASN158     -0.2716
    170  ND2       34.8360   75.2880    8.2200 N.am  158  ASN158     -0.0877
    171  N         33.3800   80.6880    8.3830 N.am  159  GLU159     -0.1979
    172  CA        32.2930   81.6760    8.3190 C.3   159  GLU159      0.1602
    173  C         32.5810   82.6880    7.2090 C.2   159  GLU159      0.2287
    174  O         31.7920   82.8170    6.2480 O.2   159  GLU159     -0.2864
    175  CB        32.1700   82.3930    9.6620 C.3   159  GLU159      0.0415
    176  CG        31.1010   83.4810    9.6450 C.3   159  GLU159      0.1163
    177  CD        31.1870   84.3800   10.8630 C.2   159  GLU159      0.3649
    178  OE1       31.0710   83.8450   11.9780 O.co2 159  GLU159     -0.2457
    179  OE2       31.3740   85.6030   10.6790 O.co2 159  GLU159     -0.2457
    180  N         33.3200   80.7070    3.4820 N.3   162  LEU162     -0.1231
    181  CA        32.1270   80.1370    2.8410 C.3   162  LEU162      0.1693
    182  C         31.2050   81.2410    2.3720 C.2   162  LEU162      0.2592
    183  O         30.7410   81.2090    1.2420 O.2   162  LEU162     -0.2718
    184  CB        31.3650   79.2050    3.7840 C.3   162  LEU162      0.0284
    185  CG        32.0160   77.8430    4.0420 C.3   162  LEU162      0.0019
    186  CD1       31.2540   77.1140    5.1620 C.3   162  LEU162      0.0001
    187  CD2       32.0700   76.9950    2.7340 C.3   162  LEU162      0.0001
    188  N         30.9630   82.2270    3.2370 N.am  163  PHE163     -0.1976
    189  CA        29.9670   83.2470    2.9370 C.3   163  PHE163      0.1639
    190  C         30.4440   84.2130    1.8520 C.2   163  PHE163      0.2290
    191  O         29.6240   84.6330    1.0290 O.2   163  PHE163     -0.2864
    192  CB        29.4670   83.9500    4.1960 C.3   163  PHE163      0.0560
    193  CG        28.8430   83.0050    5.1920 C.ar  163  PHE163     -0.0200
    194  CD1       28.4110   81.7380    4.7880 C.ar  163  PHE163     -0.0042
    195  CD2       28.6790   83.3710    6.5210 C.ar  163  PHE163     -0.0042
    196  CE1       27.8420   80.8400    5.6980 C.ar  163  PHE163     -0.0003
    197  CE2       28.1120   82.4690    7.4300 C.ar  163  PHE163     -0.0003
    198  CZ        27.6860   81.2230    7.0180 C.ar  163  PHE163     -0.0000
    199  N         42.2450   73.0650    7.4580 N.3   186  TRP186     -0.1241
    200  CA        41.9120   72.3350    8.7070 C.3   186  TRP186      0.1605
    201  C         42.8540   71.1810    8.9700 C.2   186  TRP186      0.2264
    202  O         43.3870   71.0410   10.0770 O.2   186  TRP186     -0.2867
    203  CB        40.4750   71.8340    8.6630 C.3   186  TRP186      0.0550
    204  CG        39.4670   72.8980    8.9440 C.ar  186  TRP186      0.0003
    205  CD1       39.2690   74.0870    8.2490 C.ar  186  TRP186      0.0946
    206  CD2       38.4790   72.8710    9.9830 C.ar  186  TRP186      0.0152
    207  NE1       38.2230   74.7930    8.8220 N.ar  186  TRP186     -0.2442
    208  CE2       37.7150   74.0610    9.8730 C.ar  186  TRP186      0.0810
    209  CE3       38.1650   71.9500   11.0010 C.ar  186  TRP186      0.0012
    210  CZ2       36.6710   74.3700   10.7700 C.ar  186  TRP186      0.0191
    211  CZ3       37.0980   72.2490   11.8900 C.ar  186  TRP186      0.0001
    212  CH2       36.3740   73.4530   11.7650 C.ar  186  TRP186      0.0015
@<TRIPOS>BOND
     1   191   190    2
     2   183   182    2
     3   190   189    1
     4    85    84    2
     5   182   181    1
     6   182   188   am
     7    84    83    1
     8   187   185    1
     9   181   180    1
    10   181   184    1
    11   189   188    1
    12   189   192    1
    13   184   185    1
    14    83    82    1
    15    83    86    1
    16   185   186    1
    17   192   193    1
    18    86    87    1
    19    74    73    2
    20   194   193   ar
    21   194   196   ar
    22    73    72    1
    23   193   195   ar
    24    57    56    1
    25    69    67    1
    26    66    65    2
    27    52    53    1
    28    65    64    1
    29    53    56    1
    30    53    54    1
    31   196   198   ar
    32    58    56    1
    33    87    89   ar
    34    87    88   ar
    35    67    64    1
    36    67    68    1
    37   166   165    2
    38   174   173    2
    39    55    54    2
    40    72    71    1
    41    72    75    1
    42   195   197   ar
    43    54    59   am
    44    64    63    1
    45    70    68    1
    46    89    91   ar
    47    88    90   ar
    48   198   197   ar
    49   173   172    1
    50    40    41    2
    51    40    39    1
    52   165   164    1
    53   165   171   am
    54    75    76    1
    55    63    61   am
    56    30    31    1
    57   199   200    1
    58   164   167    1
    59   164   163    1
    60   169   168    2
    61    59    60    1
    62   168   167    1
    63   168   170   am
    64    61    62    2
    65    61    60    1
    66    91    92   ar
    67   205   207   ar
    68   205   204   ar
    69    90    92   ar
    70   172   171    1
    71   172   175    1
    72    38    39    1
    73    38    32   am
    74    39    42    1
    75    31    32    1
    76    31    34    1
    77    32    33    2
    78   203   200    1
    79   203   204    1
    80   200   201    1
    81    42    43    1
    82    76    77   ar
    83    76    78   ar
    84   207   208   ar
    85   204   206   ar
    86   201   202    2
    87    16    14    1
    88    77    79   ar
    89    15    14    1
    90    14    13    1
    91    78    80   ar
    92   176   175    1
    93   176   177    1
    94   208   206   ar
    95   208   210   ar
    96    34    35    1
    97   206   209   ar
    98    43    44   ar
    99    43    45   ar
   100    44    46   ar
   101   106   105   ar
   102   106   104   ar
   103    79    81   ar
   104   179   177   ar
   105   210   212   ar
   106    13    10    1
   107    80    81   ar
   108   177   178   ar
   109    28    27    2
   110   105   103   ar
   111   104   102   ar
   112   209   211   ar
   113   158   157    2
   114    35    36    1
   115    29    27   am
   116    27    26    1
   117    45    48   ar
   118    45    47   ar
   119    10     9    1
   120    10    11    1
   121     1     2    1
   122    48    50   ar
   123   212   211   ar
   124    46    47   ar
   125   157   156    1
   126   103   100   ar
   127   102   100   ar
   128   102   101   ar
   129    26    23    1
   130     2     5    1
   131     2     3    1
   132    47    49   ar
   133   100    98   ar
   134   156   155    1
   135   156   159    1
   136   101    99   ar
   137     7     6    1
   138    12    11    2
   139   128   127   ar
   140   128   126   ar
   141   127   125   ar
   142    11    17   am
   143    36    37    1
   144     5     6    1
   145    50    51   ar
   146   126   124   ar
   147   125   122   ar
   148     3     4    2
   149    98    99   ar
   150    98    97    1
   151   113   114    1
   152   113   112    1
   153    23    24    1
   154    23    22    1
   155     6     8    1
   156   161   160    2
   157   159   160    1
   158    49    51   ar
   159    17    18    1
   160   160   162   am
   161    24    25    2
   162   124   122   ar
   163   124   123   ar
   164   122   120   ar
   165    97    94    1
   166   112   111    1
   167   123   121   ar
   168   120   119    1
   169   120   121   ar
   170    18    19    1
   171    18    21    1
   172   147   145    1
   173    94    93    1
   174    94    95    1
   175   119   116    1
   176   146   145    1
   177   145   142    1
   178    19    20    2
   179   153   152    1
   180   111   108    1
   181    96    95    2
   182   108   107    1
   183   108   109    1
   184   138   136   ar
   185   138   139   ar
   186   116   117    1
   187   116   115    1
   188   118   117    2
   189   136   134   ar
   190   142   141    1
   191   142   143    1
   192   152   154    1
   193   152   149    1
   194   140   139    1
   195   141   131   am
   196   110   109    2
   197   139   137   ar
   198   144   143    2
   199   134   133    1
   200   134   135   ar
   201   133   130    1
   202   151   150    2
   203   150   149    1
   204   149   148    1
   205   131   132    2
   206   131   130    1
   207   137   135   ar
   208   130   129    1
