@<TRIPOS>MOLECULE
tmp/3g1oA00.pdb
 204 201 0 0 0
SMALL
GASTEIGER

@<TRIPOS>ATOM
      1  N         25.3210   67.1980   11.5530 N.3    66  LEU66      -0.1245
      2  CA        26.6070   66.9600   12.2230 C.3    66  LEU66       0.1561
      3  C         26.5170   65.9340   13.3600 C.2    66  LEU66       0.2260
      4  O         27.4170   65.1040   13.5130 O.2    66  LEU66      -0.2867
      5  CB        27.2270   68.2640   12.7440 C.3    66  LEU66       0.0270
      6  CG        28.6000   68.1900   13.4580 C.3    66  LEU66       0.0019
      7  CD1       29.7080   67.4760   12.6560 C.3    66  LEU66       0.0001
      8  CD2       29.0930   69.5620   13.8860 C.3    66  LEU66       0.0001
      9  N         26.4660   62.1530   12.0330 N.3    69  LEU69      -0.1231
     10  CA        27.8530   61.7360   11.8890 C.3    69  LEU69       0.1693
     11  C         28.5750   61.5100   13.2100 C.2    69  LEU69       0.2591
     12  O         29.4660   60.6680   13.2920 O.2    69  LEU69      -0.2718
     13  CB        28.6320   62.8070   11.1300 C.3    69  LEU69       0.0284
     14  CG        28.4480   63.0590    9.6440 C.3    69  LEU69       0.0019
     15  CD1       29.5120   64.0640    9.2750 C.3    69  LEU69       0.0001
     16  CD2       28.6220   61.7940    8.8370 C.3    69  LEU69       0.0001
     17  N         28.2260   62.2820   14.2320 N.am   70  ALA70      -0.1980
     18  CA        28.9310   62.2260   15.5140 C.3    70  ALA70       0.1597
     19  C         28.6270   60.9300   16.2510 C.2    70  ALA70       0.2287
     20  O         29.4320   60.4610   17.0650 O.2    70  ALA70      -0.2864
     21  CB        28.5660   63.4310   16.3780 C.3    70  ALA70       0.0319
     22  N         37.2870   61.6600    7.3880 N.3    81  MET81      -0.1230
     23  CA        36.4820   61.9690    8.5540 C.3    81  MET81       0.1702
     24  C         36.1730   63.4640    8.6270 C.2    81  MET81       0.2592
     25  O         35.0140   63.8410    8.8040 O.2    81  MET81      -0.2718
     26  CB        37.1840   61.4910    9.8360 C.3    81  MET81       0.0401
     27  CG        36.4210   61.8320   11.1340 C.3    81  MET81       0.0596
     28  SD        37.2510   61.4500   12.7100 S.3    81  MET81      -0.1393
     29  CE        38.6900   62.5410   12.6450 C.3    81  MET81       0.0692
     30  N         37.2120   64.3040    8.4930 N.am   82  TRP82      -0.1976
     31  CA        37.0230   65.7540    8.5290 C.3    82  TRP82       0.1640
     32  C         36.2900   66.2830    7.2900 C.2    82  TRP82       0.2290
     33  O         35.4340   67.1420    7.3970 O.2    82  TRP82      -0.2864
     34  CB        38.3620   66.5040    8.7270 C.3    82  TRP82       0.0576
     35  CG        39.0110   66.2170   10.0900 C.ar   82  TRP82       0.0006
     36  CD1       40.0950   65.4220   10.3380 C.ar   82  TRP82       0.0946
     37  CD2       38.5420   66.6670   11.3590 C.ar   82  TRP82       0.0152
     38  NE1       40.3600   65.3830   11.7170 N.ar   82  TRP82      -0.2442
     39  CE2       39.4060   66.1240   12.3570 C.ar   82  TRP82       0.0810
     40  CE3       37.4720   67.4880   11.7600 C.ar   82  TRP82       0.0012
     41  CZ2       39.2480   66.4160   13.7230 C.ar   82  TRP82       0.0191
     42  CZ3       37.3120   67.7660   13.1190 C.ar   82  TRP82       0.0001
     43  CH2       38.1890   67.2230   14.0790 C.ar   82  TRP82       0.0015
     44  N         33.9910   64.7470    5.4650 N.3    84  THR84      -0.1203
     45  CA        32.5250   64.5230    5.5480 C.3    84  THR84       0.1994
     46  C         31.8620   65.4780    6.5240 C.2    84  THR84       0.2618
     47  O         30.7410   65.9210    6.2870 O.2    84  THR84      -0.2717
     48  CB        32.1150   63.0320    5.7880 C.3    84  THR84       0.1784
     49  OG1       32.0690   62.7680    7.1850 O.3    84  THR84      -0.2211
     50  CG2       33.0860   62.0880    5.1170 C.3    84  THR84       0.0376
     51  N         32.5820   65.8460    7.5800 N.am   85  GLY85      -0.1942
     52  CA        32.0830   66.7990    8.5440 C.3    85  GLY85       0.2014
     53  C         32.0180   68.2140    7.9920 C.2    85  GLY85       0.2638
     54  O         30.9980   68.8770    8.1170 O.2    85  GLY85      -0.2714
     55  N         33.1200   68.7030    7.4180 N.am   86  ILE86      -0.1977
     56  CA        33.0900   69.9900    6.7100 C.3    86  ILE86       0.1596
     57  C         31.9450   69.9620    5.6580 C.2    86  ILE86       0.2287
     58  O         31.1890   70.9200    5.5510 O.2    86  ILE86      -0.2864
     59  CB        34.4590   70.3530    6.0780 C.3    86  ILE86       0.0276
     60  CG1       35.5430   70.4030    7.1820 C.3    86  ILE86       0.0022
     61  CG2       34.3610   71.6960    5.2880 C.3    86  ILE86       0.0022
     62  CD1       36.9980   70.4740    6.6730 C.3    86  ILE86       0.0001
     63  N         28.4180   71.2510    6.3820 N.3    89  PHE89      -0.1241
     64  CA        28.2000   72.7000    6.3370 C.3    89  PHE89       0.1605
     65  C         28.1870   73.2240    4.9120 C.2    89  PHE89       0.2264
     66  O         27.3010   73.9990    4.5840 O.2    89  PHE89      -0.2867
     67  CB        29.2000   73.4140    7.2500 C.3    89  PHE89       0.0534
     68  CG        28.9740   73.1180    8.6730 C.ar   89  PHE89      -0.0203
     69  CD1       29.4750   71.9450    9.2450 C.ar   89  PHE89      -0.0042
     70  CD2       28.1830   73.9670    9.4490 C.ar   89  PHE89      -0.0042
     71  CE1       29.2470   71.6480   10.5890 C.ar   89  PHE89      -0.0003
     72  CE2       27.9480   73.6690   10.7700 C.ar   89  PHE89      -0.0003
     73  CZ        28.4700   72.5070   11.3430 C.ar   89  PHE89      -0.0000
     74  N         24.4230   74.9080    4.2870 N.3    93  PHE93      -0.1241
     75  CA        24.4860   76.3290    3.9590 C.3    93  PHE93       0.1605
     76  C         24.5040   76.6100    2.4760 C.2    93  PHE93       0.2264
     77  O         23.8340   77.5480    2.0310 O.2    93  PHE93      -0.2867
     78  CB        25.6560   77.0100    4.7030 C.3    93  PHE93       0.0534
     79  CG        25.4330   77.0760    6.1860 C.ar   93  PHE93      -0.0203
     80  CD1       25.9590   76.1120    7.0270 C.ar   93  PHE93      -0.0042
     81  CD2       24.6050   78.0910    6.7380 C.ar   93  PHE93      -0.0042
     82  CE1       25.6930   76.1660    8.4430 C.ar   93  PHE93      -0.0003
     83  CE2       24.3330   78.1590    8.1050 C.ar   93  PHE93      -0.0003
     84  CZ        24.8930   77.1670    8.9750 C.ar   93  PHE93      -0.0000
     85  N         23.9200   82.6960   16.1760 N.3   117  TRP117     -0.1241
     86  CA        25.1600   82.2960   15.4910 C.3   117  TRP117      0.1605
     87  C         26.2770   81.9510   16.4800 C.2   117  TRP117      0.2264
     88  O         26.9600   80.9260   16.3250 O.2   117  TRP117     -0.2867
     89  CB        25.6380   83.3730   14.4940 C.3   117  TRP117      0.0550
     90  CG        26.7200   82.8090   13.6130 C.ar  117  TRP117      0.0003
     91  CD1       28.0700   83.0400   13.6920 C.ar  117  TRP117      0.0946
     92  CD2       26.5490   81.8470   12.5540 C.ar  117  TRP117      0.0152
     93  NE1       28.7370   82.2960   12.7320 N.ar  117  TRP117     -0.2442
     94  CE2       27.8360   81.5530   12.0340 C.ar  117  TRP117      0.0810
     95  CE3       25.4420   81.2210   11.9870 C.ar  117  TRP117      0.0012
     96  CZ2       28.0270   80.6870   10.9720 C.ar  117  TRP117      0.0191
     97  CZ3       25.6350   80.3590   10.9490 C.ar  117  TRP117      0.0001
     98  CH2       26.9160   80.0790   10.4580 C.ar  117  TRP117      0.0015
     99  N         28.1090   78.4410   16.8710 N.3   121  MET121     -0.1245
    100  CA        29.5950   78.4560   16.7130 C.3   121  MET121      0.1570
    101  C         30.2860   77.8820   17.9850 C.2   121  MET121      0.2261
    102  O         31.2150   77.0770   17.8760 O.2   121  MET121     -0.2867
    103  CB        30.1430   79.8420   16.3290 C.3   121  MET121      0.0387
    104  CG        29.9850   80.1890   14.8420 C.3   121  MET121      0.0595
    105  SD        30.6520   79.0590   13.5740 S.3   121  MET121     -0.1393
    106  CE        32.4190   79.5110   13.5760 C.3   121  MET121      0.0692
    107  N         29.8840   74.0250   17.8650 N.3   124  TRP124     -0.1241
    108  CA        30.6360   73.3490   16.7960 C.3   124  TRP124      0.1605
    109  C         32.1400   73.3330   17.1110 C.2   124  TRP124      0.2264
    110  O         32.8250   72.3360   16.8940 O.2   124  TRP124     -0.2867
    111  CB        30.3280   73.9940   15.4230 C.3   124  TRP124      0.0550
    112  CG        28.8660   73.8060   15.0410 C.ar  124  TRP124      0.0003
    113  CD1       28.0420   72.7950   15.4540 C.ar  124  TRP124      0.0946
    114  CD2       28.0730   74.6490   14.2020 C.ar  124  TRP124      0.0152
    115  NE1       26.7980   72.9490   14.9220 N.ar  124  TRP124     -0.2442
    116  CE2       26.7760   74.0820   14.1570 C.ar  124  TRP124      0.0810
    117  CE3       28.3250   75.8320   13.4790 C.ar  124  TRP124      0.0012
    118  CZ2       25.7340   74.6520   13.4270 C.ar  124  TRP124      0.0191
    119  CZ3       27.2590   76.4330   12.7750 C.ar  124  TRP124      0.0001
    120  CH2       25.9960   75.7980   12.7150 C.ar  124  TRP124      0.0015
    121  N         32.7750   70.6500   19.9810 N.3   127  TYR127     -0.1227
    122  CA        32.8200   69.3370   19.3680 C.3   127  TYR127      0.1736
    123  C         34.0890   69.0520   18.5570 C.2   127  TYR127      0.2596
    124  O         34.6470   67.9540   18.6140 O.2   127  TYR127     -0.2718
    125  CB        31.5670   69.0150   18.5490 C.3   127  TYR127      0.0548
    126  CG        31.4710   67.5080   18.4540 C.ar  127  TYR127     -0.0200
    127  CD1       31.4220   66.7440   19.6270 C.ar  127  TYR127     -0.0009
    128  CD2       31.5240   66.8350   17.2280 C.ar  127  TYR127     -0.0009
    129  CE1       31.3880   65.3700   19.5930 C.ar  127  TYR127      0.0417
    130  CE2       31.4920   65.4250   17.1840 C.ar  127  TYR127      0.0417
    131  CZ        31.4220   64.7030   18.3830 C.ar  127  TYR127      0.1957
    132  OH        31.3790   63.2980   18.4300 O.3   127  TYR127     -0.2866
    133  N         34.5710   70.0520   17.8360 N.am  128  THR128     -0.1953
    134  CA        35.8130   69.9220   17.0620 C.3   128  THR128      0.1897
    135  C         36.9880   69.7110   17.9890 C.2   128  THR128      0.2313
    136  O         37.8750   68.8680   17.7100 O.2   128  THR128     -0.2863
    137  CB        36.1110   71.2190   16.2650 C.3   128  THR128      0.1794
    138  OG1       35.0830   71.4420   15.3090 O.3   128  THR128     -0.2208
    139  CG2       37.5260   71.1610   15.5560 C.3   128  THR128      0.0378
    140  N         37.0400   66.2410   19.4460 N.3   131  VAL131     -0.1245
    141  CA        37.5440   65.2460   18.5100 C.3   131  VAL131      0.1561
    142  C         39.0760   65.3380   18.3780 C.2   131  VAL131      0.2260
    143  O         39.7560   64.3290   18.4160 O.2   131  VAL131     -0.2867
    144  CB        36.8120   65.3100   17.1110 C.3   131  VAL131      0.0252
    145  CG1       37.4750   64.3570   16.0980 C.3   131  VAL131      0.0019
    146  CG2       35.2920   64.9550   17.2280 C.3   131  VAL131      0.0019
    147  N         37.4510   76.8450   12.5780 N.3   155  ASN155     -0.1240
    148  CA        36.0080   77.0690   12.3630 C.3   155  ASN155      0.1653
    149  C         35.6960   78.4590   11.8870 C.2   155  ASN155      0.2266
    150  O         34.8480   78.6140   11.0150 O.2   155  ASN155     -0.2867
    151  CB        35.1920   76.6320   13.5770 C.3   155  ASN155      0.1155
    152  CG        35.0030   75.1260   13.6160 C.2   155  ASN155      0.2627
    153  OD1       34.5070   74.5300   12.6420 O.2   155  ASN155     -0.2716
    154  ND2       35.5170   74.4910   14.6470 N.am  155  ASN155     -0.0877
    155  N         36.4740   78.4380    8.2470 N.3   158  ASN158     -0.1225
    156  CA        35.4290   77.7420    7.4860 C.3   158  ASN158      0.1785
    157  C         34.2690   78.7200    7.2900 C.2   158  ASN158      0.2597
    158  O         33.7120   78.8350    6.2010 O.2   158  ASN158     -0.2718
    159  CB        34.9300   76.5750    8.2870 C.3   158  ASN158      0.1169
    160  CG        35.7590   75.3190    8.1440 C.2   158  ASN158      0.2627
    161  OD1       36.9100   75.2990    7.6730 O.2   158  ASN158     -0.2716
    162  ND2       35.1580   74.2280    8.5790 N.am  158  ASN158     -0.0877
    163  N         33.9230   79.4490    8.3490 N.am  159  GLU159     -0.1979
    164  CA        32.8460   80.4270    8.2750 C.3   159  GLU159      0.1602
    165  C         33.1070   81.4460    7.1490 C.2   159  GLU159      0.2287
    166  O         32.3390   81.5230    6.1760 O.2   159  GLU159     -0.2864
    167  CB        32.6730   81.1590    9.6050 C.3   159  GLU159      0.0415
    168  CG        31.4930   82.1630    9.5830 C.3   159  GLU159      0.1163
    169  CD        31.5290   83.0690   10.7710 C.2   159  GLU159      0.3649
    170  OE1       31.5860   82.5710   11.8790 O.co2 159  GLU159     -0.2457
    171  OE2       31.4680   84.2820   10.6030 O.co2 159  GLU159     -0.2457
    172  N         33.8490   79.6110    3.4700 N.3   162  LEU162     -0.1231
    173  CA        32.6560   79.0080    2.8490 C.3   162  LEU162      0.1693
    174  C         31.7020   80.1300    2.4300 C.2   162  LEU162      0.2592
    175  O         31.2320   80.1780    1.2810 O.2   162  LEU162     -0.2718
    176  CB        31.9670   78.0310    3.8030 C.3   162  LEU162      0.0284
    177  CG        32.5020   76.5910    3.9000 C.3   162  LEU162      0.0019
    178  CD1       31.7600   75.7930    5.0090 C.3   162  LEU162      0.0001
    179  CD2       32.4440   75.8250    2.5380 C.3   162  LEU162      0.0001
    180  N         31.4500   81.0720    3.3250 N.am  163  PHE163     -0.1976
    181  CA        30.5080   82.1530    2.9850 C.3   163  PHE163      0.1639
    182  C         30.9520   83.1150    1.8810 C.2   163  PHE163      0.2290
    183  O         30.1360   83.4830    1.0380 O.2   163  PHE163     -0.2864
    184  CB        29.9710   82.8710    4.2440 C.3   163  PHE163      0.0560
    185  CG        29.3630   81.9250    5.2620 C.ar  163  PHE163     -0.0200
    186  CD1       29.0580   80.5980    4.9130 C.ar  163  PHE163     -0.0042
    187  CD2       29.1200   82.3460    6.5590 C.ar  163  PHE163     -0.0042
    188  CE1       28.5200   79.6830    5.8680 C.ar  163  PHE163     -0.0003
    189  CE2       28.5740   81.4660    7.5130 C.ar  163  PHE163     -0.0003
    190  CZ        28.2670   80.1270    7.1610 C.ar  163  PHE163     -0.0000
    191  N         42.8190   71.9640    7.4820 N.3   186  TRP186     -0.1241
    192  CA        42.4220   71.1680    8.6860 C.3   186  TRP186      0.1605
    193  C         43.3410   69.9610    8.9850 C.2   186  TRP186      0.2264
    194  O         43.9000   69.8350   10.0920 O.2   186  TRP186     -0.2867
    195  CB        40.9680   70.7030    8.5530 C.3   186  TRP186      0.0550
    196  CG        39.9130   71.7300    8.9520 C.ar  186  TRP186      0.0003
    197  CD1       39.6010   72.9200    8.2940 C.ar  186  TRP186      0.0946
    198  CD2       39.0270   71.6470   10.0590 C.ar  186  TRP186      0.0152
    199  NE1       38.5570   73.5490    8.9320 N.ar  186  TRP186     -0.2442
    200  CE2       38.2030   72.8070   10.0340 C.ar  186  TRP186      0.0810
    201  CE3       38.8340   70.6930   11.0840 C.ar  186  TRP186      0.0012
    202  CZ2       37.1950   73.0360   10.9850 C.ar  186  TRP186      0.0191
    203  CZ3       37.8390   70.9270   12.0280 C.ar  186  TRP186      0.0001
    204  CH2       37.0240   72.0830   11.9720 C.ar  186  TRP186      0.0015
@<TRIPOS>BOND
     1   183   182    2
     2   175   174    2
     3   182   181    1
     4    77    76    2
     5   174   173    1
     6   174   180   am
     7    76    75    1
     8   179   177    1
     9   173   172    1
    10   173   176    1
    11   181   180    1
    12   181   184    1
    13   176   177    1
    14   177   178    1
    15    75    74    1
    16    75    78    1
    17   184   185    1
    18    66    65    2
    19    78    79    1
    20    65    64    1
    21   186   185   ar
    22   186   188   ar
    23    50    48    1
    24   185   187   ar
    25    61    59    1
    26    44    45    1
    27    45    48    1
    28    45    46    1
    29    58    57    2
    30    57    56    1
    31    48    49    1
    32   188   190   ar
    33    59    56    1
    34    59    60    1
    35   166   165    2
    36    79    81   ar
    37    79    80   ar
    38   158   157    2
    39    47    46    2
    40    64    63    1
    41    64    67    1
    42    46    51   am
    43   187   189   ar
    44    62    60    1
    45    56    55    1
    46    81    83   ar
    47    80    82   ar
    48   165   164    1
    49   190   189   ar
    50    67    68    1
    51   157   156    1
    52   157   163   am
    53    32    33    2
    54    32    31    1
    55    22    23    1
    56    55    53   am
    57   191   192    1
    58   156   155    1
    59   156   159    1
    60    51    52    1
    61   161   160    2
    62    53    54    2
    63    53    52    1
    64    83    84   ar
    65   160   159    1
    66   160   162   am
    67   164   163    1
    68   164   167    1
    69   197   199   ar
    70   197   196   ar
    71    82    84   ar
    72    30    31    1
    73    30    24   am
    74    31    34    1
    75   195   192    1
    76   195   196    1
    77    23    24    1
    78    23    26    1
    79    24    25    2
    80    68    69   ar
    81    68    70   ar
    82   192   193    1
    83    34    35    1
    84    16    14    1
    85   199   200   ar
    86   196   198   ar
    87   193   194    2
    88    69    71   ar
    89    15    14    1
    90    70    72   ar
    91   168   167    1
    92   168   169    1
    93    14    13    1
    94    26    27    1
    95   200   198   ar
    96   200   202   ar
    97   198   201   ar
    98    35    36   ar
    99    35    37   ar
   100    36    38   ar
   101    98    97   ar
   102    98    96   ar
   103    71    73   ar
   104   171   169   ar
   105    72    73   ar
   106   169   170   ar
   107    97    95   ar
   108    96    94   ar
   109   202   204   ar
   110   150   149    2
   111   201   203   ar
   112    13    10    1
   113    27    28    1
   114    37    40   ar
   115    37    39   ar
   116     1     2    1
   117    38    39   ar
   118    40    42   ar
   119   149   148    1
   120    10     9    1
   121    10    11    1
   122   204   203   ar
   123    95    92   ar
   124    94    92   ar
   125    94    93   ar
   126     2     5    1
   127     2     3    1
   128    39    41   ar
   129   148   147    1
   130   148   151    1
   131    92    90   ar
   132   153   152    2
   133    29    28    1
   134     7     6    1
   135   120   119   ar
   136   120   118   ar
   137    93    91   ar
   138     5     6    1
   139   119   117   ar
   140    42    43   ar
   141    11    12    2
   142    11    17   am
   143     3     4    2
   144   118   116   ar
   145     6     8    1
   146   117   114   ar
   147   105   106    1
   148   105   104    1
   149   151   152    1
   150    90    91   ar
   151    90    89    1
   152   152   154   am
   153    41    43   ar
   154   116   114   ar
   155   116   115   ar
   156   114   112   ar
   157    17    18    1
   158    89    86    1
   159   104   103    1
   160   115   113   ar
   161   112   111    1
   162   112   113   ar
   163   138   137    1
   164   111   108    1
   165    86    85    1
   166    86    87    1
   167    18    19    1
   168    18    21    1
   169   139   137    1
   170   145   144    1
   171    19    20    2
   172   137   134    1
   173    88    87    2
   174   103   100    1
   175   100    99    1
   176   100   101    1
   177   108   109    1
   178   108   107    1
   179   110   109    2
   180   134   133    1
   181   134   135    1
   182   144   146    1
   183   144   141    1
   184   130   128   ar
   185   130   131   ar
   186   128   126   ar
   187   136   135    2
   188   133   123   am
   189   102   101    2
   190   142   143    2
   191   142   141    1
   192   131   132    1
   193   131   129   ar
   194   126   125    1
   195   126   127   ar
   196   141   140    1
   197   125   122    1
   198   123   124    2
   199   123   122    1
   200   122   121    1
   201   129   127   ar
