@<TRIPOS>MOLECULE
tmp/3g1pB00.pdb
 87 85 0 0 0
SMALL
GASTEIGER

@<TRIPOS>ATOM
      1  N         -6.0090   -9.8130   19.3670 N.3    12  ALA12      -0.1245
      2  CA        -5.6690   -8.4190   19.5350 C.3    12  ALA12       0.1562
      3  C         -4.1980   -8.1290   19.2640 C.2    12  ALA12       0.2260
      4  O         -3.8460   -7.0890   18.7220 O.2    12  ALA12      -0.2867
      5  CB        -6.0350   -7.9600   20.9380 C.3    12  ALA12       0.0290
      6  N        -19.1590   -9.7540   20.6720 N.3    75  HIS75      -0.1241
      7  CA       -18.9310   -9.1050   21.9510 C.3    75  HIS75       0.1621
      8  C        -18.2370   -7.7710   21.7420 C.2    75  HIS75       0.2264
      9  O        -17.8530   -7.4410   20.6160 O.2    75  HIS75      -0.2867
     10  CB       -18.1480   -9.9940   22.9280 C.3    75  HIS75       0.0745
     11  CG       -16.7250  -10.2750   22.5510 C.ar   75  HIS75       0.0817
     12  ND1      -16.3560  -10.8660   21.3570 N.ar   75  HIS75      -0.2268
     13  CD2      -15.5930  -10.1670   23.2850 C.ar   75  HIS75       0.1154
     14  CE1      -15.0470  -11.0590   21.3670 C.ar   75  HIS75       0.1986
     15  NE2      -14.5650  -10.6530   22.5240 N.ar   75  HIS75      -0.2212
     16  N        -15.3780   -6.4030   23.2190 N.3    77  HIS77      -0.1226
     17  CA       -13.9440   -6.1550   23.3500 C.3    77  HIS77       0.1752
     18  C        -13.4760   -5.2840   22.2020 C.2    77  HIS77       0.2596
     19  O        -13.9420   -5.4020   21.0580 O.2    77  HIS77      -0.2718
     20  CB       -13.1260   -7.4340   23.3830 C.3    77  HIS77       0.0759
     21  CG       -12.9980   -8.0420   24.7470 C.ar   77  HIS77       0.0818
     22  ND1      -12.9700   -9.4050   24.9480 N.ar   77  HIS77      -0.2268
     23  CD2      -12.8770   -7.4770   25.9730 C.ar   77  HIS77       0.1154
     24  CE1      -12.8340   -9.6570   26.2370 C.ar   77  HIS77       0.1986
     25  NE2      -12.7740   -8.5050   26.8850 N.ar   77  HIS77      -0.2212
     26  N        -12.5140   -4.4130   22.5110 N.am   78  MET78      -0.1965
     27  CA       -12.0180   -3.4620   21.5400 C.3    78  MET78       0.1736
     28  C        -11.5930   -4.0800   20.2050 C.2    78  MET78       0.2616
     29  O        -11.8650   -3.5040   19.1400 O.2    78  MET78      -0.2715
     30  CB       -10.8660   -2.6590   22.1570 C.3    78  MET78       0.0427
     31  CG       -10.4000   -1.4940   21.3090 C.3    78  MET78       0.0599
     32  SD       -11.6000   -0.1420   20.9740 S.3    78  MET78      -0.1393
     33  CE       -10.5830    0.7920   19.8210 C.3    78  MET78       0.0692
     34  N        -10.9020   -5.2120   20.2220 N.am   79  ASP79      -0.1971
     35  CA       -10.4760   -5.8440   18.9840 C.3    79  ASP79       0.1709
     36  C        -11.6080   -6.3640   18.1130 C.2    79  ASP79       0.2293
     37  O        -11.3560   -6.8550   17.0060 O.2    79  ASP79      -0.2864
     38  CB        -9.3740   -6.9200   19.1950 C.3    79  ASP79       0.1436
     39  CG        -9.7900   -8.0510   20.0860 C.2    79  ASP79       0.3671
     40  OD1      -10.6660   -7.8500   20.9380 O.co2  79  ASP79      -0.2456
     41  OD2       -9.2250   -9.1580   19.9180 O.co2  79  ASP79      -0.2456
     42  N        -16.4310  -16.5410   28.0480 N.3   142  HIS142     -0.1241
     43  CA       -15.4710  -15.4580   27.8070 C.3   142  HIS142      0.1621
     44  C        -15.6690  -14.3690   28.8590 C.2   142  HIS142      0.2264
     45  O        -16.7090  -14.3500   29.5250 O.2   142  HIS142     -0.2867
     46  CB       -15.7070  -14.9220   26.3870 C.3   142  HIS142      0.0745
     47  CG       -14.5810  -14.1110   25.8230 C.ar  142  HIS142      0.0817
     48  ND1      -13.2990  -14.6000   25.6920 N.ar  142  HIS142     -0.2268
     49  CD2      -14.5590  -12.8560   25.3070 C.ar  142  HIS142      0.1154
     50  CE1      -12.5350  -13.6820   25.1210 C.ar  142  HIS142      0.1986
     51  NE2      -13.2700  -12.6050   24.8900 N.ar  142  HIS142     -0.2212
     52  N        -15.2050  -15.0900   20.6720 N.3   163  ASP163     -0.1239
     53  CA       -14.0740  -15.6490   21.4350 C.3   163  ASP163      0.1674
     54  C        -14.6090  -16.5850   22.5280 C.2   163  ASP163      0.2266
     55  O        -15.6210  -16.2600   23.1590 O.2   163  ASP163     -0.2867
     56  CB       -13.3750  -14.5010   22.1740 C.3   163  ASP163      0.1410
     57  CG       -12.7070  -13.4690   21.2580 C.2   163  ASP163      0.3668
     58  OD1      -12.6800  -13.6410   20.0240 O.co2 163  ASP163     -0.2456
     59  OD2      -12.1610  -12.4930   21.8160 O.co2 163  ASP163     -0.2456
     60  N         -9.7820  -17.7300   28.7760 N.3   198  ASN198     -0.1225
     61  CA       -10.6320  -16.9330   27.8780 C.3   198  ASN198      0.1785
     62  C        -10.6850  -17.3470   26.4130 C.2   198  ASN198      0.2597
     63  O        -11.5340  -16.8620   25.6480 O.2   198  ASN198     -0.2718
     64  CB       -10.2490  -15.4640   27.9790 C.3   198  ASN198      0.1169
     65  CG       -10.7960  -14.8440   29.2190 C.2   198  ASN198      0.2627
     66  OD1      -10.0460  -14.4540   30.1260 O.2   198  ASN198     -0.2716
     67  ND2      -12.1160  -14.7910   29.2970 N.am  198  ASN198     -0.0877
     68  N         -9.7680  -18.2320   26.0290 N.am  199  HIS199     -0.1975
     69  CA        -9.6520  -18.7090   24.6610 C.3   199  HIS199      0.1656
     70  C         -9.1760  -20.1320   24.7290 C.2   199  HIS199      0.2291
     71  O         -8.3310  -20.4750   25.5720 O.2   199  HIS199     -0.2864
     72  CB        -8.5610  -17.9410   23.9230 C.3   199  HIS199      0.0771
     73  CG        -8.8260  -16.4760   23.7890 C.ar  199  HIS199      0.0820
     74  ND1       -9.7480  -15.9640   22.9010 N.ar  199  HIS199     -0.2267
     75  CD2       -8.3050  -15.4070   24.4460 C.ar  199  HIS199      0.1154
     76  CE1       -9.7810  -14.6480   23.0120 C.ar  199  HIS199      0.1986
     77  NE2       -8.9100  -14.2810   23.9360 N.ar  199  HIS199     -0.2212
     78  N         -8.5620  -17.0300   15.3800 N.3   221  HIS221     -0.1241
     79  CA        -8.0810  -16.2990   16.5180 C.3   221  HIS221      0.1621
     80  C         -6.7030  -16.8240   16.9290 C.2   221  HIS221      0.2264
     81  O         -6.3860  -16.9010   18.1190 O.2   221  HIS221     -0.2867
     82  CB        -9.0950  -16.3940   17.6670 C.3   221  HIS221      0.0745
     83  CG        -9.0390  -15.2340   18.5970 C.ar  221  HIS221      0.0817
     84  ND1       -8.0560  -15.1100   19.5490 N.ar  221  HIS221     -0.2268
     85  CD2       -9.8120  -14.1290   18.6980 C.ar  221  HIS221      0.1154
     86  CE1       -8.2240  -13.9760   20.2070 C.ar  221  HIS221      0.1986
     87  NE2       -9.2880  -13.3650   19.7180 N.ar  221  HIS221     -0.2212
@<TRIPOS>BOND
     1    78    79    1
     2    79    80    1
     3    79    82    1
     4    80    81    2
     5    37    36    2
     6    82    83    1
     7    36    35    1
     8    83    85   ar
     9    83    84   ar
    10    85    87   ar
    11     4     3    2
    12    35    38    1
    13    35    34    1
    14    29    28    2
    15    38    39    1
    16     3     2    1
    17     1     2    1
    18     2     5    1
    19    84    86   ar
    20    87    86   ar
    21    33    32    1
    22    41    39   ar
    23    58    57   ar
    24    39    40   ar
    25    28    34   am
    26    28    27    1
    27     9     8    2
    28     6     7    1
    29    52    53    1
    30    32    31    1
    31    19    18    2
    32    57    59   ar
    33    57    56    1
    34    31    30    1
    35    12    14   ar
    36    12    11   ar
    37    14    15   ar
    38    53    56    1
    39    53    54    1
    40    27    30    1
    41    27    26    1
    42     8     7    1
    43     7    10    1
    44    18    26   am
    45    18    17    1
    46    15    13   ar
    47    54    55    2
    48    11    10    1
    49    11    13   ar
    50    74    76   ar
    51    74    73   ar
    52    76    77   ar
    53    16    17    1
    54    17    20    1
    55    20    21    1
    56    73    72    1
    57    73    75   ar
    58    72    69    1
    59    77    75   ar
    60    69    70    1
    61    69    68    1
    62    70    71    2
    63    21    22   ar
    64    21    23   ar
    65    51    50   ar
    66    51    49   ar
    67    22    24   ar
    68    50    48   ar
    69    49    47   ar
    70    63    62    2
    71    48    47   ar
    72    47    46    1
    73    23    25   ar
    74    68    62   am
    75    24    25   ar
    76    46    43    1
    77    62    61    1
    78    43    42    1
    79    43    44    1
    80    61    64    1
    81    61    60    1
    82    64    65    1
    83    44    45    2
    84    65    67   am
    85    65    66    2
