@<TRIPOS>MOLECULE
tmp/3g1rB01.pdb
 196 193 0 0 0
SMALL
GASTEIGER

@<TRIPOS>ATOM
      1  N          6.5730   24.1460  -24.9010 N.3    25  TYR25      -0.1241
      2  CA         7.1560   23.2460  -25.8840 C.3    25  TYR25       0.1605
      3  C          8.5980   23.6340  -26.1810 C.2    25  TYR25       0.2264
      4  O          8.8970   24.8020  -26.3970 O.2    25  TYR25      -0.2867
      5  CB         6.3900   23.1920  -27.2040 C.3    25  TYR25       0.0534
      6  CG         7.0800   22.1930  -28.1110 C.ar   25  TYR25      -0.0201
      7  CD1        6.9560   20.8330  -27.8730 C.ar   25  TYR25      -0.0009
      8  CD2        7.9120   22.6070  -29.1440 C.ar   25  TYR25      -0.0009
      9  CE1        7.6050   19.8990  -28.6640 C.ar   25  TYR25       0.0417
     10  CE2        8.5760   21.6740  -29.9440 C.ar   25  TYR25       0.0417
     11  CZ         8.4130   20.3200  -29.6950 C.ar   25  TYR25       0.1957
     12  OH         9.0540   19.3650  -30.4650 O.3    25  TYR25      -0.2866
     13  N          2.8240   15.2600  -24.3180 N.3    56  ILE56      -0.1231
     14  CA         3.6580   14.9370  -25.4770 C.3    56  ILE56       0.1692
     15  C          4.8620   15.8710  -25.6610 C.2    56  ILE56       0.2592
     16  O          5.7290   15.6010  -26.5010 O.2    56  ILE56      -0.2718
     17  CB         2.8520   14.8170  -26.7940 C.3    56  ILE56       0.0266
     18  CG1        2.2570   16.1680  -27.2010 C.3    56  ILE56       0.0019
     19  CG2        1.7690   13.7360  -26.6720 C.3    56  ILE56       0.0020
     20  CD1        1.8660   16.2240  -28.6680 C.3    56  ILE56       0.0001
     21  N          4.9300   16.9480  -24.8750 N.am   57  TYR57      -0.1976
     22  CA         6.0860   17.8450  -24.9150 C.3    57  TYR57       0.1639
     23  C          7.2860   17.2180  -24.2100 C.2    57  TYR57       0.2290
     24  O          8.4020   17.7250  -24.3000 O.2    57  TYR57      -0.2864
     25  CB         5.7700   19.2070  -24.2810 C.3    57  TYR57       0.0560
     26  CG         4.6930   20.0240  -24.9790 C.ar   57  TYR57      -0.0198
     27  CD1        4.1460   19.6160  -26.1900 C.ar   57  TYR57      -0.0009
     28  CD2        4.2540   21.2330  -24.4360 C.ar   57  TYR57      -0.0009
     29  CE1        3.1690   20.3760  -26.8270 C.ar   57  TYR57       0.0417
     30  CE2        3.2810   21.9960  -25.0700 C.ar   57  TYR57       0.0417
     31  CZ         2.7480   21.5620  -26.2660 C.ar   57  TYR57       0.1957
     32  OH         1.7690   22.3040  -26.8890 O.3    57  TYR57      -0.2866
     33  N         -3.1180   18.7940  -22.4370 N.3    86  LYS86      -0.1245
     34  CA        -3.7410   18.4850  -23.7270 C.3    86  LYS86       0.1561
     35  C         -3.8370   16.9860  -23.9830 C.2    86  LYS86       0.2260
     36  O         -2.9120   16.2310  -23.6610 O.2    86  LYS86      -0.2867
     37  CB        -2.9510   19.1360  -24.8620 C.3    86  LYS86       0.0271
     38  CG        -2.6680   20.6240  -24.6430 C.3    86  LYS86       0.0035
     39  CD        -2.1220   21.2770  -25.9030 C.3    86  LYS86       0.0206
     40  CE        -1.6570   22.7090  -25.6210 C.3    86  LYS86       0.1093
     41  NZ        -0.3690   22.7180  -24.8830 N.3    86  LYS86      -0.1314
     42  N         -3.7050   14.2330  -26.5980 N.3    88  TRP88      -0.1241
     43  CA        -3.1540   14.0420  -27.9350 C.3    88  TRP88       0.1605
     44  C         -3.9940   13.0930  -28.8150 C.2    88  TRP88       0.2264
     45  O         -4.8010   12.3030  -28.3130 O.2    88  TRP88      -0.2867
     46  CB        -1.6960   13.5680  -27.8500 C.3    88  TRP88       0.0550
     47  CG        -1.0500   13.3750  -29.2070 C.ar   88  TRP88       0.0003
     48  CD1       -0.4650   12.2350  -29.6800 C.ar   88  TRP88       0.0946
     49  CD2       -0.9440   14.3460  -30.2590 C.ar   88  TRP88       0.0152
     50  NE1       -0.0010   12.4340  -30.9590 N.ar   88  TRP88      -0.2442
     51  CE2       -0.2800   13.7210  -31.3380 C.ar   88  TRP88       0.0810
     52  CE3       -1.3380   15.6850  -30.3920 C.ar   88  TRP88       0.0012
     53  CZ2       -0.0080   14.3810  -32.5360 C.ar   88  TRP88       0.0191
     54  CZ3       -1.0590   16.3480  -31.5860 C.ar   88  TRP88       0.0001
     55  CH2       -0.4050   15.6910  -32.6420 C.ar   88  TRP88       0.0015
     56  N         -6.2050   18.1600  -28.2830 N.3   119  GLU119     -0.1231
     57  CA        -5.0190   18.8170  -28.8330 C.3   119  GLU119      0.1699
     58  C         -5.1260   19.0790  -30.3350 C.2   119  GLU119      0.2592
     59  O         -4.6690   20.1190  -30.8100 O.2   119  GLU119     -0.2718
     60  CB        -3.7710   17.9890  -28.5050 C.3   119  GLU119      0.0402
     61  CG        -2.4410   18.7110  -28.6860 C.3   119  GLU119      0.1161
     62  CD        -1.3170   18.0820  -27.8530 C.2   119  GLU119      0.3649
     63  OE1       -1.5280   16.9990  -27.2650 O.co2 119  GLU119     -0.2457
     64  OE2       -0.2240   18.6810  -27.7860 O.co2 119  GLU119     -0.2457
     65  N         -5.7000   18.1200  -31.0670 N.am  120  VAL120     -0.1980
     66  CA        -6.0720   18.2850  -32.4770 C.3   120  VAL120      0.1595
     67  C         -7.4010   17.5720  -32.7070 C.2   120  VAL120      0.2287
     68  O         -7.7780   16.7000  -31.9300 O.2   120  VAL120     -0.2864
     69  CB        -5.0300   17.6830  -33.4510 C.3   120  VAL120      0.0276
     70  CG1       -3.8100   18.6000  -33.5720 C.3   120  VAL120      0.0022
     71  CG2       -4.6190   16.2870  -33.0190 C.3   120  VAL120      0.0022
     72  N          3.5210    9.7380  -32.8710 N.3   131  TYR131     -0.1241
     73  CA         3.4180    9.9710  -34.3100 C.3   131  TYR131      0.1605
     74  C          3.4980    8.6450  -35.0510 C.2   131  TYR131      0.2264
     75  O          4.4910    8.3770  -35.7320 O.2   131  TYR131     -0.2867
     76  CB         4.5380   10.9010  -34.7960 C.3   131  TYR131      0.0534
     77  CG         4.6470   12.1840  -34.0050 C.ar  131  TYR131     -0.0201
     78  CD1        5.8750   12.6300  -33.5290 C.ar  131  TYR131     -0.0009
     79  CD2        3.5230   12.9440  -33.7270 C.ar  131  TYR131     -0.0009
     80  CE1        5.9770   13.8040  -32.8030 C.ar  131  TYR131      0.0417
     81  CE2        3.6110   14.1150  -32.9940 C.ar  131  TYR131      0.0417
     82  CZ         4.8440   14.5400  -32.5380 C.ar  131  TYR131      0.1957
     83  OH         4.9420   15.7020  -31.8110 O.3   131  TYR131     -0.2866
     84  N          3.5130    5.6890  -37.4710 N.3   133  ARG133     -0.1245
     85  CA         3.5860    5.4300  -38.9020 C.3   133  ARG133      0.1563
     86  C          3.9190    3.9610  -39.1080 C.2   133  ARG133      0.2260
     87  O          4.6320    3.3700  -38.2940 O.2   133  ARG133     -0.2867
     88  CB         4.6590    6.2990  -39.5540 C.3   133  ARG133      0.0307
     89  CG         4.2010    7.7030  -39.8930 C.3   133  ARG133      0.0489
     90  CD         5.2600    8.4510  -40.6810 C.3   133  ARG133      0.2205
     91  NE         6.3340    8.9360  -39.8250 N.pl3 133  ARG133     -0.0865
     92  CZ         7.3290    9.7090  -40.2470 C.cat 133  ARG133      0.5346
     93  NH1        7.3870   10.0840  -41.5210 N.pl3 133  ARG133      0.1354
     94  NH2        8.2650   10.1050  -39.3940 N.pl3 133  ARG133      0.1354
     95  N          0.9770    7.2900  -42.3120 N.3   139  TRP139     -0.1241
     96  CA         0.4330    7.6750  -41.0130 C.3   139  TRP139      0.1605
     97  C         -0.7100    6.7640  -40.6140 C.2   139  TRP139      0.2264
     98  O         -1.5830    6.4580  -41.4250 O.2   139  TRP139     -0.2867
     99  CB        -0.0270    9.1280  -41.0300 C.3   139  TRP139      0.0550
    100  CG         1.1040   10.0540  -41.2260 C.ar  139  TRP139      0.0003
    101  CD1        1.5250   10.5960  -42.4040 C.ar  139  TRP139      0.0946
    102  CD2        1.9960   10.5300  -40.2200 C.ar  139  TRP139      0.0152
    103  NE1        2.6210   11.3900  -42.1890 N.ar  139  TRP139     -0.2442
    104  CE2        2.9280   11.3690  -40.8550 C.ar  139  TRP139      0.0810
    105  CE3        2.0910   10.3370  -38.8380 C.ar  139  TRP139      0.0012
    106  CZ2        3.9400   12.0100  -40.1590 C.ar  139  TRP139      0.0191
    107  CZ3        3.0930   10.9750  -38.1490 C.ar  139  TRP139      0.0001
    108  CH2        4.0040   11.8040  -38.8090 C.ar  139  TRP139      0.0015
    109  N         -6.7130   23.7250  -32.3510 N.3   169  ASN169     -0.1240
    110  CA        -6.6610   23.4240  -33.7820 C.3   169  ASN169      0.1653
    111  C         -7.9990   22.9880  -34.3720 C.2   169  ASN169      0.2266
    112  O         -8.0420   22.2450  -35.3580 O.2   169  ASN169     -0.2867
    113  CB        -5.6050   22.3580  -34.0730 C.3   169  ASN169      0.1155
    114  CG        -4.2010   22.8320  -33.7480 C.2   169  ASN169      0.2627
    115  OD1       -3.6880   23.7530  -34.3760 O.2   169  ASN169     -0.2716
    116  ND2       -3.5740   22.1990  -32.7720 N.am  169  ASN169     -0.0877
    117  N         -7.4980   26.8100  -28.7080 N.3   192  GLN192     -0.1245
    118  CA        -6.1080   27.2310  -28.8170 C.3   192  GLN192      0.1566
    119  C         -5.6200   27.0240  -30.2520 C.2   192  GLN192      0.2260
    120  O         -5.5670   25.9030  -30.7370 O.2   192  GLN192     -0.2867
    121  CB        -5.2310   26.4450  -27.8380 C.3   192  GLN192      0.0367
    122  CG        -3.7650   26.8380  -27.9090 C.3   192  GLN192      0.0905
    123  CD        -2.8940   26.0850  -26.9210 C.2   192  GLN192      0.2608
    124  OE1       -1.8730   25.5170  -27.3000 O.2   192  GLN192     -0.2717
    125  NE2       -3.2740   26.1050  -25.6410 N.am  192  GLN192     -0.0878
    126  N         -1.5860   30.2680  -29.7050 N.3   218  TYR218     -0.1241
    127  CA        -0.3110   29.5790  -29.6660 C.3   218  TYR218      0.1605
    128  C          0.6520   30.1540  -30.7030 C.2   218  TYR218      0.2264
    129  O          0.2220   30.8630  -31.6090 O.2   218  TYR218     -0.2867
    130  CB        -0.4770   28.0510  -29.7270 C.3   218  TYR218      0.0534
    131  CG        -0.7350   27.3420  -31.0520 C.ar  218  TYR218     -0.0201
    132  CD1        0.1770   27.3940  -32.1060 C.ar  218  TYR218     -0.0009
    133  CD2       -1.8500   26.5140  -31.1900 C.ar  218  TYR218     -0.0009
    134  CE1       -0.0500   26.6760  -33.2840 C.ar  218  TYR218      0.0417
    135  CE2       -2.0720   25.7810  -32.3520 C.ar  218  TYR218      0.0417
    136  CZ        -1.1690   25.8670  -33.3880 C.ar  218  TYR218      0.1957
    137  OH        -1.3920   25.1250  -34.5330 O.3   218  TYR218     -0.2866
    138  N         13.4690   22.5760  -39.2940 N.3   228  ILE228     -0.1231
    139  CA        13.0710   21.1710  -39.3310 C.3   228  ILE228      0.1692
    140  C         11.5790   20.9780  -39.6360 C.2   228  ILE228      0.2592
    141  O         11.2020   20.0030  -40.2920 O.2   228  ILE228     -0.2718
    142  CB        13.4240   20.4550  -38.0010 C.3   228  ILE228      0.0266
    143  CG1       14.9440   20.3470  -37.8370 C.3   228  ILE228      0.0019
    144  CG2       12.7660   19.0790  -37.9230 C.3   228  ILE228      0.0020
    145  CD1       15.5840   19.2610  -38.6760 C.3   228  ILE228      0.0001
    146  N         10.7310   21.9010  -39.1820 N.am  229  TRP229     -0.1976
    147  CA         9.2850   21.6870  -39.2880 C.3   229  TRP229      0.1640
    148  C          8.3960   22.9320  -39.4520 C.2   229  TRP229      0.2290
    149  O          7.2270   22.8110  -39.8130 O.2   229  TRP229     -0.2864
    150  CB         8.7830   20.8770  -38.0900 C.3   229  TRP229      0.0576
    151  CG         8.8290   21.6370  -36.7890 C.ar  229  TRP229      0.0006
    152  CD1        9.8850   21.7250  -35.9240 C.ar  229  TRP229      0.0946
    153  CD2        7.7690   22.4140  -36.2060 C.ar  229  TRP229      0.0152
    154  NE1        9.5470   22.5080  -34.8410 N.ar  229  TRP229     -0.2442
    155  CE2        8.2570   22.9460  -34.9920 C.ar  229  TRP229      0.0810
    156  CE3        6.4600   22.7160  -36.5970 C.ar  229  TRP229      0.0012
    157  CZ2        7.4810   23.7570  -34.1630 C.ar  229  TRP229      0.0191
    158  CZ3        5.6900   23.5250  -35.7720 C.ar  229  TRP229      0.0001
    159  CH2        6.2020   24.0320  -34.5690 C.ar  229  TRP229      0.0015
    160  N          2.4130   27.1930  -38.7860 N.3   308  VAL308     -0.1245
    161  CA         2.1730   25.8090  -38.3790 C.3   308  VAL308      0.1561
    162  C          1.1200   25.1580  -39.2780 C.2   308  VAL308      0.2260
    163  O         -0.0780   25.2600  -39.0260 O.2   308  VAL308     -0.2867
    164  CB         1.7900   25.7010  -36.8850 C.3   308  VAL308      0.0252
    165  CG1        1.5690   24.2260  -36.4970 C.3   308  VAL308      0.0019
    166  CG2        2.8800   26.3470  -36.0140 C.3   308  VAL308      0.0019
    167  N          1.1750   21.7350  -40.5060 N.3   310  LEU310     -0.1245
    168  CA         0.9210   20.3040  -40.3000 C.3   310  LEU310      0.1561
    169  C          0.5970   19.6060  -41.6230 C.2   310  LEU310      0.2260
    170  O         -0.3510   18.8280  -41.7180 O.2   310  LEU310     -0.2867
    171  CB        -0.2220   20.0970  -39.3030 C.3   310  LEU310      0.0270
    172  CG        -0.0940   20.8660  -37.9820 C.3   310  LEU310      0.0019
    173  CD1       -1.3120   20.6440  -37.1030 C.3   310  LEU310      0.0001
    174  CD2        1.1840   20.5090  -37.2330 C.3   310  LEU310      0.0001
    175  N          1.8560   17.2240  -43.2510 N.3   312  MET312     -0.1230
    176  CA         1.9530   15.7620  -43.3160 C.3   312  MET312      0.1702
    177  C          0.6250   15.0950  -42.9970 C.2   312  MET312      0.2592
    178  O          0.4230   13.9200  -43.3110 O.2   312  MET312     -0.2718
    179  CB         3.0340   15.2250  -42.3700 C.3   312  MET312      0.0401
    180  CG         2.8370   15.5820  -40.9000 C.3   312  MET312      0.0596
    181  SD         3.4680   17.2390  -40.5580 S.3   312  MET312     -0.1393
    182  CE         3.0550   17.4440  -38.8310 C.3   312  MET312      0.0692
    183  N         -0.2870   15.8440  -42.3830 N.am  313  TRP313     -0.1976
    184  CA        -1.5720   15.2840  -41.9970 C.3   313  TRP313      0.1640
    185  C         -2.7420   15.8220  -42.8360 C.2   313  TRP313      0.2290
    186  O         -3.9040   15.6640  -42.4610 O.2   313  TRP313     -0.2864
    187  CB        -1.8180   15.4830  -40.4920 C.3   313  TRP313      0.0576
    188  CG        -0.7630   14.8450  -39.6340 C.ar  313  TRP313      0.0006
    189  CD1       -0.1440   13.6410  -39.8590 C.ar  313  TRP313      0.0946
    190  CD2       -0.1990   15.3620  -38.4200 C.ar  313  TRP313      0.0152
    191  NE1        0.7670   13.3880  -38.8680 N.ar  313  TRP313     -0.2442
    192  CE2        0.7520   14.4240  -37.9690 C.ar  313  TRP313      0.0810
    193  CE3       -0.4130   16.5220  -37.6650 C.ar  313  TRP313      0.0012
    194  CZ2        1.4940   14.6100  -36.7980 C.ar  313  TRP313      0.0191
    195  CZ3        0.3330   16.7090  -36.5060 C.ar  313  TRP313      0.0001
    196  CH2        1.2720   15.7570  -36.0860 C.ar  313  TRP313      0.0015
@<TRIPOS>BOND
     1   176   175    1
     2   176   177    1
     3   176   179    1
     4   178   177    2
     5   177   183   am
     6   185   186    2
     7   185   184    1
     8   101   103   ar
     9   101   100   ar
    10   183   184    1
    11   179   180    1
    12    95    96    1
    13   103   104   ar
    14   184   187    1
    15   170   169    2
    16   169   168    1
    17    93    92    1
    18    98    97    2
    19   100    99    1
    20   100   102   ar
    21    99    96    1
    22    96    97    1
    23   180   181    1
    24   104   102   ar
    25   104   106   ar
    26    90    89    1
    27    90    91    1
    28   181   182    1
    29   167   168    1
    30   187   188    1
    31   168   171    1
    32   141   140    2
    33    92    91    2
    34    92    94    1
    35   102   105   ar
    36   106   108   ar
    37    89    88    1
    38   189   188   ar
    39   189   191   ar
    40   149   148    2
    41   140   139    1
    42   140   146   am
    43   188   190   ar
    44    88    85    1
    45   148   147    1
    46   139   138    1
    47   139   142    1
    48   171   172    1
    49   147   146    1
    50   147   150    1
    51   162   163    2
    52   162   161    1
    53    86    85    1
    54    86    87    2
    55    85    84    1
    56   191   192   ar
    57   105   107   ar
    58   108   107   ar
    59   160   161    1
    60   145   143    1
    61   190   192   ar
    62   190   193   ar
    63   161   164    1
    64   150   151    1
    65   142   144    1
    66   142   143    1
    67   172   174    1
    68   172   173    1
    69   192   194   ar
    70   193   195   ar
    71   164   165    1
    72   164   166    1
    73   194   196   ar
    74   151   153   ar
    75   151   152   ar
    76   156   153   ar
    77   156   158   ar
    78   195   196   ar
    79   153   155   ar
    80   152   154   ar
    81   158   159   ar
    82    75    74    2
    83   112   111    2
    84    74    73    1
    85   155   154   ar
    86   155   157   ar
    87    76    73    1
    88    76    77    1
    89   159   157   ar
    90   137   136    1
    91   115   114    2
    92   111   110    1
    93    73    72    1
    94   113   110    1
    95   113   114    1
    96    77    79   ar
    97    77    78   ar
    98   110   109    1
    99   114   116   am
   100    79    81   ar
   101    70    69    1
   102    78    80   ar
   103    69    71    1
   104    69    66    1
   105   136   134   ar
   106   136   135   ar
   107   134   132   ar
   108    81    82   ar
   109    80    82   ar
   110    67    66    1
   111    67    68    2
   112    55    53   ar
   113    55    54   ar
   114    82    83    1
   115    53    51   ar
   116    66    65    1
   117   135   133   ar
   118   132   131   ar
   119   129   128    2
   120    54    52   ar
   121    51    50   ar
   122    51    49   ar
   123   133   131   ar
   124    65    58   am
   125   131   130    1
   126    50    48   ar
   127    59    58    2
   128   120   119    2
   129   128   127    1
   130    12    11    1
   131    52    49   ar
   132    58    57    1
   133    49    47   ar
   134   119   118    1
   135    10    11   ar
   136    10     8   ar
   137   130   127    1
   138   126   127    1
   139    11     9   ar
   140    48    47   ar
   141    47    46    1
   142     8     6   ar
   143    57    60    1
   144    57    56    1
   145   118   117    1
   146   118   121    1
   147    44    45    2
   148    44    43    1
   149    61    60    1
   150    61    62    1
   151    20    18    1
   152     9     7   ar
   153     6     7   ar
   154     6     5    1
   155    43    46    1
   156    43    42    1
   157   122   121    1
   158   122   123    1
   159    62    64   ar
   160    62    63   ar
   161   124   123    2
   162     5     2    1
   163    18    17    1
   164   123   125   am
   165    32    31    1
   166    29    31   ar
   167    29    27   ar
   168    17    19    1
   169    17    14    1
   170    16    15    2
   171     4     3    2
   172    31    30   ar
   173    27    26   ar
   174     3     2    1
   175    39    40    1
   176    39    38    1
   177     2     1    1
   178    15    14    1
   179    15    21   am
   180    40    41    1
   181    14    13    1
   182    30    28   ar
   183    26    28   ar
   184    26    25    1
   185    22    21    1
   186    22    25    1
   187    22    23    1
   188    37    38    1
   189    37    34    1
   190    24    23    2
   191    35    34    1
   192    35    36    2
   193    34    33    1
