@<TRIPOS>MOLECULE
tmp/3g1uB00.pdb
 160 151 0 0 0
SMALL
GASTEIGER

@<TRIPOS>ATOM
      1  N        -10.0680   10.1820   39.2160 N.3    49  LEU49      -0.1231
      2  CA        -9.7420    9.0770   38.3200 C.3    49  LEU49       0.1693
      3  C         -9.8540    9.5480   36.8740 C.2    49  LEU49       0.2592
      4  O        -10.8360   10.2120   36.5210 O.2    49  LEU49      -0.2718
      5  CB       -10.7250    7.9180   38.5560 C.3    49  LEU49       0.0284
      6  CG       -10.3430    6.4850   38.1590 C.3    49  LEU49       0.0019
      7  CD1      -11.3600    5.5150   38.7430 C.3    49  LEU49       0.0001
      8  CD2      -10.2610    6.2870   36.6460 C.3    49  LEU49       0.0001
      9  N         -8.8460    9.2090   36.0520 N.am   50  HIS50      -0.1976
     10  CA        -8.7750    9.5880   34.6150 C.3    50  HIS50       0.1656
     11  C        -10.1170    9.8120   33.9430 C.2    50  HIS50       0.2291
     12  O        -10.8950    8.8640   33.7570 O.2    50  HIS50      -0.2864
     13  CB        -8.0270    8.5240   33.7990 C.3    50  HIS50       0.0771
     14  CG        -6.7680    8.0610   34.4440 C.ar   50  HIS50       0.0820
     15  ND1       -5.6470    8.8570   34.5400 N.ar   50  HIS50      -0.2267
     16  CD2       -6.4570    6.8950   35.0490 C.ar   50  HIS50       0.1154
     17  CE1       -4.6870    8.1910   35.1540 C.ar   50  HIS50       0.1986
     18  NE2       -5.1520    6.9950   35.4720 N.ar   50  HIS50      -0.2212
     19  N        -12.0410    9.6410   31.4010 N.3    52  THR52      -0.1218
     20  CA       -12.1150    9.0610   30.0740 C.3    52  THR52       0.1862
     21  C        -13.5390    8.6440   29.7480 C.2    52  THR52       0.2287
     22  O        -14.4040    8.6350   30.6170 O.2    52  THR52      -0.2866
     23  CB       -11.2520    7.8020   29.9780 C.3    52  THR52       0.1770
     24  OG1      -11.8000    6.8160   30.8460 O.3    52  THR52      -0.2211
     25  CG2       -9.8170    8.0800   30.3640 C.3    52  THR52       0.0375
     26  N        -14.4200    5.6390   29.3810 N.3    54  GLN54      -0.1231
     27  CA       -14.7040    4.5150   30.2820 C.3    54  GLN54       0.1698
     28  C        -15.1670    5.0130   31.6600 C.2    54  GLN54       0.2592
     29  O        -16.1250    4.4960   32.2360 O.2    54  GLN54      -0.2718
     30  CB       -13.4780    3.5940   30.4260 C.3    54  GLN54       0.0381
     31  CG       -13.0540    2.9090   29.1420 C.3    54  GLN54       0.0905
     32  CD       -12.4820    3.8680   28.1080 C.2    54  GLN54       0.2608
     33  OE1      -11.7430    4.8040   28.4390 O.2    54  GLN54      -0.2717
     34  NE2      -12.8510    3.6580   26.8490 N.am   54  GLN54      -0.0878
     35  N        -14.4770    6.0280   32.1800 N.am   55  THR55      -0.1953
     36  CA       -14.8190    6.5960   33.4870 C.3    55  THR55       0.1897
     37  C        -16.2070    7.2470   33.4870 C.2    55  THR55       0.2313
     38  O        -16.9070    7.2130   34.4900 O.2    55  THR55      -0.2863
     39  CB       -13.7300    7.5640   33.9670 C.3    55  THR55       0.1794
     40  OG1      -12.5670    6.8050   34.3030 O.3    55  THR55      -0.2208
     41  CG2      -14.1720    8.3320   35.1990 C.3    55  THR55       0.0378
     42  N         -7.7040    6.9380   42.5640 N.3   128  ASP128     -0.1239
     43  CA        -6.8400    6.2200   41.6500 C.3   128  ASP128      0.1674
     44  C         -5.4580    6.8010   41.8610 C.2   128  ASP128      0.2266
     45  O         -5.1340    7.8450   41.3080 O.2   128  ASP128     -0.2867
     46  CB        -7.3190    6.4370   40.2120 C.3   128  ASP128      0.1410
     47  CG        -6.4270    5.7560   39.1620 C.2   128  ASP128      0.3668
     48  OD1       -5.2250    5.5110   39.4070 O.co2 128  ASP128     -0.2456
     49  OD2       -6.9370    5.4890   38.0530 O.co2 128  ASP128     -0.2456
     50  N         -8.2110    2.0690   43.0810 N.3   153  GLU153     -0.1231
     51  CA        -8.0610    1.4010   41.7940 C.3   153  GLU153      0.1699
     52  C         -6.6990    0.7180   41.5120 C.2   153  GLU153      0.2592
     53  O         -6.6660   -0.3240   40.8400 O.2   153  GLU153     -0.2718
     54  CB        -8.3480    2.4710   40.7200 C.3   153  GLU153      0.0402
     55  CG        -8.0630    2.1000   39.2460 C.3   153  GLU153      0.1161
     56  CD        -9.2590    1.4770   38.5410 C.2   153  GLU153      0.3649
     57  OE1       -9.0750    1.0300   37.3820 O.co2 153  GLU153     -0.2457
     58  OE2      -10.3640    1.4240   39.1430 O.co2 153  GLU153     -0.2457
     59  N         -5.5960    1.2830   42.0100 N.am  154  THR154     -0.1953
     60  CA        -4.2770    1.0290   41.3970 C.3   154  THR154      0.1897
     61  C         -3.1520    0.6470   42.3830 C.2   154  THR154      0.2313
     62  O         -3.1930    1.0000   43.5640 O.2   154  THR154     -0.2863
     63  CB        -3.8570    2.2320   40.4580 C.3   154  THR154      0.1794
     64  OG1       -2.9830    1.7730   39.4160 O.3   154  THR154     -0.2208
     65  CG2       -3.1950    3.3580   41.2310 C.3   154  THR154      0.0378
     66  N         -7.7210   -2.8370   43.3270 N.3   178  ASN178     -0.1240
     67  CA        -6.6430   -3.2710   42.4130 C.3   178  ASN178      0.1653
     68  C         -6.4900   -4.8010   42.3870 C.2   178  ASN178      0.2266
     69  O         -6.3030   -5.3940   41.3300 O.2   178  ASN178     -0.2867
     70  CB        -5.3020   -2.5630   42.7460 C.3   178  ASN178      0.1155
     71  CG        -4.1670   -2.9050   41.7580 C.2   178  ASN178      0.2627
     72  OD1       -4.2340   -2.5830   40.5630 O.2   178  ASN178     -0.2716
     73  ND2       -3.1200   -3.5440   42.2610 N.am  178  ASN178     -0.0877
     74  N         -4.7410   -5.4630   34.5350 N.3   182  ASN182     -0.1240
     75  CA        -3.6450   -4.5890   34.1300 C.3   182  ASN182      0.1653
     76  C         -2.7500   -5.2620   33.0860 C.2   182  ASN182      0.2266
     77  O         -2.1320   -4.5760   32.2750 O.2   182  ASN182     -0.2867
     78  CB        -2.7550   -4.2010   35.3110 C.3   182  ASN182      0.1155
     79  CG        -3.5160   -3.5630   36.4590 C.2   182  ASN182      0.2627
     80  OD1       -4.5400   -2.8890   36.2570 O.2   182  ASN182     -0.2716
     81  ND2       -2.9680   -3.7190   37.6850 N.am  182  ASN182     -0.0877
     82  N          2.2110    4.7170   37.3490 N.3   292  HIS292     -0.1241
     83  CA         1.2990    5.8110   37.7680 C.3   292  HIS292      0.1621
     84  C          1.9110    7.2400   37.8410 C.2   292  HIS292      0.2264
     85  O          1.2420    8.2030   37.4720 O.2   292  HIS292     -0.2867
     86  CB         0.5380    5.4870   39.0710 C.3   292  HIS292      0.0745
     87  CG        -0.4910    6.5220   39.4350 C.ar  292  HIS292      0.0817
     88  ND1       -1.7190    6.6010   38.8110 N.ar  292  HIS292     -0.2268
     89  CD2       -0.4550    7.5530   40.3180 C.ar  292  HIS292      0.1154
     90  CE1       -2.4050    7.6180   39.3100 C.ar  292  HIS292      0.1986
     91  NE2       -1.6600    8.2140   40.2250 N.ar  292  HIS292     -0.2212
     92  N          1.7610    8.5980   32.2310 N.3   335  LEU335     -0.1245
     93  CA         1.3090    7.2940   31.7090 C.3   335  LEU335      0.1561
     94  C          0.9180    7.3460   30.2250 C.2   335  LEU335      0.2260
     95  O         -0.0460    8.0130   29.8220 O.2   335  LEU335     -0.2867
     96  CB         0.2200    6.6140   32.5770 C.3   335  LEU335      0.0270
     97  CG        -0.5040    7.2770   33.7540 C.3   335  LEU335      0.0019
     98  CD1       -1.2200    8.5200   33.3110 C.3   335  LEU335      0.0001
     99  CD2       -1.4810    6.2960   34.4150 C.3   335  LEU335      0.0001
    100  N         -0.1020    5.2430   27.8760 N.3   337  ASN337     -0.1225
    101  CA        -1.3210    4.6640   27.2880 C.3   337  ASN337      0.1785
    102  C         -2.4650    5.6680   27.3250 C.2   337  ASN337      0.2597
    103  O         -3.2160    5.7740   26.3790 O.2   337  ASN337     -0.2718
    104  CB        -1.6960    3.3220   27.9400 C.3   337  ASN337      0.1169
    105  CG        -2.0200    3.4430   29.4390 C.2   337  ASN337      0.2627
    106  OD1       -1.5910    4.3760   30.1160 O.2   337  ASN337     -0.2716
    107  ND2       -2.7910    2.4910   29.9520 N.am  337  ASN337     -0.0877
    108  N         -2.5520    6.4240   28.4150 N.am  338  LEU338     -0.1980
    109  CA        -3.5700    7.4530   28.6110 C.3   338  LEU338      0.1596
    110  C         -3.1720    8.8270   28.0540 C.2   338  LEU338      0.2287
    111  O         -4.0280    9.6090   27.6540 O.2   338  LEU338     -0.2864
    112  CB        -3.8880    7.5890   30.1140 C.3   338  LEU338      0.0297
    113  CG        -4.7240    6.4340   30.7020 C.3   338  LEU338      0.0022
    114  CD1       -4.4580    6.2120   32.1830 C.3   338  LEU338      0.0001
    115  CD2       -6.2300    6.6520   30.4350 C.3   338  LEU338      0.0001
    116  N         -5.8110    6.2370   24.3100 N.3   342  SER342     -0.1202
    117  CA        -7.0800    6.3110   25.0360 C.3   342  SER342      0.2020
    118  C         -7.1180    5.5100   26.3290 C.2   342  SER342      0.2619
    119  O         -8.1760    5.3470   26.9040 O.2   342  SER342     -0.2717
    120  CB        -8.2380    5.8810   24.1330 C.3   342  SER342      0.2103
    121  OG        -8.2170    6.6030   22.9140 O.3   342  SER342     -0.2182
    122  N         -5.9690    5.0210   26.7880 N.am  343  GLY343     -0.1942
    123  CA        -5.9030    4.1240   27.9500 C.3   343  GLY343      0.2014
    124  C         -6.3840    2.7190   27.6350 C.2   343  GLY343      0.2638
    125  O         -6.5640    2.3840   26.4750 O.2   343  GLY343     -0.2714
    126  N         -6.5750    1.8900   28.6600 N.am  344  HIS344     -0.1973
    127  CA        -7.1660    0.5480   28.4720 C.3   344  HIS344      0.1656
    128  C         -8.5410    0.6570   27.8200 C.2   344  HIS344      0.2291
    129  O         -9.2820    1.6190   28.0870 O.2   344  HIS344     -0.2864
    130  CB        -7.3510   -0.1720   29.8050 C.3   344  HIS344      0.0771
    131  CG        -6.0820   -0.4340   30.5440 C.ar  344  HIS344      0.0820
    132  ND1       -4.8350   -0.3300   29.9570 N.ar  344  HIS344     -0.2267
    133  CD2       -5.8660   -0.8370   31.8170 C.ar  344  HIS344      0.1154
    134  CE1       -3.9070   -0.6240   30.8490 C.ar  344  HIS344      0.1986
    135  NE2       -4.5040   -0.9360   31.9840 N.ar  344  HIS344     -0.2212
    136  N        -11.8300   -2.3670   31.2800 N.3   349  MET349     -0.1245
    137  CA       -12.1520   -1.3860   32.3190 C.3   349  MET349      0.1570
    138  C        -13.4720   -1.7170   33.0490 C.2   349  MET349      0.2261
    139  O        -13.6400   -1.3890   34.2390 O.2   349  MET349     -0.2867
    140  CB       -12.1700    0.0450   31.7670 C.3   349  MET349      0.0387
    141  CG       -10.7800    0.6200   31.4110 C.3   349  MET349      0.0595
    142  SD        -9.4840    0.3090   32.6410 S.3   349  MET349     -0.1393
    143  CE       -10.1040    1.1380   34.1080 C.3   349  MET349      0.0692
    144  N        -12.8200   -3.7290   36.4360 N.3   352  SER352     -0.1202
    145  CA       -12.3760   -3.0890   37.6630 C.3   352  SER352      0.2020
    146  C        -13.3870   -2.0390   38.1240 C.2   352  SER352      0.2618
    147  O        -13.5340   -1.7920   39.3250 O.2   352  SER352     -0.2717
    148  CB       -10.9840   -2.4870   37.5120 C.3   352  SER352      0.2103
    149  OG       -11.0050   -1.5410   36.4770 O.3   352  SER352     -0.2182
    150  N        -14.0680   -1.4360   37.1570 N.am  353  PHE353     -0.1975
    151  CA       -15.0910   -0.4240   37.4240 C.3   353  PHE353      0.1639
    152  C        -16.3800   -1.0200   38.0110 C.2   353  PHE353      0.2290
    153  O        -17.0310   -0.3900   38.8700 O.2   353  PHE353     -0.2864
    154  CB       -15.3590    0.4090   36.1610 C.3   353  PHE353      0.0560
    155  CG       -14.2850    1.4550   35.8720 C.ar  353  PHE353     -0.0200
    156  CD1      -13.2230    1.6580   36.7530 C.ar  353  PHE353     -0.0042
    157  CD2      -14.3830    2.2660   34.7550 C.ar  353  PHE353     -0.0042
    158  CE1      -12.2680    2.6320   36.5020 C.ar  353  PHE353     -0.0003
    159  CE2      -13.4490    3.2520   34.5000 C.ar  353  PHE353     -0.0003
    160  CZ       -12.3860    3.4330   35.3770 C.ar  353  PHE353     -0.0000
@<TRIPOS>BOND
     1   121   120    1
     2   120   117    1
     3   116   117    1
     4   117   118    1
     5   118   122   am
     6   118   119    2
     7   103   102    2
     8   125   124    2
     9   122   123    1
    10    34    32   am
    11   101   102    1
    12   101   100    1
    13   101   104    1
    14   102   108   am
    15   124   123    1
    16   124   126   am
    17   111   110    2
    18   128   129    2
    19   128   127    1
    20   104   105    1
    21   110   109    1
    22    32    33    2
    23    32    31    1
    24   108   109    1
    25   127   126    1
    26   127   130    1
    27   109   112    1
    28    31    30    1
    29    26    27    1
    30   105   107   am
    31   105   106    2
    32    21    20    1
    33    21    22    2
    34   130   131    1
    35    95    94    2
    36   132   131   ar
    37   132   134   ar
    38    23    20    1
    39    23    25    1
    40    23    24    1
    41    20    19    1
    42   112   113    1
    43    94    93    1
    44    27    30    1
    45    27    28    1
    46   115   113    1
    47   131   133   ar
    48   113   114    1
    49   134   135   ar
    50   136   137    1
    51   141   140    1
    52   141   142    1
    53    28    35   am
    54    28    29    2
    55    93    92    1
    56    93    96    1
    57   140   137    1
    58   133   135   ar
    59    35    36    1
    60    77    76    2
    61   137   138    1
    62    96    97    1
    63   142   143    1
    64   138   139    2
    65    76    75    1
    66    98    97    1
    67    37    36    1
    68    37    38    2
    69    36    39    1
    70    97    99    1
    71    12    11    2
    72    13    14    1
    73    13    10    1
    74    11    10    1
    75    39    40    1
    76    39    41    1
    77    75    74    1
    78    75    78    1
    79    14    15   ar
    80    14    16   ar
    81   159   157   ar
    82   159   160   ar
    83    15    17   ar
    84    10     9    1
    85   157   155   ar
    86    16    18   ar
    87    17    18   ar
    88    78    79    1
    89   160   158   ar
    90   155   154    1
    91   155   156   ar
    92     9     3   am
    93   154   151    1
    94    80    79    2
    95   144   145    1
    96    79    81   am
    97   149   148    1
    98   158   156   ar
    99     4     3    2
   100     8     6    1
   101     3     2    1
   102   150   151    1
   103   150   146   am
   104    82    83    1
   105    57    56   ar
   106   151   152    1
   107    85    84    2
   108   148   145    1
   109   145   146    1
   110    83    84    1
   111    83    86    1
   112   152   153    2
   113    49    47   ar
   114   146   147    2
   115     6     5    1
   116     6     7    1
   117     2     5    1
   118     2     1    1
   119    56    58   ar
   120    56    55    1
   121    88    90   ar
   122    88    87   ar
   123    86    87    1
   124    47    48   ar
   125    47    46    1
   126    55    54    1
   127    90    91   ar
   128    64    63    1
   129    87    89   ar
   130    46    43    1
   131    91    89   ar
   132    63    65    1
   133    63    60    1
   134    72    71    2
   135    54    51    1
   136    53    52    2
   137    45    44    2
   138    69    68    2
   139    60    59    1
   140    60    61    1
   141    52    51    1
   142    52    59   am
   143    43    44    1
   144    43    42    1
   145    71    73   am
   146    71    70    1
   147    51    50    1
   148    61    62    2
   149    68    67    1
   150    67    70    1
   151    67    66    1
