@<TRIPOS>MOLECULE
tmp/3g1zB00.pdb
 174 165 0 0 0
SMALL
GASTEIGER

@<TRIPOS>ATOM
      1  N        -15.0660  -19.4860   -9.4570 N.3    49  LEU49      -0.1245
      2  CA       -14.1360  -18.4050   -9.7840 C.3    49  LEU49       0.1561
      3  C        -13.6020  -17.6680   -8.5750 C.2    49  LEU49       0.2260
      4  O        -14.3520  -17.3800   -7.6180 O.2    49  LEU49      -0.2867
      5  CB       -14.8000  -17.4200  -10.7470 C.3    49  LEU49       0.0270
      6  CG       -14.5550  -17.5510  -12.2530 C.3    49  LEU49       0.0019
      7  CD1      -14.0410  -18.9210  -12.7280 C.3    49  LEU49       0.0001
      8  CD2      -15.8010  -17.0730  -13.0350 C.3    49  LEU49       0.0001
      9  N        -13.5830  -12.5220  -16.8030 N.3    69  SER69      -0.1217
     10  CA       -13.8970  -12.4570  -18.2420 C.3    69  SER69       0.1889
     11  C        -14.5140  -11.0860  -18.5430 C.2    69  SER69       0.2288
     12  O        -15.0090  -10.4310  -17.6220 O.2    69  SER69      -0.2866
     13  CB       -14.8760  -13.5620  -18.6700 C.3    69  SER69       0.2089
     14  OG       -16.1860  -13.1820  -18.3230 O.3    69  SER69      -0.2183
     15  N         -7.5770  -14.7320  -13.2650 N.3    93  ARG93      -0.1245
     16  CA        -8.1970  -15.6830  -12.3470 C.3    93  ARG93       0.1563
     17  C         -7.2050  -16.1360  -11.2880 C.2    93  ARG93       0.2260
     18  O         -6.1540  -16.6680  -11.6230 O.2    93  ARG93      -0.2867
     19  CB        -8.7750  -16.8760  -13.1230 C.3    93  ARG93       0.0307
     20  CG        -9.8470  -16.4160  -14.1110 C.3    93  ARG93       0.0489
     21  CD       -10.6350  -17.5360  -14.6860 C.3    93  ARG93       0.2205
     22  NE       -11.4910  -17.0000  -15.7400 N.pl3  93  ARG93      -0.0865
     23  CZ       -12.3730  -17.7080  -16.4190 C.cat  93  ARG93       0.5346
     24  NH1      -12.5060  -19.0110  -16.1680 N.pl3  93  ARG93       0.1354
     25  NH2      -13.0910  -17.1090  -17.3670 N.pl3  93  ARG93       0.1354
     26  N         -5.7310  -18.3950   -9.5880 N.3    95  GLU95      -0.1245
     27  CA        -5.5150  -19.8500   -9.4980 C.3    95  GLU95       0.1567
     28  C         -4.0790  -20.1710   -9.9150 C.2    95  GLU95       0.2260
     29  O         -3.5300  -19.5210  -10.8270 O.2    95  GLU95      -0.2867
     30  CB        -6.5280  -20.6370  -10.3600 C.3    95  GLU95       0.0388
     31  CG        -6.4740  -20.3780  -11.8720 C.3    95  GLU95       0.1160
     32  CD        -7.8020  -20.6410  -12.5860 C.2    95  GLU95       0.3649
     33  OE1       -8.7880  -21.0000  -11.9220 O.co2  95  GLU95      -0.2457
     34  OE2       -7.8670  -20.4890  -13.8200 O.co2  95  GLU95      -0.2457
     35  N         -1.7940  -25.9680  -18.1210 N.3   100  HIS100     -0.1226
     36  CA        -2.8530  -25.3540  -18.9520 C.3   100  HIS100      0.1752
     37  C         -3.4910  -24.0980  -18.3720 C.2   100  HIS100      0.2596
     38  O         -4.4800  -23.6130  -18.8980 O.2   100  HIS100     -0.2718
     39  CB        -3.9510  -26.3740  -19.3110 C.3   100  HIS100      0.0759
     40  CG        -3.4270  -27.6290  -19.9270 C.ar  100  HIS100      0.0818
     41  ND1       -2.3490  -27.6410  -20.7850 N.ar  100  HIS100     -0.2268
     42  CD2       -3.8300  -28.9100  -19.8130 C.ar  100  HIS100      0.1154
     43  CE1       -2.1140  -28.8790  -21.1770 C.ar  100  HIS100      0.1986
     44  NE2       -2.9960  -29.6690  -20.5950 N.ar  100  HIS100     -0.2212
     45  N         -2.9220  -23.5610  -17.3020 N.am  101  HIS101     -0.1961
     46  CA        -3.4590  -22.3660  -16.6520 C.3   101  HIS101      0.1787
     47  C         -2.3520  -21.3690  -16.2800 C.2   101  HIS101      0.2620
     48  O         -1.2680  -21.7500  -15.8230 O.2   101  HIS101     -0.2715
     49  CB        -4.1820  -22.7310  -15.3540 C.3   101  HIS101      0.0785
     50  CG        -5.3730  -23.6280  -15.5210 C.ar  101  HIS101      0.0821
     51  ND1       -5.2710  -25.0020  -15.5830 N.ar  101  HIS101     -0.2267
     52  CD2       -6.6980  -23.3520  -15.5370 C.ar  101  HIS101      0.1154
     53  CE1       -6.4770  -25.5280  -15.6830 C.ar  101  HIS101      0.1986
     54  NE2       -7.3590  -24.5510  -15.6430 N.ar  101  HIS101     -0.2212
     55  N         -2.6520  -20.0910  -16.4460 N.am  102  ASN102     -0.1972
     56  CA        -1.8330  -18.9910  -15.9270 C.3   102  ASN102      0.1688
     57  C         -2.7870  -18.0060  -15.2720 C.2   102  ASN102      0.2292
     58  O         -3.9080  -17.8630  -15.7410 O.2   102  ASN102     -0.2864
     59  CB        -1.0530  -18.3270  -17.0620 C.3   102  ASN102      0.1181
     60  CG         0.1590  -17.5380  -16.5830 C.2   102  ASN102      0.2629
     61  OD1        1.1260  -18.0930  -16.0610 O.2   102  ASN102     -0.2716
     62  ND2        0.1180  -16.2210  -16.7890 N.am  102  ASN102     -0.0877
     63  N         -4.3220  -14.5320  -18.5580 N.3   105  PHE105     -0.1241
     64  CA        -4.3310  -15.2620  -19.8190 C.3   105  PHE105      0.1605
     65  C         -5.1160  -14.4720  -20.8500 C.2   105  PHE105      0.2264
     66  O         -5.8730  -13.5750  -20.4900 O.2   105  PHE105     -0.2867
     67  CB        -4.8660  -16.6950  -19.5960 C.3   105  PHE105      0.0534
     68  CG        -6.3370  -16.7540  -19.2400 C.ar  105  PHE105     -0.0203
     69  CD1       -6.7630  -16.5890  -17.9290 C.ar  105  PHE105     -0.0042
     70  CD2       -7.2850  -16.9480  -20.2320 C.ar  105  PHE105     -0.0042
     71  CE1       -8.1280  -16.6440  -17.6050 C.ar  105  PHE105     -0.0003
     72  CE2       -8.6680  -16.9880  -19.9190 C.ar  105  PHE105     -0.0003
     73  CZ        -9.0670  -16.8370  -18.6030 C.ar  105  PHE105     -0.0000
     74  N         -8.0430  -13.9270  -23.4010 N.3   107  MET107     -0.1245
     75  CA        -9.3370  -14.4690  -23.7840 C.3   107  MET107      0.1570
     76  C         -9.8190  -13.8330  -25.0630 C.2   107  MET107      0.2261
     77  O         -9.6070  -12.6400  -25.2910 O.2   107  MET107     -0.2867
     78  CB       -10.3820  -14.2770  -22.6850 C.3   107  MET107      0.0387
     79  CG       -11.7040  -15.0020  -22.9720 C.3   107  MET107      0.0595
     80  SD       -12.8330  -14.8370  -21.5940 S.3   107  MET107     -0.1393
     81  CE       -11.8680  -15.5340  -20.2680 C.3   107  MET107      0.0692
     82  N        -23.4660  -19.7160  -17.8510 N.3   209  LEU209     -0.1245
     83  CA       -24.0910  -18.4620  -18.3390 C.3   209  LEU209      0.1561
     84  C        -25.3180  -18.6950  -19.2410 C.2   209  LEU209      0.2260
     85  O        -26.0370  -17.7520  -19.5780 O.2   209  LEU209     -0.2867
     86  CB       -23.0470  -17.5780  -19.0670 C.3   209  LEU209      0.0270
     87  CG       -21.6240  -17.4370  -18.4830 C.3   209  LEU209      0.0019
     88  CD1      -20.7390  -16.5890  -19.3790 C.3   209  LEU209      0.0001
     89  CD2      -21.6160  -16.8970  -17.0470 C.3   209  LEU209      0.0001
     90  N         -9.5840  -28.1760  -23.0340 N.3   231  GLU231     -0.1231
     91  CA       -10.7760  -27.3480  -23.1260 C.3   231  GLU231      0.1699
     92  C        -10.4090  -25.9910  -23.7070 C.2   231  GLU231      0.2592
     93  O         -9.6600  -25.2270  -23.0960 O.2   231  GLU231     -0.2718
     94  CB       -11.4010  -27.1780  -21.7420 C.3   231  GLU231      0.0402
     95  CG       -12.6370  -26.3530  -21.7420 C.3   231  GLU231      0.1161
     96  CD       -12.8820  -25.7420  -20.3760 C.2   231  GLU231      0.3649
     97  OE1      -12.6020  -26.4140  -19.3500 O.co2 231  GLU231     -0.2457
     98  OE2      -13.3450  -24.5880  -20.3420 O.co2 231  GLU231     -0.2457
     99  N        -10.9500  -25.7110  -24.8940 N.am  232  LEU232     -0.1966
    100  CA       -10.6130  -24.5180  -25.6590 C.3   232  LEU232      0.1728
    101  C        -11.6530  -23.4220  -25.6150 C.2   232  LEU232      0.2616
    102  O        -11.3030  -22.2510  -25.7420 O.2   232  LEU232     -0.2715
    103  CB       -10.4030  -24.8550  -27.1210 C.3   232  LEU232      0.0311
    104  CG        -9.1690  -25.5620  -27.6450 C.3   232  LEU232      0.0022
    105  CD1       -9.4310  -25.8070  -29.1030 C.3   232  LEU232      0.0001
    106  CD2       -7.9120  -24.6900  -27.4620 C.3   232  LEU232      0.0001
    107  N        -12.9350  -23.7710  -25.4740 N.am  233  ALA233     -0.1963
    108  CA       -13.9630  -22.7250  -25.4830 C.3   233  ALA233      0.1728
    109  C        -15.2380  -23.1370  -24.7840 C.2   233  ALA233      0.2616
    110  O        -15.5340  -24.3240  -24.6780 O.2   233  ALA233     -0.2715
    111  CB       -14.2710  -22.2420  -26.9110 C.3   233  ALA233      0.0334
    112  N        -15.9600  -22.1310  -24.2970 N.am  234  ASN234     -0.1972
    113  CA       -17.2650  -22.2520  -23.6400 C.3   234  ASN234      0.1688
    114  C        -18.2320  -21.2310  -24.2760 C.2   234  ASN234      0.2292
    115  O        -17.9520  -20.0260  -24.2470 O.2   234  ASN234     -0.2864
    116  CB       -17.0750  -21.9270  -22.1520 C.3   234  ASN234      0.1181
    117  CG       -18.2620  -22.3240  -21.2990 C.2   234  ASN234      0.2629
    118  OD1      -19.1310  -23.0610  -21.7360 O.2   234  ASN234     -0.2716
    119  ND2      -18.2920  -21.8410  -20.0580 N.am  234  ASN234     -0.0877
    120  N        -22.6250  -20.0290  -25.1240 N.3   236  PHE236     -0.1241
    121  CA       -23.9420  -20.0830  -24.4990 C.3   236  PHE236      0.1605
    122  C        -24.9050  -19.3010  -25.3510 C.2   236  PHE236      0.2264
    123  O        -24.5270  -18.3210  -25.9700 O.2   236  PHE236     -0.2867
    124  CB       -23.9020  -19.4000  -23.1280 C.3   236  PHE236      0.0534
    125  CG       -22.6730  -19.7260  -22.3350 C.ar  236  PHE236     -0.0203
    126  CD1      -22.6880  -20.7560  -21.4230 C.ar  236  PHE236     -0.0042
    127  CD2      -21.4790  -19.0390  -22.5600 C.ar  236  PHE236     -0.0042
    128  CE1      -21.5510  -21.0680  -20.6970 C.ar  236  PHE236     -0.0003
    129  CE2      -20.3470  -19.3440  -21.8380 C.ar  236  PHE236     -0.0003
    130  CZ       -20.3920  -20.3510  -20.9060 C.ar  236  PHE236     -0.0000
    131  N        -16.4890  -17.8040  -25.0870 N.3   282  ALA282     -0.1231
    132  CA       -15.2030  -17.4570  -24.4990 C.3   282  ALA282      0.1694
    133  C        -14.2020  -18.5370  -24.8840 C.2   282  ALA282      0.2592
    134  O        -14.4630  -19.7190  -24.6800 O.2   282  ALA282     -0.2718
    135  CB       -15.3230  -17.3310  -23.0000 C.3   282  ALA282      0.0304
    136  N        -13.0820  -18.1220  -25.4720 N.am  283  LEU283     -0.1966
    137  CA       -12.0760  -19.0430  -25.9430 C.3   283  LEU283      0.1728
    138  C        -10.7140  -18.7210  -25.3550 C.2   283  LEU283      0.2616
    139  O        -10.3020  -17.5350  -25.3010 O.2   283  LEU283     -0.2715
    140  CB       -12.0360  -19.0360  -27.4940 C.3   283  LEU283      0.0311
    141  CG       -10.9850  -19.9320  -28.1570 C.3   283  LEU283      0.0022
    142  CD1      -11.5600  -20.4690  -29.4680 C.3   283  LEU283      0.0001
    143  CD2       -9.6390  -19.1850  -28.3690 C.3   283  LEU283      0.0001
    144  N         -9.9900  -19.7750  -24.9660 N.am  284  GLY284     -0.1955
    145  CA        -8.6310  -19.6240  -24.4060 C.3   284  GLY284      0.1869
    146  C         -7.5860  -19.4900  -25.4970 C.2   284  GLY284      0.2309
    147  O         -7.1800  -20.4900  -26.1110 O.2   284  GLY284     -0.2863
    148  N         -4.3500  -18.6140  -25.4830 N.3   286  ASP286     -0.1225
    149  CA        -3.0490  -19.2440  -25.1900 C.3   286  ASP286      0.1805
    150  C         -3.0980  -20.7490  -25.4450 C.2   286  ASP286      0.2597
    151  O         -2.1650  -21.3180  -25.9950 O.2   286  ASP286     -0.2718
    152  CB        -2.6350  -18.9900  -23.7260 C.3   286  ASP286      0.1424
    153  CG        -2.7400  -17.5330  -23.3420 C.2   286  ASP286      0.3668
    154  OD1       -1.8970  -16.7340  -23.7800 O.co2 286  ASP286     -0.2456
    155  OD2       -3.6920  -17.1710  -22.6250 O.co2 286  ASP286     -0.2456
    156  N         -4.1830  -21.3820  -25.0150 N.am  287  ARG287     -0.1979
    157  CA        -4.4280  -22.7870  -25.2880 C.3   287  ARG287      0.1597
    158  C         -4.5310  -23.0470  -26.7740 C.2   287  ARG287      0.2287
    159  O         -3.9620  -24.0420  -27.2810 O.2   287  ARG287     -0.2864
    160  CB        -5.6990  -23.2490  -24.6000 C.3   287  ARG287      0.0334
    161  CG        -5.5310  -23.4100  -23.0890 C.3   287  ARG287      0.0492
    162  CD        -6.7540  -24.0020  -22.4400 C.3   287  ARG287      0.2205
    163  NE        -6.6360  -23.9330  -20.9690 N.pl3 287  ARG287     -0.0865
    164  CZ        -7.5190  -24.4380  -20.1240 C.cat 287  ARG287      0.5346
    165  NH1       -8.5990  -25.0560  -20.5820 N.pl3 287  ARG287      0.1354
    166  NH2       -7.3350  -24.3110  -18.8110 N.pl3 287  ARG287      0.1354
    167  N          1.6100  -23.8250  -21.4620 N.3   298  LEU298     -0.1245
    168  CA         1.3540  -22.4230  -21.7620 C.3   298  LEU298      0.1561
    169  C          2.6540  -21.6660  -21.6730 C.2   298  LEU298      0.2260
    170  O          2.7780  -20.5530  -22.1740 O.2   298  LEU298     -0.2867
    171  CB         0.3170  -21.8390  -20.7920 C.3   298  LEU298      0.0270
    172  CG        -1.1560  -22.2720  -20.8820 C.3   298  LEU298      0.0019
    173  CD1       -2.0440  -21.3240  -20.0530 C.3   298  LEU298      0.0001
    174  CD2       -1.7540  -22.3880  -22.3200 C.3   298  LEU298      0.0001
@<TRIPOS>BOND
     1   142   141    1
     2   105   104    1
     3   143   141    1
     4   141   140    1
     5   104   106    1
     6   104   103    1
     7   140   137    1
     8   159   158    2
     9   103   100    1
    10   111   108    1
    11   158   157    1
    12   147   146    2
    13   151   150    2
    14   123   122    2
    15   137   136    1
    16   137   138    1
    17   102   101    2
    18   100   101    1
    19   100    99    1
    20   101   107   am
    21   146   145    1
    22   108   107    1
    23   108   109    1
    24   148   149    1
    25   136   133   am
    26   150   149    1
    27   150   156   am
    28   138   139    2
    29   138   144   am
    30   122   121    1
    31    77    76    2
    32   157   156    1
    33   157   160    1
    34   149   152    1
    35   120   121    1
    36   131   132    1
    37    76    75    1
    38   144   145    1
    39    99    92   am
    40   133   134    2
    41   133   132    1
    42   109   110    2
    43   109   112   am
    44   160   161    1
    45   132   135    1
    46   121   124    1
    47   112   113    1
    48   114   115    2
    49   114   113    1
    50    75    74    1
    51    75    78    1
    52   154   153   ar
    53   152   153    1
    54    92    91    1
    55    92    93    2
    56   113   116    1
    57   153   155   ar
    58   124   125    1
    59    91    90    1
    60    91    94    1
    61   161   162    1
    62    79    78    1
    63    79    80    1
    64   127   125   ar
    65   127   129   ar
    66   162   163    1
    67   125   126   ar
    68   174   172    1
    69   170   169    2
    70   116   117    1
    71   129   130   ar
    72   168   169    1
    73   168   167    1
    74   168   171    1
    75    95    94    1
    76    95    96    1
    77   118   117    2
    78    80    81    1
    79   126   128   ar
    80   117   119   am
    81    43    41   ar
    82    43    44   ar
    83   163   164    2
    84   130   128   ar
    85   172   171    1
    86   172   173    1
    87    65    66    2
    88    65    64    1
    89    41    40   ar
    90    44    42   ar
    91   165   164    1
    92    96    98   ar
    93    96    97   ar
    94    70    72   ar
    95    70    68   ar
    96   164   166    1
    97    40    42   ar
    98    40    39    1
    99    72    73   ar
   100    64    67    1
   101    64    63    1
   102    67    68    1
   103    85    84    2
   104    88    87    1
   105    39    36    1
   106    84    83    1
   107    68    69   ar
   108    86    87    1
   109    86    83    1
   110    36    37    1
   111    36    35    1
   112    38    37    2
   113    13    14    1
   114    13    10    1
   115    73    71   ar
   116    11    10    1
   117    11    12    2
   118    87    89    1
   119    37    45   am
   120    83    82    1
   121    10     9    1
   122    69    71   ar
   123    25    23    1
   124    45    46    1
   125    59    60    1
   126    59    56    1
   127    62    60   am
   128    46    47    1
   129    46    49    1
   130    60    61    2
   131    55    47   am
   132    55    56    1
   133    23    24    1
   134    23    22    2
   135    47    48    2
   136    56    57    1
   137    58    57    2
   138    22    21    1
   139    53    54   ar
   140    53    51   ar
   141    54    52   ar
   142    51    50   ar
   143    52    50   ar
   144    50    49    1
   145    21    20    1
   146    20    19    1
   147    34    32   ar
   148    15    16    1
   149    19    16    1
   150     8     6    1
   151     7     6    1
   152    32    33   ar
   153    32    31    1
   154    16    17    1
   155     6     5    1
   156    31    30    1
   157    18    17    2
   158    29    28    2
   159     5     2    1
   160    30    27    1
   161    28    27    1
   162     2     1    1
   163     2     3    1
   164    26    27    1
   165     3     4    2
