@<TRIPOS>MOLECULE
tmp/3g20B00.pdb
 93 87 0 0 0
SMALL
GASTEIGER

@<TRIPOS>ATOM
      1  N         -3.9310   28.8090    2.4080 N.3    27  GLU27      -0.1245
      2  CA        -2.8120   29.4160    3.1480 C.3    27  GLU27       0.1567
      3  C         -3.1630   30.7860    3.7510 C.2    27  GLU27       0.2260
      4  O         -2.8250   31.0640    4.9040 O.2    27  GLU27      -0.2867
      5  CB        -1.5480   29.5110    2.2810 C.3    27  GLU27       0.0388
      6  CG        -0.8260   28.1710    2.0870 C.3    27  GLU27       0.1160
      7  CD         0.6650   28.2800    1.7680 C.2    27  GLU27       0.3649
      8  OE1        1.1560   29.3370    1.2990 O.co2  27  GLU27      -0.2457
      9  OE2        1.3630   27.2750    1.9910 O.co2  27  GLU27      -0.2457
     10  N         -5.3790   30.0990    6.7390 N.3    30  LEU30      -0.1231
     11  CA        -4.5290   29.5330    7.7930 C.3    30  LEU30       0.1693
     12  C         -3.6620   30.5940    8.4860 C.2    30  LEU30       0.2592
     13  O         -3.4630   30.5150    9.6930 O.2    30  LEU30      -0.2718
     14  CB        -3.6620   28.3820    7.2510 C.3    30  LEU30       0.0284
     15  CG        -4.4330   27.0890    6.9650 C.3    30  LEU30       0.0019
     16  CD1       -3.7720   26.2920    5.8440 C.3    30  LEU30       0.0001
     17  CD2       -4.6030   26.2160    8.2170 C.3    30  LEU30       0.0001
     18  N         -3.1650   31.5880    7.7490 N.am   31  ASP31      -0.1974
     19  CA        -2.4360   32.7010    8.3660 C.3    31  ASP31       0.1709
     20  C         -3.3380   33.5200    9.3030 C.2    31  ASP31       0.2293
     21  O         -2.9030   33.9570   10.3540 O.2    31  ASP31      -0.2864
     22  CB        -1.8210   33.6330    7.3090 C.3    31  ASP31       0.1436
     23  CG        -0.6110   33.0230    6.6030 C.2    31  ASP31       0.3671
     24  OD1       -0.1040   31.9710    7.0370 O.co2  31  ASP31      -0.2456
     25  OD2       -0.1670   33.6040    5.5930 O.co2  31  ASP31      -0.2456
     26  N         -3.7730   31.5420   12.4230 N.3    34  ARG34      -0.1245
     27  CA        -2.5710   31.6000   13.2700 C.3    34  ARG34       0.1563
     28  C         -2.4270   32.9500   13.9800 C.2    34  ARG34       0.2260
     29  O         -2.0280   33.0120   15.1510 O.2    34  ARG34      -0.2867
     30  CB        -1.3200   31.3200   12.4430 C.3    34  ARG34       0.0307
     31  CG        -0.0320   31.3180   13.2480 C.3    34  ARG34       0.0489
     32  CD         1.1050   30.8210   12.4020 C.3    34  ARG34       0.2205
     33  NE         2.4040   31.0020   13.0370 N.pl3  34  ARG34      -0.0865
     34  CZ         3.5510   31.1780   12.3810 C.cat  34  ARG34       0.5346
     35  NH1        3.5820   31.2240   11.0540 N.pl3  34  ARG34       0.1354
     36  NH2        4.6780   31.3300   13.0580 N.pl3  34  ARG34       0.1354
     37  N         -1.1620   26.8280   14.0030 N.3    40  TYR40      -0.1241
     38  CA        -1.9720   26.2660   12.9380 C.3    40  TYR40       0.1605
     39  C         -2.7620   25.0860   13.4930 C.2    40  TYR40       0.2264
     40  O         -2.3930   24.5280   14.5340 O.2    40  TYR40      -0.2867
     41  CB        -1.0910   25.8180   11.7600 C.3    40  TYR40       0.0534
     42  CG        -0.3950   26.9590   11.0300 C.ar   40  TYR40      -0.0201
     43  CD1       -1.1240   27.9030   10.3280 C.ar   40  TYR40      -0.0009
     44  CD2        0.9950   27.0980   11.0620 C.ar   40  TYR40      -0.0009
     45  CE1       -0.4960   28.9520    9.6540 C.ar   40  TYR40       0.0417
     46  CE2        1.6290   28.1480   10.3820 C.ar   40  TYR40       0.0417
     47  CZ         0.8670   29.0690    9.6830 C.ar   40  TYR40       0.1957
     48  OH         1.4550   30.1420    9.0230 O.3    40  TYR40      -0.2866
     49  N          7.2150   22.9810    4.7510 N.3    90  SER90      -0.1202
     50  CA         6.7540   24.2570    5.2950 C.3    90  SER90       0.2020
     51  C          6.3030   24.0590    6.7390 C.2    90  SER90       0.2619
     52  O          6.2890   22.9440    7.2410 O.2    90  SER90      -0.2717
     53  CB         5.5940   24.8040    4.4480 C.3    90  SER90       0.2103
     54  OG         5.9460   24.9290    3.0710 O.3    90  SER90      -0.2182
     55  N          5.9330   25.1410    7.4150 N.am   91  ASP91      -0.1959
     56  CA         5.4770   25.0310    8.7990 C.3    91  ASP91       0.1840
     57  C          4.3970   23.9450    8.8950 C.2    91  ASP91       0.2621
     58  O          4.4420   23.0740    9.7770 O.2    91  ASP91      -0.2715
     59  CB         4.9460   26.3770    9.3140 C.3    91  ASP91       0.1450
     60  CG         5.0930   26.5250   10.8160 C.2    91  ASP91       0.3671
     61  OD1        5.1600   25.4920   11.5220 O.co2  91  ASP91      -0.2456
     62  OD2        5.1430   27.6790   11.3010 O.co2  91  ASP91      -0.2456
     63  N          3.4280   24.0200    7.9820 N.am   92  ILE92      -0.1977
     64  CA         2.5070   22.9170    7.7240 C.3    92  ILE92       0.1596
     65  C          2.4970   22.5990    6.2250 C.2    92  ILE92       0.2287
     66  O          2.6090   23.4940    5.3940 O.2    92  ILE92      -0.2864
     67  CB         1.0780   23.2140    8.2240 C.3    92  ILE92       0.0276
     68  CG1        0.5310   24.5220    7.6370 C.3    92  ILE92       0.0022
     69  CG2        1.0710   23.2900    9.7500 C.3    92  ILE92       0.0022
     70  CD1       -0.9650   24.7680    7.9670 C.3    92  ILE92       0.0001
     71  N          0.2650   21.3950    3.1650 N.3    94  ILE94      -0.1245
     72  CA        -1.1020   21.2810    2.6940 C.3    94  ILE94       0.1561
     73  C         -1.0460   20.8040    1.2520 C.2    94  ILE94       0.2260
     74  O         -0.2300   21.2940    0.4560 O.2    94  ILE94      -0.2867
     75  CB        -1.8220   22.6270    2.7730 C.3    94  ILE94       0.0252
     76  CG1       -1.9180   23.0900    4.2310 C.3    94  ILE94       0.0019
     77  CG2       -3.2050   22.5440    2.1770 C.3    94  ILE94       0.0019
     78  CD1       -2.3950   24.4940    4.3250 C.3    94  ILE94       0.0001
     79  N          1.7210   22.5150   -1.2260 N.3   111  ASN111     -0.1240
     80  CA         2.1020   23.9080   -1.0190 C.3   111  ASN111      0.1653
     81  C          3.6100   24.1030   -1.0900 C.2   111  ASN111      0.2266
     82  O          4.0760   25.2150   -1.3110 O.2   111  ASN111     -0.2867
     83  CB         1.5260   24.4850    0.2920 C.3   111  ASN111      0.1155
     84  CG         2.0110   23.7610    1.5580 C.2   111  ASN111      0.2627
     85  OD1        2.4210   22.6060    1.5250 O.2   111  ASN111     -0.2716
     86  ND2        1.9260   24.4500    2.6880 N.am  111  ASN111     -0.0877
     87  N          4.9640   37.2970   -2.0580 N.3   119  PRO119     -0.2116
     88  CA         5.1010   38.4930   -1.2220 C.3   119  PRO119      0.1372
     89  C          4.4770   38.3030    0.1580 C.2   119  PRO119      0.2244
     90  O          4.9730   38.8090    1.1770 O.2   119  PRO119     -0.2868
     91  CB         4.3390   39.5750   -2.0030 C.3   119  PRO119      0.0268
     92  CG         4.0780   39.0180   -3.3510 C.3   119  PRO119      0.0207
     93  CD         4.0810   37.5320   -3.2140 C.3   119  PRO119      0.0892
@<TRIPOS>BOND
     1    92    93    1
     2    92    91    1
     3    93    87    1
     4    87    88    1
     5    91    88    1
     6    82    81    2
     7    79    80    1
     8    88    89    1
     9    81    80    1
    10    80    83    1
    11    89    90    2
    12    83    84    1
    13    74    73    2
    14    73    72    1
    15     8     7   ar
    16    85    84    2
    17    84    86   am
    18     7     9   ar
    19     7     6    1
    20     6     5    1
    21    77    75    1
    22     5     2    1
    23     1     2    1
    24    72    75    1
    25    72    71    1
    26    75    76    1
    27    54    53    1
    28     2     3    1
    29     3     4    2
    30    76    78    1
    31    53    50    1
    32    49    50    1
    33    50    51    1
    34    66    65    2
    35    25    23   ar
    36    16    15    1
    37    65    64    1
    38    23    24   ar
    39    23    22    1
    40    10    11    1
    41    51    52    2
    42    51    55   am
    43    15    14    1
    44    15    17    1
    45    14    11    1
    46    22    19    1
    47    55    56    1
    48    68    70    1
    49    68    67    1
    50    64    63    1
    51    64    67    1
    52    18    19    1
    53    18    12   am
    54    11    12    1
    55    63    57   am
    56    67    69    1
    57    19    20    1
    58    12    13    2
    59    56    57    1
    60    56    59    1
    61    57    58    2
    62    48    47    1
    63    20    21    2
    64    59    60    1
    65    45    47   ar
    66    45    43   ar
    67    47    46   ar
    68    43    42   ar
    69    46    44   ar
    70    60    62   ar
    71    60    61   ar
    72    42    44   ar
    73    42    41    1
    74    35    34    1
    75    41    38    1
    76    34    33    2
    77    34    36    1
    78    32    33    1
    79    32    31    1
    80    26    27    1
    81    30    31    1
    82    30    27    1
    83    38    39    1
    84    38    37    1
    85    27    28    1
    86    39    40    2
    87    28    29    2
