@<TRIPOS>MOLECULE
tmp/3g2cB00.pdb
 147 142 0 0 0
SMALL
GASTEIGER

@<TRIPOS>ATOM
      1  N        -34.2980    1.1250  -19.7500 N.3   114  LYS114     -0.1231
      2  CA       -33.0480    1.7980  -19.3710 C.3   114  LYS114      0.1693
      3  C        -31.7940    1.3580  -20.1480 C.2   114  LYS114      0.2591
      4  O        -30.8270    2.1140  -20.2120 O.2   114  LYS114     -0.2718
      5  CB       -32.7940    1.7010  -17.8530 C.3   114  LYS114      0.0285
      6  CG       -33.5720    2.7030  -16.9900 C.3   114  LYS114      0.0035
      7  CD       -33.3980    2.3910  -15.4780 C.3   114  LYS114      0.0206
      8  CE       -34.5240    1.4850  -14.9250 C.3   114  LYS114      0.1093
      9  NZ       -34.1340    0.4570  -13.8670 N.3   114  LYS114     -0.1314
     10  N        -31.8060    0.1640  -20.7450 N.am  115  MET115     -0.1979
     11  CA       -30.5810   -0.4230  -21.3200 C.3   115  MET115      0.1605
     12  C        -30.2070    0.0810  -22.7140 C.2   115  MET115      0.2287
     13  O        -29.0330    0.1890  -23.0240 O.2   115  MET115     -0.2864
     14  CB       -30.6150   -1.9670  -21.2820 C.3   115  MET115      0.0413
     15  CG       -30.3450   -2.5440  -19.8960 C.3   115  MET115      0.0598
     16  SD       -30.5320   -4.3350  -19.7860 S.3   115  MET115     -0.1393
     17  CE       -28.9030   -4.9460  -20.2220 C.3   115  MET115      0.0692
     18  N        -36.2410   11.5320   -6.7030 N.3   161  ARG161     -0.1245
     19  CA       -35.3760   12.4130   -7.4880 C.3   161  ARG161      0.1563
     20  C        -35.9280   12.7020   -8.8860 C.2   161  ARG161      0.2260
     21  O        -35.3810   12.2060   -9.8730 O.2   161  ARG161     -0.2867
     22  CB       -33.9640   11.8190   -7.6170 C.3   161  ARG161      0.0307
     23  CG       -33.2130   11.5800   -6.3210 C.3   161  ARG161      0.0489
     24  CD       -32.7530   12.8760   -5.6440 C.3   161  ARG161      0.2205
     25  NE       -31.8770   12.5630   -4.5200 N.pl3 161  ARG161     -0.0865
     26  CZ       -32.2790   12.3620   -3.2670 C.cat 161  ARG161      0.5346
     27  NH1      -31.3830   12.0620   -2.3380 N.pl3 161  ARG161      0.1354
     28  NH2      -33.5630   12.4530   -2.9330 N.pl3 161  ARG161      0.1354
     29  N        -33.1190   14.8120  -11.5770 N.3   164  GLU164     -0.1231
     30  CA       -32.0030   14.0690  -12.2140 C.3   164  GLU164      0.1699
     31  C        -32.4470   12.9200  -13.1050 C.2   164  GLU164      0.2592
     32  O        -31.6520   12.3990  -13.8920 O.2   164  GLU164     -0.2718
     33  CB       -30.9960   13.5370  -11.1810 C.3   164  GLU164      0.0402
     34  CG       -31.5470   13.2980   -9.7900 C.3   164  GLU164      0.1161
     35  CD       -31.9110   14.6050   -9.0980 C.2   164  GLU164      0.3649
     36  OE1      -30.9880   15.4370   -8.8860 O.co2 164  GLU164     -0.2457
     37  OE2      -33.1220   14.8050   -8.8010 O.co2 164  GLU164     -0.2457
     38  N        -33.7150   12.5320  -12.9710 N.am  165  ASN165     -0.1974
     39  CA       -34.2610   11.3820  -13.6750 C.3   165  ASN165      0.1688
     40  C        -35.1890   11.7160  -14.8430 C.2   165  ASN165      0.2292
     41  O        -35.7540   10.8140  -15.4650 O.2   165  ASN165     -0.2864
     42  CB       -34.9520   10.4570  -12.6770 C.3   165  ASN165      0.1181
     43  CG       -33.9720    9.7740  -11.7450 C.2   165  ASN165      0.2629
     44  OD1      -33.0410    9.0990  -12.1840 O.2   165  ASN165     -0.2716
     45  ND2      -34.1800    9.9400  -10.4530 N.am  165  ASN165     -0.0877
     46  N        -34.4910   12.5900  -17.7230 N.3   167  ASN167     -0.1225
     47  CA       -33.8990   12.1190  -18.9750 C.3   167  ASN167      0.1785
     48  C        -33.5850   10.6260  -18.8980 C.2   167  ASN167      0.2597
     49  O        -33.1320   10.0270  -19.8780 O.2   167  ASN167     -0.2718
     50  CB       -32.6500   12.9380  -19.3310 C.3   167  ASN167      0.1169
     51  CG       -31.9390   13.4770  -18.0930 C.2   167  ASN167      0.2627
     52  OD1      -31.9320   14.6950  -17.8520 O.2   167  ASN167     -0.2716
     53  ND2      -31.3700   12.5720  -17.2800 N.am  167  ASN167     -0.0877
     54  N        -33.8560   10.0470  -17.7260 N.am  168  VAL168     -0.1980
     55  CA       -33.8300    8.6000  -17.5060 C.3   168  VAL168      0.1595
     56  C        -35.2050    7.9490  -17.7640 C.2   168  VAL168      0.2287
     57  O        -36.2130    8.3070  -17.1370 O.2   168  VAL168     -0.2864
     58  CB       -33.3810    8.2420  -16.0560 C.3   168  VAL168      0.0276
     59  CG1      -33.0300    6.7590  -15.9440 C.3   168  VAL168      0.0022
     60  CG2      -32.1990    9.0870  -15.6280 C.3   168  VAL168      0.0022
     61  N        -40.3660    0.7580   -5.3620 N.3   203  TRP203     -0.1241
     62  CA       -39.0220    0.3080   -5.7400 C.3   203  TRP203      0.1605
     63  C        -37.9240    1.2280   -5.1990 C.2   203  TRP203      0.2264
     64  O        -38.0910    2.4580   -5.1310 O.2   203  TRP203     -0.2867
     65  CB       -38.8920    0.2120   -7.2640 C.3   203  TRP203      0.0550
     66  CG       -37.5330   -0.2860   -7.7820 C.ar  203  TRP203      0.0003
     67  CD1      -37.1590   -1.5840   -8.0040 C.ar  203  TRP203      0.0946
     68  CD2      -36.4060    0.5180   -8.1660 C.ar  203  TRP203      0.0152
     69  NE1      -35.8700   -1.6420   -8.4880 N.ar  203  TRP203     -0.2442
     70  CE2      -35.3880   -0.3640   -8.6060 C.ar  203  TRP203      0.0810
     71  CE3      -36.1540    1.8950   -8.1770 C.ar  203  TRP203      0.0012
     72  CZ2      -34.1340    0.0950   -9.0530 C.ar  203  TRP203      0.0191
     73  CZ3      -34.9060    2.3490   -8.6170 C.ar  203  TRP203      0.0001
     74  CH2      -33.9140    1.4500   -9.0480 C.ar  203  TRP203      0.0015
     75  N        -33.4480    1.5960   -5.3740 N.3   205  SER205     -0.1202
     76  CA       -32.1170    1.1470   -5.7860 C.3   205  SER205      0.2020
     77  C        -31.4270    0.4000   -4.6520 C.2   205  SER205      0.2619
     78  O        -31.5040    0.8180   -3.4850 O.2   205  SER205     -0.2717
     79  CB       -31.2580    2.3390   -6.2040 C.3   205  SER205      0.2103
     80  OG       -30.0750    1.8890   -6.8350 O.3   205  SER205     -0.2182
     81  N        -30.7840   -0.7150   -4.9840 N.am  206  TYR206     -0.1961
     82  CA       -29.9890   -1.4310   -3.9920 C.3   206  TYR206      0.1771
     83  C        -28.8000   -0.5730   -3.6080 C.2   206  TYR206      0.2619
     84  O        -28.5190   -0.4000   -2.4250 O.2   206  TYR206     -0.2715
     85  CB       -29.4960   -2.7760   -4.5170 C.3   206  TYR206      0.0574
     86  CG       -30.4560   -3.9300   -4.3560 C.ar  206  TYR206     -0.0198
     87  CD1      -30.7100   -4.7790   -5.4270 C.ar  206  TYR206     -0.0009
     88  CD2      -31.0920   -4.1880   -3.1370 C.ar  206  TYR206     -0.0009
     89  CE1      -31.5680   -5.8440   -5.3080 C.ar  206  TYR206      0.0417
     90  CE2      -31.9720   -5.2730   -3.0070 C.ar  206  TYR206      0.0417
     91  CZ       -32.1970   -6.0900   -4.1100 C.ar  206  TYR206      0.1957
     92  OH       -33.0390   -7.1660   -4.0400 O.3   206  TYR206     -0.2866
     93  N        -28.1260   -0.0280   -4.6220 N.am  207  ARG207     -0.1963
     94  CA       -26.9550    0.8330   -4.4500 C.3   207  ARG207      0.1729
     95  C        -27.2330    2.0500   -3.5460 C.2   207  ARG207      0.2616
     96  O        -28.0980    2.8750   -3.8500 O.2   207  ARG207     -0.2715
     97  CB       -26.4270    1.3020   -5.8170 C.3   207  ARG207      0.0348
     98  CG       -26.4160    0.2380   -6.9150 C.3   207  ARG207      0.0492
     99  CD       -26.1230    0.8680   -8.2830 C.3   207  ARG207      0.2205
    100  NE       -26.4360   -0.0120   -9.4140 N.pl3 207  ARG207     -0.0865
    101  CZ       -25.5370   -0.7080  -10.1220 C.cat 207  ARG207      0.5346
    102  NH1      -24.2420   -0.6350   -9.8220 N.pl3 207  ARG207      0.1354
    103  NH2      -25.9270   -1.4780  -11.1480 N.pl3 207  ARG207      0.1354
    104  N        -26.4970    2.1210   -2.4280 N.am  208  THR208     -0.1951
    105  CA       -26.3460    3.3170   -1.5570 C.3   208  THR208      0.1897
    106  C        -27.4360    3.5890   -0.4900 C.2   208  THR208      0.2313
    107  O        -27.8920    4.7350   -0.3080 O.2   208  THR208     -0.2863
    108  CB       -25.9470    4.6380   -2.3420 C.3   208  THR208      0.1794
    109  OG1      -27.1180    5.3250   -2.8270 O.3   208  THR208     -0.2208
    110  CG2      -24.9800    4.3340   -3.4850 C.3   208  THR208      0.0378
    111  N        -30.3660    3.2080   -0.4160 N.3   210  ALA210     -0.1245
    112  CA       -31.5570    3.8280   -1.0140 C.3   210  ALA210      0.1562
    113  C        -32.8770    3.6110   -0.2680 C.2   210  ALA210      0.2260
    114  O        -33.5650    4.5740    0.0470 O.2   210  ALA210     -0.2867
    115  CB       -31.6830    3.4230   -2.4810 C.3   210  ALA210      0.0290
    116  N        -32.8090    4.9150    3.2390 N.3   213  ARG213     -0.1245
    117  CA       -32.9710    6.3740    3.1390 C.3   213  ARG213      0.1563
    118  C        -34.2510    6.8350    2.4280 C.2   213  ARG213      0.2260
    119  O        -34.5010    8.0390    2.3320 O.2   213  ARG213     -0.2867
    120  CB       -31.7640    6.9960    2.4520 C.3   213  ARG213      0.0307
    121  CG       -30.5650    7.1590    3.3520 C.3   213  ARG213      0.0489
    122  CD       -29.3910    7.7120    2.5800 C.3   213  ARG213      0.2205
    123  NE       -29.1440    6.9790    1.3330 N.pl3 213  ARG213     -0.0865
    124  CZ       -29.3080    7.4980    0.1210 C.cat 213  ARG213      0.5346
    125  NH1      -29.7200    8.7530   -0.0130 N.pl3 213  ARG213      0.1354
    126  NH2      -29.0540    6.7610   -0.9500 N.pl3 213  ARG213      0.1354
    127  N        -35.0330    6.6340   -0.8360 N.3   215  VAL215     -0.1245
    128  CA       -34.8700    7.1780   -2.1790 C.3   215  VAL215      0.1561
    129  C        -35.4050    6.1010   -3.1060 C.2   215  VAL215      0.2260
    130  O        -34.7050    5.1360   -3.4380 O.2   215  VAL215     -0.2867
    131  CB       -33.3970    7.5350   -2.5450 C.3   215  VAL215      0.0252
    132  CG1      -33.3640    8.4350   -3.7680 C.3   215  VAL215      0.0019
    133  CG2      -32.7070    8.2300   -1.3920 C.3   215  VAL215      0.0019
    134  N        -38.9490    4.9280   -6.0590 N.3   217  TRP217     -0.1241
    135  CA       -39.8910    5.2770   -7.1170 C.3   217  TRP217      0.1605
    136  C        -41.1470    4.4840   -6.8610 C.2   217  TRP217      0.2264
    137  O        -41.0860    3.3600   -6.3560 O.2   217  TRP217     -0.2867
    138  CB       -39.3710    4.8640   -8.5070 C.3   217  TRP217      0.0550
    139  CG       -38.0500    5.4670   -8.9680 C.ar  217  TRP217      0.0003
    140  CD1      -36.8840    5.5620   -8.2490 C.ar  217  TRP217      0.0946
    141  CD2      -37.7550    5.9910  -10.2730 C.ar  217  TRP217      0.0152
    142  NE1      -35.9010    6.1460   -9.0090 N.ar  217  TRP217     -0.2442
    143  CE2      -36.3990    6.4180  -10.2550 C.ar  217  TRP217      0.0810
    144  CE3      -38.5040    6.1580  -11.4480 C.ar  217  TRP217      0.0012
    145  CZ2      -35.7730    6.9900  -11.3730 C.ar  217  TRP217      0.0191
    146  CZ3      -37.8860    6.7410  -12.5580 C.ar  217  TRP217      0.0001
    147  CH2      -36.5290    7.1420  -12.5150 C.ar  217  TRP217      0.0015
@<TRIPOS>BOND
     1    13    12    2
     2    12    11    1
     3    11    14    1
     4    11    10    1
     5    14    15    1
     6    10     3   am
     7    17    16    1
     8     4     3    2
     9     3     2    1
    10    15    16    1
    11    49    48    2
    12     1     2    1
    13     2     5    1
    14    50    47    1
    15    50    51    1
    16    47    48    1
    17    47    46    1
    18    48    54   am
    19    51    52    2
    20    51    53   am
    21     5     6    1
    22    56    55    1
    23    56    57    2
    24    54    55    1
    25    55    58    1
    26     6     7    1
    27    58    59    1
    28    58    60    1
    29     7     8    1
    30    41    40    2
    31     8     9    1
    32    40    39    1
    33    32    31    2
    34    39    38    1
    35    39    42    1
    36    31    38   am
    37    31    30    1
    38    42    43    1
    39   146   147   ar
    40   146   144   ar
    41   147   145   ar
    42    30    29    1
    43    30    33    1
    44    44    43    2
    45    43    45   am
    46   144   141   ar
    47   145   143   ar
    48    33    34    1
    49   103   101    1
    50   141   143   ar
    51   141   139   ar
    52   143   142   ar
    53   101   102    1
    54   101   100    2
    55    21    20    2
    56    34    35    1
    57   100    99    1
    58    35    36   ar
    59    35    37   ar
    60    72    74   ar
    61    72    70   ar
    62    74    73   ar
    63   142   140   ar
    64   139   138    1
    65   139   140   ar
    66    20    19    1
    67    73    71   ar
    68    70    69   ar
    69    70    68   ar
    70   138   135    1
    71    69    67   ar
    72    99    98    1
    73    71    68   ar
    74    68    66   ar
    75    67    66   ar
    76    66    65    1
    77    22    19    1
    78    22    23    1
    79    19    18    1
    80    65    62    1
    81   135   136    1
    82   135   134    1
    83    98    97    1
    84   136   137    2
    85    80    79    1
    86    23    24    1
    87    79    76    1
    88    97    94    1
    89    76    75    1
    90    76    77    1
    91    62    61    1
    92    62    63    1
    93    24    25    1
    94    87    89   ar
    95    87    86   ar
    96    89    91   ar
    97    63    64    2
    98    81    77   am
    99    81    82    1
   100    77    78    2
   101    93    94    1
   102    93    83   am
   103    25    26    2
   104    85    86    1
   105    85    82    1
   106    94    95    1
   107    86    88   ar
   108    91    92    1
   109    91    90   ar
   110    82    83    1
   111    96    95    2
   112   132   131    1
   113    83    84    2
   114    95   104   am
   115   110   108    1
   116   130   129    2
   117    26    28    1
   118    26    27    1
   119    88    90   ar
   120   129   128    1
   121   109   108    1
   122   131   128    1
   123   131   133    1
   124   115   112    1
   125   104   105    1
   126   108   105    1
   127   128   127    1
   128   105   106    1
   129   112   111    1
   130   112   113    1
   131   126   124    1
   132   106   107    2
   133   113   114    2
   134   125   124    1
   135   124   123    2
   136   123   122    1
   137   119   118    2
   138   118   117    1
   139   120   117    1
   140   120   121    1
   141   122   121    1
   142   117   116    1
