@<TRIPOS>MOLECULE
tmp/3g2dA02.pdb
 89 88 0 0 0
SMALL
GASTEIGER

@<TRIPOS>ATOM
      1  N         22.9220   -0.0430   39.8100 N.3   205  TRP205     -0.1227
      2  CA        24.2150    0.1650   39.1590 C.3   205  TRP205      0.1737
      3  C         24.2550   -0.6390   37.8550 C.2   205  TRP205      0.2596
      4  O         23.8070   -1.7720   37.8170 O.2   205  TRP205     -0.2718
      5  CB        25.3560   -0.3220   40.0630 C.3   205  TRP205      0.0564
      6  CG        25.3610    0.2400   41.4560 C.ar  205  TRP205      0.0003
      7  CD1       26.1450    1.2550   41.9130 C.ar  205  TRP205      0.0946
      8  CD2       24.5700   -0.1860   42.5780 C.ar  205  TRP205      0.0152
      9  NE1       25.9060    1.4870   43.2340 N.ar  205  TRP205     -0.2442
     10  CE2       24.9400    0.6210   43.6750 C.ar  205  TRP205      0.0810
     11  CE3       23.5870   -1.1610   42.7590 C.ar  205  TRP205      0.0012
     12  CZ2       24.3620    0.4920   44.9330 C.ar  205  TRP205      0.0191
     13  CZ3       23.0120   -1.3020   44.0100 C.ar  205  TRP205      0.0001
     14  CH2       23.4030   -0.4770   45.0830 C.ar  205  TRP205      0.0015
     15  N         24.7900   -0.0520   36.7960 N.am  206  SER206     -0.1938
     16  CA        25.0280   -0.7670   35.5430 C.3   206  SER206      0.2055
     17  C         25.9250   -1.9990   35.7410 C.2   206  SER206      0.2643
     18  O         26.9590   -1.9180   36.4080 O.2   206  SER206     -0.2714
     19  CB        25.6780    0.1820   34.5270 C.3   206  SER206      0.2130
     20  OG        25.9010   -0.4720   33.2860 O.3   206  SER206     -0.2179
     21  N         25.5290   -3.1330   35.1710 N.am  207  TYR207     -0.1973
     22  CA        26.3780   -4.3270   35.1590 C.3   207  TYR207      0.1639
     23  C         27.6560   -4.0400   34.3730 C.2   207  TYR207      0.2290
     24  O         28.7470   -4.5220   34.7320 O.2   207  TYR207     -0.2864
     25  CB        25.6560   -5.5290   34.5190 C.3   207  TYR207      0.0560
     26  CG        24.7390   -6.3040   35.4400 C.ar  207  TYR207     -0.0198
     27  CD1       23.4680   -6.6860   35.0260 C.ar  207  TYR207     -0.0009
     28  CD2       25.1410   -6.6530   36.7220 C.ar  207  TYR207     -0.0009
     29  CE1       22.6260   -7.3970   35.8710 C.ar  207  TYR207      0.0417
     30  CE2       24.3040   -7.3650   37.5700 C.ar  207  TYR207      0.0417
     31  CZ        23.0580   -7.7330   37.1420 C.ar  207  TYR207      0.1957
     32  OH        22.2550   -8.4570   37.9940 O.3   207  TYR207     -0.2866
     33  N         31.2440   -2.6690   35.4990 N.3   210  ARG210     -0.1245
     34  CA        31.1990   -3.0650   36.9130 C.3   210  ARG210      0.1563
     35  C         31.0030   -1.8720   37.8320 C.2   210  ARG210      0.2260
     36  O         31.7520   -1.6740   38.7920 O.2   210  ARG210     -0.2867
     37  CB        32.4640   -3.8500   37.3170 C.3   210  ARG210      0.0307
     38  CG        32.7350   -5.0980   36.4830 C.3   210  ARG210      0.0489
     39  CD        33.9590   -5.8700   37.0040 C.3   210  ARG210      0.2205
     40  NE        33.6930   -6.3560   38.3550 N.pl3 210  ARG210     -0.0865
     41  CZ        32.9810   -7.4500   38.6380 C.cat 210  ARG210      0.5346
     42  NH1       32.4660   -8.2150   37.6590 N.pl3 210  ARG210      0.1354
     43  NH2       32.7870   -7.7770   39.9080 N.pl3 210  ARG210      0.1354
     44  N         28.9190   -1.0860   40.1860 N.3   212  ARG212     -0.1231
     45  CA        28.5560   -1.2770   41.6000 C.3   212  ARG212      0.1694
     46  C         29.7570   -1.2740   42.5490 C.2   212  ARG212      0.2591
     47  O         29.6810   -0.7320   43.6570 O.2   212  ARG212     -0.2718
     48  CB        27.7290   -2.5620   41.7870 C.3   212  ARG212      0.0321
     49  CG        27.2380   -2.8200   43.2300 C.3   212  ARG212      0.0489
     50  CD        26.0280   -3.7410   43.2560 C.3   212  ARG212      0.2205
     51  NE        25.4240   -3.8420   44.5790 N.pl3 212  ARG212     -0.0865
     52  CZ        24.4570   -4.6980   44.9100 C.cat 212  ARG212      0.5346
     53  NH1       23.9580   -5.5530   44.0170 N.pl3 212  ARG212      0.1354
     54  NH2       23.9950   -4.7110   46.1530 N.pl3 212  ARG212      0.1354
     55  N         30.8630   -1.8880   42.1420 N.am  213  GLU213     -0.1979
     56  CA        32.0100   -1.9680   43.0650 C.3   213  GLU213      0.1602
     57  C         32.6500   -0.5930   43.3700 C.2   213  GLU213      0.2287
     58  O         33.3420   -0.4240   44.3800 O.2   213  GLU213     -0.2864
     59  CB        33.0370   -3.0080   42.5990 C.3   213  GLU213      0.0415
     60  CG        33.6610   -2.7510   41.2200 C.3   213  GLU213      0.1163
     61  CD        34.3690   -3.9870   40.6520 C.2   213  GLU213      0.3649
     62  OE1       35.3230   -3.8140   39.8540 O.co2 213  GLU213     -0.2457
     63  OE2       33.9760   -5.1280   40.9960 O.co2 213  GLU213     -0.2457
     64  N         23.1650   -8.9730   47.0250 N.3   243  MET243     -0.1230
     65  CA        23.5660   -9.2140   45.6430 C.3   243  MET243      0.1702
     66  C         22.5510  -10.0720   44.9260 C.2   243  MET243      0.2593
     67  O         21.6310  -10.6170   45.5420 O.2   243  MET243     -0.2718
     68  CB        24.9210   -9.9490   45.6050 C.3   243  MET243      0.0401
     69  CG        26.0780   -9.2630   46.3450 C.3   243  MET243      0.0596
     70  SD        26.3350   -7.5340   45.8610 S.3   243  MET243     -0.1393
     71  CE        26.7320   -7.7250   44.1360 C.3   243  MET243      0.0692
     72  N         22.7300  -10.2230   43.6260 N.am  244  GLY244     -0.1942
     73  CA        21.8450  -11.0790   42.8450 C.3   244  GLY244      0.2014
     74  C         21.1130  -10.3600   41.7380 C.2   244  GLY244      0.2640
     75  O         20.5090  -10.9870   40.8660 O.2   244  GLY244     -0.2714
     76  N         21.1660   -9.0330   41.7680 N.am  245  SER245     -0.1935
     77  CA        20.4700   -8.2050   40.7840 C.3   245  SER245      0.2055
     78  C         21.2980   -6.9480   40.5920 C.2   245  SER245      0.2643
     79  O         22.1520   -6.6780   41.4260 O.2   245  SER245     -0.2714
     80  CB        19.0780   -7.8390   41.3250 C.3   245  SER245      0.2130
     81  OG        18.4610   -6.8390   40.5280 O.3   245  SER245     -0.2179
     82  N         21.0350   -6.1690   39.5390 N.am  246  ASP246     -0.1971
     83  CA        21.6490   -4.8360   39.4370 C.3   246  ASP246      0.1709
     84  C         20.9690   -3.7770   40.3130 C.2   246  ASP246      0.2293
     85  O         21.5120   -2.6870   40.4500 O.2   246  ASP246     -0.2864
     86  CB        21.8130   -4.3370   37.9810 C.3   246  ASP246      0.1436
     87  CG        20.5220   -4.3760   37.1850 C.2   246  ASP246      0.3671
     88  OD1       19.4630   -4.7300   37.7570 O.co2 246  ASP246     -0.2456
     89  OD2       20.5770   -4.0480   35.9760 O.co2 246  ASP246     -0.2456
@<TRIPOS>BOND
     1    20    19    1
     2    23    24    2
     3    23    22    1
     4    25    22    1
     5    25    26    1
     6    19    16    1
     7    27    26   ar
     8    27    29   ar
     9    22    21    1
    10    21    17   am
    11    26    28   ar
    12    33    34    1
    13    16    17    1
    14    16    15    1
    15    17    18    2
    16    29    31   ar
    17    89    87   ar
    18    38    39    1
    19    38    37    1
    20    28    30   ar
    21    15     3   am
    22    34    37    1
    23    34    35    1
    24    39    40    1
    25    31    30   ar
    26    31    32    1
    27    87    88   ar
    28    87    86    1
    29    42    41    1
    30     4     3    2
    31    35    36    2
    32     3     2    1
    33    86    83    1
    34    40    41    2
    35    41    43    1
    36     2     1    1
    37     2     5    1
    38    83    82    1
    39    83    84    1
    40    82    78   am
    41    62    61   ar
    42     5     6    1
    43    44    45    1
    44    84    85    2
    45    81    80    1
    46    78    77    1
    47    78    79    2
    48    61    63   ar
    49    61    60    1
    50    77    80    1
    51    77    76    1
    52    75    74    2
    53    60    59    1
    54     6     7   ar
    55     6     8   ar
    56    45    48    1
    57    45    46    1
    58    74    76   am
    59    74    73    1
    60    48    49    1
    61     7     9   ar
    62    55    46   am
    63    55    56    1
    64    46    47    2
    65     8    11   ar
    66     8    10   ar
    67    59    56    1
    68    11    13   ar
    69    73    72    1
    70    56    57    1
    71    49    50    1
    72     9    10   ar
    73    50    51    1
    74    57    58    2
    75    72    66   am
    76    10    12   ar
    77    13    14   ar
    78    53    52    1
    79    71    70    1
    80    51    52    2
    81    52    54    1
    82    66    67    2
    83    66    65    1
    84    12    14   ar
    85    68    65    1
    86    68    69    1
    87    65    64    1
    88    70    69    1
