@<TRIPOS>MOLECULE
tmp/3g2dA00.pdb
 157 148 0 0 0
SMALL
GASTEIGER

@<TRIPOS>ATOM
      1  N         14.9750   -8.2700   38.8730 N.3    11  ASN11      -0.1240
      2  CA        15.3990   -8.4260   37.4680 C.3    11  ASN11       0.1653
      3  C         15.6400   -9.8860   37.1190 C.2    11  ASN11       0.2266
      4  O         16.7780  -10.3030   36.8420 O.2    11  ASN11      -0.2867
      5  CB        16.6380   -7.5820   37.1680 C.3    11  ASN11       0.1155
      6  CG        16.7130   -7.1520   35.7300 C.2    11  ASN11       0.2627
      7  OD1       16.0630   -7.7230   34.8560 O.2    11  ASN11      -0.2716
      8  ND2       17.5140   -6.1320   35.4700 N.am   11  ASN11      -0.0877
      9  N         10.0320   -6.6130   38.3620 N.3    37  GLU37      -0.1245
     10  CA        10.7470   -7.1820   37.2430 C.3    37  GLU37       0.1567
     11  C         11.1130   -8.6390   37.5080 C.2    37  GLU37       0.2260
     12  O         12.2900   -9.0300   37.5000 O.2    37  GLU37      -0.2867
     13  CB        11.9530   -6.3380   36.8600 C.3    37  GLU37       0.0388
     14  CG        12.3820   -6.5400   35.4180 C.3    37  GLU37       0.1160
     15  CD        13.4510   -5.5690   35.0090 C.2    37  GLU37       0.3649
     16  OE1       13.5170   -5.2360   33.8070 O.co2  37  GLU37      -0.2457
     17  OE2       14.1990   -5.1350   35.9020 O.co2  37  GLU37      -0.2457
     18  N         10.0900  -11.2420   35.5980 N.3    39  LYS39      -0.1245
     19  CA        10.4210  -11.8630   34.3100 C.3    39  LYS39       0.1561
     20  C          9.9950  -13.3230   34.2440 C.2    39  LYS39       0.2260
     21  O         10.7210  -14.1820   33.7320 O.2    39  LYS39      -0.2867
     22  CB        11.9080  -11.6830   33.9740 C.3    39  LYS39       0.0271
     23  CG        12.2480  -10.2860   33.4870 C.3    39  LYS39       0.0035
     24  CD        13.7430  -10.0960   33.4280 C.3    39  LYS39       0.0206
     25  CE        14.1450   -9.2940   32.2130 C.3    39  LYS39       0.1093
     26  NZ        15.5920   -8.9130   32.3200 N.3    39  LYS39      -0.1314
     27  N          3.4280  -10.3160   27.9560 N.3    64  ARG64      -0.1245
     28  CA         4.6540  -10.7200   27.2670 C.3    64  ARG64       0.1563
     29  C          5.5520  -11.5070   28.2190 C.2    64  ARG64       0.2260
     30  O          5.8340  -11.0870   29.3490 O.2    64  ARG64      -0.2867
     31  CB         5.3850   -9.5070   26.6900 C.3    64  ARG64       0.0307
     32  CG         6.7190   -9.8220   25.9990 C.3    64  ARG64       0.0489
     33  CD         7.2860   -8.5770   25.3230 C.3    64  ARG64       0.2205
     34  NE         8.7500   -8.5510   25.3160 N.pl3  64  ARG64      -0.0865
     35  CZ         9.5130   -8.7250   24.2380 C.cat  64  ARG64       0.5346
     36  NH1        8.9580   -8.9480   23.0470 N.pl3  64  ARG64       0.1354
     37  NH2       10.8370   -8.6890   24.3510 N.pl3  64  ARG64       0.1354
     38  N          9.1210  -10.9730   30.5960 N.3    67  TYR67      -0.1241
     39  CA         9.1670   -9.5110   30.6040 C.3    67  TYR67       0.1605
     40  C          8.4600   -8.9500   31.8310 C.2    67  TYR67       0.2264
     41  O          7.3740   -9.3890   32.1840 O.2    67  TYR67      -0.2867
     42  CB         8.5280   -8.9770   29.3340 C.3    67  TYR67       0.0534
     43  CG         8.4930   -7.4720   29.2270 C.ar   67  TYR67      -0.0201
     44  CD1        9.6040   -6.7610   28.7720 C.ar   67  TYR67      -0.0009
     45  CD2        7.3340   -6.7580   29.5480 C.ar   67  TYR67      -0.0009
     46  CE1        9.5750   -5.3750   28.6740 C.ar   67  TYR67       0.0417
     47  CE2        7.2950   -5.3670   29.4450 C.ar   67  TYR67       0.0417
     48  CZ         8.4210   -4.6880   29.0110 C.ar   67  TYR67       0.1957
     49  OH         8.3890   -3.3170   28.9060 O.3    67  TYR67      -0.2866
     50  N          2.8990   -4.5320   35.8440 N.3    95  ARG95      -0.1245
     51  CA         3.5430   -3.3960   36.4860 C.3    95  ARG95       0.1563
     52  C          2.9410   -2.9910   37.8210 C.2    95  ARG95       0.2260
     53  O          3.6030   -2.2890   38.5810 O.2    95  ARG95      -0.2867
     54  CB         3.6000   -2.2020   35.5250 C.3    95  ARG95       0.0307
     55  CG         4.4820   -2.4950   34.3110 C.3    95  ARG95       0.0489
     56  CD         4.8020   -1.2620   33.5000 C.3    95  ARG95       0.2205
     57  NE         5.7420   -1.6020   32.4360 N.pl3  95  ARG95      -0.0865
     58  CZ         7.0620   -1.6970   32.5970 C.cat  95  ARG95       0.5346
     59  NH1        7.6300   -1.4510   33.7810 N.pl3  95  ARG95       0.1354
     60  NH2        7.8220   -2.0290   31.5580 N.pl3  95  ARG95       0.1354
     61  N          6.1710   -1.4650   39.3410 N.3   110  TYR110     -0.1241
     62  CA         7.3230   -1.4050   38.4390 C.3   110  TYR110      0.1605
     63  C          7.0480   -0.3340   37.3890 C.2   110  TYR110      0.2264
     64  O          6.3920   -0.6040   36.3680 O.2   110  TYR110     -0.2867
     65  CB         7.5890   -2.7770   37.8050 C.3   110  TYR110      0.0534
     66  CG         8.7250   -2.8440   36.8000 C.ar  110  TYR110     -0.0201
     67  CD1        9.8690   -2.0510   36.9370 C.ar  110  TYR110     -0.0009
     68  CD2        8.6630   -3.7150   35.7160 C.ar  110  TYR110     -0.0009
     69  CE1       10.9160   -2.1130   36.0000 C.ar  110  TYR110      0.0417
     70  CE2        9.6940   -3.7930   34.7970 C.ar  110  TYR110      0.0417
     71  CZ        10.8280   -2.9840   34.9460 C.ar  110  TYR110      0.1957
     72  OH        11.8620   -3.0600   34.0300 O.3   110  TYR110     -0.2866
     73  N         10.4810    1.8910   32.0570 N.3   113  ASN113     -0.1240
     74  CA        11.7370    2.4830   31.6360 C.3   113  ASN113      0.1653
     75  C         11.5470    3.2260   30.3340 C.2   113  ASN113      0.2266
     76  O         10.9060    2.7030   29.4220 O.2   113  ASN113     -0.2867
     77  CB        12.8110    1.4170   31.4530 C.3   113  ASN113      0.1155
     78  CG        14.2120    2.0010   31.4750 C.2   113  ASN113      0.2627
     79  OD1       14.7450    2.4320   30.4400 O.2   113  ASN113     -0.2716
     80  ND2       14.8080    2.0410   32.6710 N.am  113  ASN113     -0.0877
     81  N         14.1290    4.5990   28.2320 N.3   115  LYS115     -0.1231
     82  CA        15.3600    4.7390   27.4140 C.3   115  LYS115      0.1693
     83  C         15.2520    4.2260   25.9780 C.2   115  LYS115      0.2591
     84  O         15.9330    4.7160   25.0790 O.2   115  LYS115     -0.2718
     85  CB        16.5490    4.0510   28.0890 C.3   115  LYS115      0.0285
     86  CG        17.1970    4.8540   29.1970 C.3   115  LYS115      0.0035
     87  CD        18.5760    4.3140   29.5950 C.3   115  LYS115      0.0206
     88  CE        18.5070    2.8930   30.1760 C.3   115  LYS115      0.1093
     89  NZ        19.7610    2.4890   30.8920 N.3   115  LYS115     -0.1314
     90  N         14.4090    3.2270   25.7740 N.am  116  MET116     -0.1979
     91  CA        14.3590    2.4950   24.5120 C.3   116  MET116      0.1605
     92  C         13.8850    3.3380   23.3090 C.2   116  MET116      0.2287
     93  O         14.3940    3.1760   22.1960 O.2   116  MET116     -0.2864
     94  CB        13.4770    1.2620   24.7000 C.3   116  MET116      0.0413
     95  CG        13.4600    0.2860   23.5460 C.3   116  MET116      0.0598
     96  SD        12.0310   -0.8100   23.7230 S.3   116  MET116     -0.1393
     97  CE        11.7030   -1.1120   21.9860 C.3   116  MET116      0.0692
     98  N          8.2120    4.7590   24.3790 N.3   120  ARG120     -0.1245
     99  CA         8.2630    4.2320   25.7420 C.3   120  ARG120      0.1563
    100  C          8.4070    5.3160   26.8010 C.2   120  ARG120      0.2260
    101  O          7.9730    5.1350   27.9480 O.2   120  ARG120     -0.2867
    102  CB         9.3750    3.1800   25.8970 C.3   120  ARG120      0.0307
    103  CG         9.0630    1.8200   25.2770 C.3   120  ARG120      0.0489
    104  CD         7.6900    1.3010   25.7060 C.3   120  ARG120      0.2205
    105  NE         7.7010    0.8000   27.0790 N.pl3 120  ARG120     -0.0865
    106  CZ         6.7370    0.0650   27.6170 C.cat 120  ARG120      0.5346
    107  NH1        5.6610   -0.2450   26.8990 N.pl3 120  ARG120      0.1354
    108  NH2        6.8460   -0.3580   28.8740 N.pl3 120  ARG120      0.1354
    109  N         12.3160    4.2400   38.3410 N.3   152  ASN152     -0.1240
    110  CA        13.1500    4.4240   37.1550 C.3   152  ASN152      0.1653
    111  C         13.5760    5.8660   36.9280 C.2   152  ASN152      0.2266
    112  O         13.8570    6.2570   35.8050 O.2   152  ASN152     -0.2867
    113  CB        12.4670    3.8540   35.9090 C.3   152  ASN152      0.1155
    114  CG        12.9710    2.4800   35.5630 C.2   152  ASN152      0.2627
    115  OD1       14.1780    2.2750   35.3630 O.2   152  ASN152     -0.2716
    116  ND2       12.0580    1.5260   35.4820 N.am  152  ASN152     -0.0877
    117  N         25.5290   -3.1330   35.1710 N.3   207  TYR207     -0.1227
    118  CA        26.3780   -4.3270   35.1590 C.3   207  TYR207      0.1736
    119  C         27.6560   -4.0400   34.3730 C.2   207  TYR207      0.2595
    120  O         28.7470   -4.5220   34.7320 O.2   207  TYR207     -0.2718
    121  CB        25.6560   -5.5290   34.5190 C.3   207  TYR207      0.0548
    122  CG        24.7390   -6.3040   35.4400 C.ar  207  TYR207     -0.0200
    123  CD1       23.4680   -6.6860   35.0260 C.ar  207  TYR207     -0.0009
    124  CD2       25.1410   -6.6530   36.7220 C.ar  207  TYR207     -0.0009
    125  CE1       22.6260   -7.3970   35.8710 C.ar  207  TYR207      0.0417
    126  CE2       24.3040   -7.3650   37.5700 C.ar  207  TYR207      0.0417
    127  CZ        23.0580   -7.7330   37.1420 C.ar  207  TYR207      0.1957
    128  OH        22.2550   -8.4570   37.9940 O.3   207  TYR207     -0.2866
    129  N         27.5000   -3.2610   33.3040 N.am  208  ARG208     -0.1980
    130  CA        28.6070   -2.8550   32.4410 C.3   208  ARG208      0.1597
    131  C         29.5660   -1.8900   33.1410 C.2   208  ARG208      0.2287
    132  O         29.1530   -1.0490   33.9260 O.2   208  ARG208     -0.2864
    133  CB        28.0800   -2.2920   31.1200 C.3   208  ARG208      0.0334
    134  CG        27.5130   -3.3770   30.2280 C.3   208  ARG208      0.0492
    135  CD        26.8810   -2.8510   28.9530 C.3   208  ARG208      0.2205
    136  NE        25.5750   -2.2410   29.2030 N.pl3 208  ARG208     -0.0865
    137  CZ        24.9270   -1.4620   28.3360 C.cat 208  ARG208      0.5346
    138  NH1       25.4540   -1.1910   27.1420 N.pl3 208  ARG208      0.1354
    139  NH2       23.7400   -0.9510   28.6670 N.pl3 208  ARG208      0.1354
    140  N         21.0350   -6.1690   39.5390 N.3   246  ASP246     -0.1225
    141  CA        21.6490   -4.8360   39.4370 C.3   246  ASP246      0.1805
    142  C         20.9690   -3.7770   40.3130 C.2   246  ASP246      0.2597
    143  O         21.5120   -2.6870   40.4500 O.2   246  ASP246     -0.2718
    144  CB        21.8130   -4.3370   37.9810 C.3   246  ASP246      0.1424
    145  CG        20.5220   -4.3760   37.1850 C.2   246  ASP246      0.3668
    146  OD1       19.4630   -4.7300   37.7570 O.co2 246  ASP246     -0.2456
    147  OD2       20.5770   -4.0480   35.9760 O.co2 246  ASP246     -0.2456
    148  N         19.8010   -4.0880   40.8940 N.am  247  HIS247     -0.1975
    149  CA        19.2100   -3.2670   41.9690 C.3   247  HIS247      0.1656
    150  C         19.4620   -3.9530   43.2910 C.2   247  HIS247      0.2291
    151  O         19.5520   -5.1800   43.3450 O.2   247  HIS247     -0.2864
    152  CB        17.6830   -3.1240   41.8250 C.3   247  HIS247      0.0771
    153  CG        17.2370   -2.4380   40.5720 C.ar  247  HIS247      0.0820
    154  ND1       16.7940   -1.1300   40.5570 N.ar  247  HIS247     -0.2267
    155  CD2       17.1290   -2.8850   39.2970 C.ar  247  HIS247      0.1154
    156  CE1       16.4670   -0.7920   39.3210 C.ar  247  HIS247      0.1986
    157  NE2       16.6660   -1.8350   38.5360 N.ar  247  HIS247     -0.2212
@<TRIPOS>BOND
     1    97    96    1
     2    93    92    2
     3    36    35    1
     4    92    91    1
     5    95    96    1
     6    95    94    1
     7    35    37    1
     8    35    34    2
     9    98    99    1
    10    91    94    1
    11    91    90    1
    12    84    83    2
    13   103   104    1
    14   103   102    1
    15    34    33    1
    16    33    32    1
    17   104   105    1
    18    99   102    1
    19    99   100    1
    20    90    83   am
    21    83    82    1
    22    32    31    1
    23    31    28    1
    24   100   101    2
    25   107   106    1
    26   105   106    2
    27   138   137    1
    28    28    27    1
    29    28    29    1
    30    82    85    1
    31    82    81    1
    32   106   108    1
    33    85    86    1
    34    29    30    2
    35   137   139    1
    36   137   136    2
    37    46    44   ar
    38    46    48   ar
    39    44    43   ar
    40    49    48    1
    41   135   136    1
    42   135   134    1
    43    48    47   ar
    44    86    87    1
    45    43    42    1
    46    43    45   ar
    47    42    39    1
    48    76    75    2
    49    47    45   ar
    50    87    88    1
    51    88    89    1
    52   134   133    1
    53    75    74    1
    54    79    78    2
    55    38    39    1
    56    39    40    1
    57   133   130    1
    58    77    78    1
    59    77    74    1
    60    78    80   am
    61    60    58    1
    62    74    73    1
    63    40    41    2
    64    25    26    1
    65    25    24    1
    66    57    58    2
    67    57    56    1
    68   130   131    1
    69   130   129    1
    70    58    59    1
    71   131   132    2
    72   129   119   am
    73    24    23    1
    74    23    22    1
    75    56    55    1
    76    21    20    2
    77    16    15   ar
    78    22    19    1
    79    72    71    1
    80    20    19    1
    81    19    18    1
    82    55    54    1
    83   119   120    2
    84   119   118    1
    85   121   118    1
    86   121   122    1
    87    70    71   ar
    88    70    68   ar
    89     7     6    2
    90    71    69   ar
    91    15    14    1
    92    15    17   ar
    93   123   122   ar
    94   123   125   ar
    95   118   117    1
    96   115   114    2
    97    14    13    1
    98   122   124   ar
    99     8     6   am
   100   116   114   am
   101    54    51    1
   102   114   113    1
   103    68    66   ar
   104     6     5    1
   105   112   111    2
   106    50    51    1
   107   125   127   ar
   108   113   110    1
   109   147   145   ar
   110    69    67   ar
   111    64    63    2
   112    51    52    1
   113   124   126   ar
   114    66    67   ar
   115    66    65    1
   116     4     3    2
   117    13    10    1
   118   111   110    1
   119     3     2    1
   120   127   126   ar
   121   127   128    1
   122   110   109    1
   123     5     2    1
   124   145   146   ar
   125   145   144    1
   126    10    11    1
   127    10     9    1
   128    63    62    1
   129     2     1    1
   130    12    11    2
   131    65    62    1
   132    52    53    2
   133   144   141    1
   134    62    61    1
   135   157   155   ar
   136   157   156   ar
   137   155   153   ar
   138   156   154   ar
   139   141   140    1
   140   141   142    1
   141   142   143    2
   142   142   148   am
   143   154   153   ar
   144   153   152    1
   145   148   149    1
   146   152   149    1
   147   149   150    1
   148   150   151    2
