@<TRIPOS>MOLECULE
tmp/3g2dA01.pdb
 143 136 0 0 0
SMALL
GASTEIGER

@<TRIPOS>ATOM
      1  N         14.9750   -8.2700   38.8730 N.3    11  ASN11      -0.1240
      2  CA        15.3990   -8.4260   37.4680 C.3    11  ASN11       0.1653
      3  C         15.6400   -9.8860   37.1190 C.2    11  ASN11       0.2266
      4  O         16.7780  -10.3030   36.8420 O.2    11  ASN11      -0.2867
      5  CB        16.6380   -7.5820   37.1680 C.3    11  ASN11       0.1155
      6  CG        16.7130   -7.1520   35.7300 C.2    11  ASN11       0.2627
      7  OD1       16.0630   -7.7230   34.8560 O.2    11  ASN11      -0.2716
      8  ND2       17.5140   -6.1320   35.4700 N.am   11  ASN11      -0.0877
      9  N         10.0320   -6.6130   38.3620 N.3    37  GLU37      -0.1245
     10  CA        10.7470   -7.1820   37.2430 C.3    37  GLU37       0.1567
     11  C         11.1130   -8.6390   37.5080 C.2    37  GLU37       0.2260
     12  O         12.2900   -9.0300   37.5000 O.2    37  GLU37      -0.2867
     13  CB        11.9530   -6.3380   36.8600 C.3    37  GLU37       0.0388
     14  CG        12.3820   -6.5400   35.4180 C.3    37  GLU37       0.1160
     15  CD        13.4510   -5.5690   35.0090 C.2    37  GLU37       0.3649
     16  OE1       13.5170   -5.2360   33.8070 O.co2  37  GLU37      -0.2457
     17  OE2       14.1990   -5.1350   35.9020 O.co2  37  GLU37      -0.2457
     18  N         10.4810    1.8910   32.0570 N.3   113  ASN113     -0.1225
     19  CA        11.7370    2.4830   31.6360 C.3   113  ASN113      0.1785
     20  C         11.5470    3.2260   30.3340 C.2   113  ASN113      0.2598
     21  O         10.9060    2.7030   29.4220 O.2   113  ASN113     -0.2718
     22  CB        12.8110    1.4170   31.4530 C.3   113  ASN113      0.1169
     23  CG        14.2120    2.0010   31.4750 C.2   113  ASN113      0.2627
     24  OD1       14.7450    2.4320   30.4400 O.2   113  ASN113     -0.2716
     25  ND2       14.8080    2.0410   32.6710 N.am  113  ASN113     -0.0877
     26  N         12.1040    4.4400   30.2430 N.am  114  GLY114     -0.1942
     27  CA        11.9170    5.2780   29.0590 C.3   114  GLY114      0.2014
     28  C         13.0390    5.3510   28.0280 C.2   114  GLY114      0.2638
     29  O         12.8940    6.0720   27.0310 O.2   114  GLY114     -0.2714
     30  N         14.1290    4.5990   28.2320 N.am  115  LYS115     -0.1977
     31  CA        15.3600    4.7390   27.4140 C.3   115  LYS115      0.1596
     32  C         15.2520    4.2260   25.9780 C.2   115  LYS115      0.2287
     33  O         15.9330    4.7160   25.0790 O.2   115  LYS115     -0.2864
     34  CB        16.5490    4.0510   28.0890 C.3   115  LYS115      0.0298
     35  CG        17.1970    4.8540   29.1970 C.3   115  LYS115      0.0038
     36  CD        18.5760    4.3140   29.5950 C.3   115  LYS115      0.0206
     37  CE        18.5070    2.8930   30.1760 C.3   115  LYS115      0.1093
     38  NZ        19.7610    2.4890   30.8920 N.3   115  LYS115     -0.1314
     39  N          5.9550    5.8290   29.8200 N.3   124  LYS124     -0.1245
     40  CA         6.4320    6.0810   31.1810 C.3   124  LYS124      0.1561
     41  C          5.7200    7.2700   31.7950 C.2   124  LYS124      0.2260
     42  O          5.1910    7.1870   32.9000 O.2   124  LYS124     -0.2867
     43  CB         7.9440    6.3350   31.1810 C.3   124  LYS124      0.0271
     44  CG         8.5300    6.5710   32.5570 C.3   124  LYS124      0.0035
     45  CD        10.0740    6.6330   32.5280 C.3   124  LYS124      0.0206
     46  CE        10.6040    6.7940   33.9440 C.3   124  LYS124      0.1093
     47  NZ        11.9440    7.4330   34.0140 N.3   124  LYS124     -0.1314
     48  N         10.4260    0.3400   41.7170 N.3   150  ASN150     -0.1240
     49  CA        11.3430    0.9570   40.7990 C.3   150  ASN150      0.1653
     50  C         10.6390    2.0930   40.0460 C.2   150  ASN150      0.2266
     51  O          9.8870    1.8300   39.1120 O.2   150  ASN150     -0.2867
     52  CB        11.8300   -0.1150   39.8240 C.3   150  ASN150      0.1155
     53  CG        12.9110    0.3830   38.8700 C.2   150  ASN150      0.2627
     54  OD1       13.2960    1.5490   38.8880 O.2   150  ASN150     -0.2716
     55  ND2       13.4150   -0.5170   38.0410 N.am  150  ASN150     -0.0877
     56  N         12.3160    4.2400   38.3410 N.3   152  ASN152     -0.1240
     57  CA        13.1500    4.4240   37.1550 C.3   152  ASN152      0.1653
     58  C         13.5760    5.8660   36.9280 C.2   152  ASN152      0.2266
     59  O         13.8570    6.2570   35.8050 O.2   152  ASN152     -0.2867
     60  CB        12.4670    3.8540   35.9090 C.3   152  ASN152      0.1155
     61  CG        12.9710    2.4800   35.5630 C.2   152  ASN152      0.2627
     62  OD1       14.1780    2.2750   35.3630 O.2   152  ASN152     -0.2716
     63  ND2       12.0580    1.5260   35.4820 N.am  152  ASN152     -0.0877
     64  N         19.3980   11.8260   29.2380 N.3   169  VAL169     -0.1231
     65  CA        19.1120   10.3850   29.2990 C.3   169  VAL169      0.1692
     66  C         17.8920   10.0980   30.1660 C.2   169  VAL169      0.2593
     67  O         17.8130   10.5370   31.3270 O.2   169  VAL169     -0.2718
     68  CB        20.3250    9.5790   29.8360 C.3   169  VAL169      0.0266
     69  CG1       19.9490    8.1200   30.1080 C.3   169  VAL169      0.0020
     70  CG2       21.5180    9.6640   28.8580 C.3   169  VAL169      0.0020
     71  N         16.9440    9.3460   29.6130 N.am  170  SER170     -0.1938
     72  CA        15.7650    8.9740   30.3820 C.3   170  SER170      0.2055
     73  C         16.1900    8.2940   31.6780 C.2   170  SER170      0.2643
     74  O         16.9980    7.3560   31.6690 O.2   170  SER170     -0.2714
     75  CB        14.8360    8.0730   29.5930 C.3   170  SER170      0.2130
     76  OG        13.7400    7.6960   30.4220 O.3   170  SER170     -0.2179
     77  N         15.6470    8.7840   32.7840 N.am  171  GLY171     -0.1954
     78  CA        16.1140    8.4100   34.1100 C.3   171  GLY171      0.1869
     79  C         16.4920    9.6480   34.8890 C.2   171  GLY171      0.2309
     80  O         16.4490    9.6670   36.1200 O.2   171  GLY171     -0.2863
     81  N         10.9460   13.9570   33.7050 N.3   176  GLU176     -0.1245
     82  CA        10.8130   12.8880   34.7130 C.3   176  GLU176      0.1567
     83  C         11.0500   13.4190   36.1260 C.2   176  GLU176      0.2260
     84  O         10.2920   13.1270   37.0590 O.2   176  GLU176     -0.2867
     85  CB        11.7740   11.7470   34.4030 C.3   176  GLU176      0.0388
     86  CG        11.4600   10.9840   33.1140 C.3   176  GLU176      0.1160
     87  CD        12.6800   10.2500   32.5600 C.2   176  GLU176      0.3649
     88  OE1       13.7930   10.7900   32.6720 O.co2 176  GLU176     -0.2457
     89  OE2       12.5290    9.1320   32.0080 O.co2 176  GLU176     -0.2457
     90  N         20.5620    1.2070   42.2020 N.3   204  TRP204     -0.1241
     91  CA        20.8440    0.5350   40.9380 C.3   204  TRP204      0.1605
     92  C         22.2140    0.9350   40.3710 C.2   204  TRP204      0.2264
     93  O         22.5980    2.1080   40.4320 O.2   204  TRP204     -0.2867
     94  CB        19.7580    0.8280   39.8920 C.3   204  TRP204      0.0550
     95  CG        20.1060    0.2510   38.5590 C.ar  204  TRP204      0.0003
     96  CD1       19.9230   -1.0370   38.1560 C.ar  204  TRP204      0.0946
     97  CD2       20.7480    0.9230   37.4680 C.ar  204  TRP204      0.0152
     98  NE1       20.3920   -1.2010   36.8790 N.ar  204  TRP204     -0.2442
     99  CE2       20.9090   -0.0140   36.4380 C.ar  204  TRP204      0.0810
    100  CE3       21.1910    2.2330   37.2620 C.ar  204  TRP204      0.0012
    101  CZ2       21.4930    0.3120   35.2160 C.ar  204  TRP204      0.0191
    102  CZ3       21.7810    2.5560   36.0440 C.ar  204  TRP204      0.0001
    103  CH2       21.9200    1.6070   35.0400 C.ar  204  TRP204      0.0015
    104  N         22.5610    4.8850   40.8290 N.3   218  TRP218     -0.1241
    105  CA        21.3740    5.7190   40.8580 C.3   218  TRP218      0.1605
    106  C         20.4630    5.2290   41.9840 C.2   218  TRP218      0.2264
    107  O         20.4170    4.0340   42.2710 O.2   218  TRP218     -0.2867
    108  CB        20.6090    5.5890   39.5470 C.3   218  TRP218      0.0550
    109  CG        21.3670    5.8870   38.2630 C.ar  218  TRP218      0.0003
    110  CD1       22.5920    5.3790   37.8750 C.ar  218  TRP218      0.0946
    111  CD2       20.9050    6.6780   37.1560 C.ar  218  TRP218      0.0152
    112  NE1       22.9220    5.8320   36.6020 N.ar  218  TRP218     -0.2442
    113  CE2       21.9110    6.6350   36.1480 C.ar  218  TRP218      0.0810
    114  CE3       19.7520    7.4330   36.9180 C.ar  218  TRP218      0.0012
    115  CZ2       21.7920    7.3360   34.9360 C.ar  218  TRP218      0.0191
    116  CZ3       19.6330    8.1120   35.7030 C.ar  218  TRP218      0.0001
    117  CH2       20.6420    8.0560   34.7330 C.ar  218  TRP218      0.0015
    118  N         16.9990    4.5920   42.2400 N.3   220  LEU220     -0.1245
    119  CA        15.8240    4.4370   41.3610 C.3   220  LEU220      0.1561
    120  C         14.6450    3.8370   42.1040 C.2   220  LEU220      0.2260
    121  O         13.5020    3.8740   41.6210 O.2   220  LEU220     -0.2867
    122  CB        16.1490    3.5560   40.1520 C.3   220  LEU220      0.0270
    123  CG        17.2450    4.0480   39.2000 C.3   220  LEU220      0.0019
    124  CD1       17.5470    3.0110   38.1120 C.3   220  LEU220      0.0001
    125  CD2       16.8270    5.3620   38.5730 C.3   220  LEU220      0.0001
    126  N         21.0350   -6.1690   39.5390 N.3   246  ASP246     -0.1225
    127  CA        21.6490   -4.8360   39.4370 C.3   246  ASP246      0.1805
    128  C         20.9690   -3.7770   40.3130 C.2   246  ASP246      0.2597
    129  O         21.5120   -2.6870   40.4500 O.2   246  ASP246     -0.2718
    130  CB        21.8130   -4.3370   37.9810 C.3   246  ASP246      0.1424
    131  CG        20.5220   -4.3760   37.1850 C.2   246  ASP246      0.3668
    132  OD1       19.4630   -4.7300   37.7570 O.co2 246  ASP246     -0.2456
    133  OD2       20.5770   -4.0480   35.9760 O.co2 246  ASP246     -0.2456
    134  N         19.8010   -4.0880   40.8940 N.am  247  HIS247     -0.1975
    135  CA        19.2100   -3.2670   41.9690 C.3   247  HIS247      0.1656
    136  C         19.4620   -3.9530   43.2910 C.2   247  HIS247      0.2291
    137  O         19.5520   -5.1800   43.3450 O.2   247  HIS247     -0.2864
    138  CB        17.6830   -3.1240   41.8250 C.3   247  HIS247      0.0771
    139  CG        17.2370   -2.4380   40.5720 C.ar  247  HIS247      0.0820
    140  ND1       16.7940   -1.1300   40.5570 N.ar  247  HIS247     -0.2267
    141  CD2       17.1290   -2.8850   39.2970 C.ar  247  HIS247      0.1154
    142  CE1       16.4670   -0.7920   39.3210 C.ar  247  HIS247      0.1986
    143  NE2       16.6660   -1.8350   38.5360 N.ar  247  HIS247     -0.2212
@<TRIPOS>BOND
     1    33    32    2
     2    32    31    1
     3    29    28    2
     4    31    34    1
     5    31    30    1
     6    28    30   am
     7    28    27    1
     8    34    35    1
     9    70    68    1
    10    27    26    1
    11    35    36    1
    12    64    65    1
    13    65    68    1
    14    65    66    1
    15    21    20    2
    16    75    72    1
    17    75    76    1
    18    36    37    1
    19    71    66   am
    20    71    72    1
    21    39    40    1
    22    68    69    1
    23    66    67    2
    24    37    38    1
    25    26    20   am
    26    20    19    1
    27    72    73    1
    28    24    23    2
    29    40    43    1
    30    40    41    1
    31    43    44    1
    32    22    23    1
    33    22    19    1
    34    23    25   am
    35    19    18    1
    36    74    73    2
    37    73    77   am
    38    41    42    2
    39    89    87   ar
    40    45    44    1
    41    45    46    1
    42    87    88   ar
    43    87    86    1
    44    77    78    1
    45    86    85    1
    46    81    82    1
    47    16    15   ar
    48    46    47    1
    49    78    79    1
    50    85    82    1
    51    82    83    1
    52   117   115   ar
    53   117   116   ar
    54     7     6    2
    55    79    80    2
    56   115   113   ar
    57    15    14    1
    58    15    17   ar
    59   103   101   ar
    60   103   102   ar
    61   101    99   ar
    62    62    61    2
    63    14    13    1
    64     8     6   am
    65    63    61   am
    66    61    60    1
    67   116   114   ar
    68     6     5    1
    69    59    58    2
    70    60    57    1
    71   133   131   ar
    72   102   100   ar
    73    83    84    2
    74   113   112   ar
    75   113   111   ar
    76    99    98   ar
    77    99    97   ar
    78   112   110   ar
    79     4     3    2
    80    13    10    1
    81    98    96   ar
    82   114   111   ar
    83    58    57    1
    84     3     2    1
    85    57    56    1
    86   111   109   ar
    87     5     2    1
    88   131   132   ar
    89   131   130    1
    90    10    11    1
    91    10     9    1
    92   100    97   ar
    93    97    95   ar
    94     2     1    1
    95    12    11    2
    96   110   109   ar
    97   130   127    1
    98    55    53   am
    99   124   123    1
   100    96    95   ar
   101   109   108    1
   102   143   141   ar
   103   143   142   ar
   104    95    94    1
   105   125   123    1
   106    53    54    2
   107    53    52    1
   108    51    50    2
   109   123   122    1
   110   141   139   ar
   111   142   140   ar
   112   127   126    1
   113   127   128    1
   114   108   105    1
   115    52    49    1
   116    94    91    1
   117    50    49    1
   118   122   119    1
   119   128   129    2
   120   128   134   am
   121    92    93    2
   122    92    91    1
   123   140   139   ar
   124   139   138    1
   125    49    48    1
   126   104   105    1
   127   105   106    1
   128   134   135    1
   129    91    90    1
   130   119   120    1
   131   119   118    1
   132   121   120    2
   133   138   135    1
   134   135   136    1
   135   106   107    2
   136   136   137    2
