@<TRIPOS>MOLECULE
tmp/3g2fA00.pdb
 185 177 0 0 0
SMALL
GASTEIGER

@<TRIPOS>ATOM
      1  N         85.8360   67.5500   38.7330 N.3    13  ILE13      -0.1231
      2  CA        85.4530   66.1620   39.0220 C.3    13  ILE13       0.1692
      3  C         85.7380   65.2080   37.8660 C.2    13  ILE13       0.2593
      4  O         85.6110   64.0030   38.0240 O.2    13  ILE13      -0.2718
      5  CB        83.9670   66.0190   39.4640 C.3    13  ILE13       0.0266
      6  CG1       83.0060   66.4280   38.3350 C.3    13  ILE13       0.0019
      7  CG2       83.7190   66.7860   40.7680 C.3    13  ILE13       0.0020
      8  CD1       81.5330   66.4590   38.7400 C.3    13  ILE13       0.0001
      9  N         86.1190   65.7410   36.7100 N.am   14  GLY14      -0.1942
     10  CA        86.4700   64.9140   35.5600 C.3    14  GLY14       0.2014
     11  C         86.8370   65.7340   34.3420 C.2    14  GLY14       0.2639
     12  O         86.6750   66.9690   34.3200 O.2    14  GLY14      -0.2714
     13  N         87.3490   65.0540   33.3290 N.am   15  ARG15      -0.1963
     14  CA        87.5600   65.6650   32.0260 C.3    15  ARG15       0.1729
     15  C         87.5780   64.6120   30.9330 C.2    15  ARG15       0.2617
     16  O         88.0110   63.4940   31.1560 O.2    15  ARG15      -0.2715
     17  CB        88.8450   66.4920   32.0000 C.3    15  ARG15       0.0348
     18  CG        90.0670   65.8080   32.5870 C.3    15  ARG15       0.0492
     19  CD        91.2070   66.8190   32.8950 C.3    15  ARG15       0.2205
     20  NE        91.3340   67.8450   31.8490 N.pl3  15  ARG15      -0.0865
     21  CZ        91.1650   69.1580   32.0250 C.cat  15  ARG15       0.5346
     22  NH1       90.8890   69.6560   33.2270 N.pl3  15  ARG15       0.1354
     23  NH2       91.2930   69.9790   30.9900 N.pl3  15  ARG15       0.1354
     24  N         87.0660   64.9710   29.7660 N.am   16  GLY16      -0.1940
     25  CA        87.2580   64.1860   28.5750 C.3    16  GLY16       0.2014
     26  C         87.8650   65.0540   27.5090 C.2    16  GLY16       0.2639
     27  O         88.5120   66.0650   27.8100 O.2    16  GLY16      -0.2714
     28  N         87.6300   64.6830   26.2580 N.am   17  ARG17      -0.1963
     29  CA        88.2680   65.3370   25.1180 C.3    17  ARG17       0.1729
     30  C         87.5410   66.6070   24.6640 C.2    17  ARG17       0.2616
     31  O         88.0840   67.4100   23.8890 O.2    17  ARG17      -0.2715
     32  CB        88.4760   64.3040   23.9970 C.3    17  ARG17       0.0348
     33  CG        88.4990   64.7940   22.5490 C.3    17  ARG17       0.0492
     34  CD        88.5420   63.5860   21.5840 C.3    17  ARG17       0.2205
     35  NE        87.3160   62.7560   21.6170 N.pl3  17  ARG17      -0.0865
     36  CZ        87.2320   61.4830   22.0300 C.cat  17  ARG17       0.5346
     37  NH1       88.3020   60.8280   22.4700 N.pl3  17  ARG17       0.1354
     38  NH2       86.0600   60.8560   21.9940 N.pl3  17  ARG17       0.1354
     39  N         86.3300   66.8180   25.1730 N.am   18  TYR18      -0.1960
     40  CA        85.5530   67.9950   24.7700 C.3    18  TYR18       0.1771
     41  C         85.3150   68.9580   25.9080 C.2    18  TYR18       0.2620
     42  O         85.3300   70.1600   25.7050 O.2    18  TYR18      -0.2715
     43  CB        84.2400   67.5790   24.0920 C.3    18  TYR18       0.0574
     44  CG        84.5080   66.6560   22.9230 C.ar   18  TYR18      -0.0198
     45  CD1       85.1200   67.1390   21.7690 C.ar   18  TYR18      -0.0009
     46  CD2       84.1980   65.2880   22.9920 C.ar   18  TYR18      -0.0009
     47  CE1       85.4010   66.3100   20.6990 C.ar   18  TYR18       0.0417
     48  CE2       84.4750   64.4300   21.9120 C.ar   18  TYR18       0.0417
     49  CZ        85.0780   64.9630   20.7710 C.ar   18  TYR18       0.1957
     50  OH        85.3680   64.1670   19.7020 O.3    18  TYR18      -0.2866
     51  N         85.1100   68.4340   27.1120 N.am   19  GLY19      -0.1954
     52  CA        84.8220   69.2930   28.2570 C.3    19  GLY19       0.1869
     53  C         85.5800   68.9790   29.5260 C.2    19  GLY19       0.2309
     54  O         86.0590   67.8440   29.7330 O.2    19  GLY19      -0.2863
     55  N         84.9360   68.9890   33.6430 N.3    21  VAL21      -0.1245
     56  CA        83.7180   68.8850   34.4500 C.3    21  VAL21       0.1561
     57  C         83.9440   69.2820   35.9270 C.2    21  VAL21       0.2260
     58  O         84.8640   68.7980   36.5870 O.2    21  VAL21      -0.2867
     59  CB        83.0330   67.5010   34.2690 C.3    21  VAL21       0.0252
     60  CG1       81.6010   67.4930   34.8700 C.3    21  VAL21       0.0019
     61  CG2       82.9930   67.1240   32.7780 C.3    21  VAL21       0.0019
     62  N         76.4730   69.5850   38.4530 N.3    32  ALA32      -0.1245
     63  CA        77.7400   69.3490   37.7660 C.3    32  ALA32       0.1562
     64  C         77.7540   70.1900   36.5050 C.2    32  ALA32       0.2260
     65  O         76.7400   70.3320   35.8330 O.2    32  ALA32      -0.2867
     66  CB        77.8980   67.8610   37.4250 C.3    32  ALA32       0.0290
     67  N         79.7090   71.1250   32.9280 N.3    34  LYS34      -0.1245
     68  CA        80.6350   70.7590   31.8600 C.3    34  LYS34       0.1561
     69  C         80.9920   71.9750   31.0050 C.2    34  LYS34       0.2260
     70  O         80.1080   72.6020   30.3890 O.2    34  LYS34      -0.2867
     71  CB        80.0420   69.6430   30.9950 C.3    34  LYS34       0.0271
     72  CG        80.9520   69.1890   29.9010 C.3    34  LYS34       0.0035
     73  CD        80.4770   67.8540   29.4180 C.3    34  LYS34       0.0206
     74  CE        81.1040   67.4620   28.1070 C.3    34  LYS34       0.1093
     75  NZ        80.3210   66.3280   27.5730 N.3    34  LYS34      -0.1314
     76  N         75.2080   68.2060   22.0340 N.3    47  GLU47      -0.1245
     77  CA        74.8180   67.5910   23.2960 C.3    47  GLU47       0.1567
     78  C         73.5810   68.2680   23.8810 C.2    47  GLU47       0.2260
     79  O         72.6480   67.6000   24.3290 O.2    47  GLU47      -0.2867
     80  CB        75.9980   67.5700   24.2810 C.3    47  GLU47       0.0388
     81  CG        75.7120   66.8680   25.5810 C.3    47  GLU47       0.1160
     82  CD        76.9590   66.4170   26.3340 C.2    47  GLU47       0.3649
     83  OE1       78.0550   67.0020   26.1550 O.co2  47  GLU47      -0.2457
     84  OE2       76.8440   65.4500   27.1140 O.co2  47  GLU47      -0.2457
     85  N         74.1800   69.9180   34.6280 N.3    83  MET83      -0.1230
     86  CA        73.4180   68.7150   34.8150 C.3    83  MET83       0.1702
     87  C         73.4490   68.2810   36.2730 C.2    83  MET83       0.2592
     88  O         74.1580   68.8810   37.1000 O.2    83  MET83      -0.2718
     89  CB        73.9760   67.6320   33.9170 C.3    83  MET83       0.0401
     90  CG        75.4270   67.3700   34.1320 C.3    83  MET83       0.0596
     91  SD        76.0160   66.3240   32.7930 S.3    83  MET83      -0.1393
     92  CE        77.6270   67.0510   32.5550 C.3    83  MET83       0.0692
     93  N         72.6750   67.2450   36.5850 N.am   84  GLU84      -0.1966
     94  CA        72.7190   66.6570   37.9080 C.3    84  GLU84       0.1733
     95  C         74.1340   66.1830   38.1970 C.2    84  GLU84       0.2616
     96  O         74.8500   65.7470   37.2920 O.2    84  GLU84      -0.2715
     97  CB        71.7360   65.4970   38.0350 C.3    84  GLU84       0.0429
     98  CG        71.7020   64.8460   39.3960 C.3    84  GLU84       0.1163
     99  CD        70.5380   63.8790   39.5390 C.2    84  GLU84       0.3649
    100  OE1       69.4800   64.1120   38.8960 O.co2  84  GLU84      -0.2457
    101  OE2       70.6720   62.8830   40.3000 O.co2  84  GLU84      -0.2457
    102  N         74.5180   66.3050   39.4600 N.am   85  TYR85      -0.1960
    103  CA        75.8040   65.8590   39.9630 C.3    85  TYR85       0.1771
    104  C         75.6850   64.4230   40.4930 C.2    85  TYR85       0.2619
    105  O         74.8250   64.1400   41.3140 O.2    85  TYR85      -0.2715
    106  CB        76.2830   66.8170   41.0690 C.3    85  TYR85       0.0574
    107  CG        77.4980   66.3190   41.8070 C.ar   85  TYR85      -0.0198
    108  CD1       78.6740   66.0230   41.1150 C.ar   85  TYR85      -0.0009
    109  CD2       77.4820   66.1390   43.2050 C.ar   85  TYR85      -0.0009
    110  CE1       79.7990   65.5520   41.7650 C.ar   85  TYR85       0.0417
    111  CE2       78.6170   65.6600   43.8720 C.ar   85  TYR85       0.0417
    112  CZ        79.7730   65.3720   43.1270 C.ar   85  TYR85       0.1957
    113  OH        80.9120   64.9050   43.7260 O.3    85  TYR85      -0.2866
    114  N         76.5380   63.5290   39.9950 N.am   86  TYR86      -0.1974
    115  CA        76.5880   62.1310   40.4350 C.3    86  TYR86       0.1639
    116  C         77.8870   61.8800   41.1940 C.2    86  TYR86       0.2290
    117  O         78.9400   61.7670   40.5690 O.2    86  TYR86      -0.2864
    118  CB        76.4760   61.1780   39.2310 C.3    86  TYR86       0.0560
    119  CG        75.1950   61.3640   38.4680 C.ar   86  TYR86      -0.0198
    120  CD1       74.0180   60.7400   38.8730 C.ar   86  TYR86      -0.0009
    121  CD2       75.1380   62.2110   37.3800 C.ar   86  TYR86      -0.0009
    122  CE1       72.8260   60.9450   38.1890 C.ar   86  TYR86       0.0417
    123  CE2       73.9490   62.4270   36.7000 C.ar   86  TYR86       0.0417
    124  CZ        72.8100   61.7870   37.1020 C.ar   86  TYR86       0.1957
    125  OH        71.6470   62.0060   36.4040 O.3    86  TYR86      -0.2866
    126  N         80.5310   59.3230   40.2560 N.3    89  GLY89      -0.1210
    127  CA        81.2770   59.5710   39.0200 C.3    89  GLY89       0.1956
    128  C         80.9410   58.5800   37.9140 C.2    89  GLY89       0.2612
    129  O         79.8420   57.9930   37.8720 O.2    89  GLY89      -0.2717
    130  N         81.9010   58.3620   37.0350 N.am   90  SER90      -0.1952
    131  CA        81.6880   57.4620   35.9070 C.3    90  SER90       0.1924
    132  C         81.6870   55.9870   36.3450 C.2    90  SER90       0.2314
    133  O         82.2210   55.6200   37.4310 O.2    90  SER90      -0.2863
    134  CB        82.7520   57.6980   34.8340 C.3    90  SER90       0.2116
    135  OG        84.0000   57.3610   35.3680 O.3    90  SER90      -0.2180
    136  N         85.1900   54.8030   36.8480 N.3    92  LYS92      -0.1245
    137  CA        85.7590   55.1790   38.1280 C.3    92  LYS92       0.1561
    138  C         85.1630   54.3530   39.2670 C.2    92  LYS92       0.2260
    139  O         85.8780   53.9370   40.1820 O.2    92  LYS92      -0.2867
    140  CB        85.5410   56.6640   38.3670 C.3    92  LYS92       0.0271
    141  CG        86.3390   57.2010   39.5210 C.3    92  LYS92       0.0035
    142  CD        85.4090   57.5330   40.6600 C.3    92  LYS92       0.0206
    143  CE        85.9920   58.6380   41.5450 C.3    92  LYS92       0.1093
    144  NZ        85.1430   58.7840   42.7750 N.3    92  LYS92      -0.1314
    145  N         83.4010   55.5910   30.5390 N.3   140  ARG140     -0.1231
    146  CA        83.6130   56.9890   30.9420 C.3   140  ARG140      0.1694
    147  C         82.3730   57.8320   30.6340 C.2   140  ARG140      0.2592
    148  O         82.1460   58.8570   31.2410 O.2   140  ARG140     -0.2718
    149  CB        84.9050   57.5590   30.3350 C.3   140  ARG140      0.0321
    150  CG        86.1580   57.0310   31.0640 C.3   140  ARG140      0.0489
    151  CD        87.4500   57.3160   30.3380 C.3   140  ARG140      0.2205
    152  NE        87.5650   56.5390   29.1020 N.pl3 140  ARG140     -0.0865
    153  CZ        88.7120   56.0780   28.6120 C.cat 140  ARG140      0.5346
    154  NH1       89.8530   56.3060   29.2610 N.pl3 140  ARG140      0.1354
    155  NH2       88.7180   55.3900   27.4780 N.pl3 140  ARG140      0.1354
    156  N         81.5390   57.3370   29.7350 N.am  141  ASN141     -0.1974
    157  CA        80.3350   58.0360   29.3400 C.3   141  ASN141      0.1688
    158  C         79.1130   57.4270   29.9840 C.2   141  ASN141      0.2292
    159  O         78.0050   57.5990   29.4680 O.2   141  ASN141     -0.2864
    160  CB        80.1930   58.0340   27.8070 C.3   141  ASN141      0.1181
    161  CG        81.2320   58.9050   27.1490 C.2   141  ASN141      0.2629
    162  OD1       81.7830   59.8000   27.7920 O.2   141  ASN141     -0.2716
    163  ND2       81.5190   58.6540   25.8730 N.am  141  ASN141     -0.0877
    164  N         77.5270   57.0480   34.0330 N.3   143  LEU143     -0.1245
    165  CA        77.7080   57.5340   35.3690 C.3   143  LEU143      0.1561
    166  C         76.8680   56.6370   36.2790 C.2   143  LEU143      0.2260
    167  O         75.8620   56.0560   35.8270 O.2   143  LEU143     -0.2867
    168  CB        77.2730   59.0030   35.4730 C.3   143  LEU143      0.0270
    169  CG        77.9450   60.0090   34.5190 C.3   143  LEU143      0.0019
    170  CD1       77.2730   61.3700   34.5490 C.3   143  LEU143      0.0001
    171  CD2       79.4310   60.1710   34.8500 C.3   143  LEU143      0.0001
    172  N         75.5660   59.2090   29.7050 N.3   153  SER153     -0.1202
    173  CA        75.8970   60.6180   29.5850 C.3   153  SER153      0.2020
    174  C         76.7150   60.8490   28.3220 C.2   153  SER153      0.2618
    175  O         77.0330   59.9090   27.5700 O.2   153  SER153     -0.2717
    176  CB        76.7450   61.0510   30.7780 C.3   153  SER153      0.2103
    177  OG        77.7960   60.0860   30.9380 O.3   153  SER153     -0.2182
    178  N         77.0770   62.1150   28.1420 N.am  154  ASP154     -0.1973
    179  CA        77.9890   62.5680   27.1140 C.3   154  ASP154      0.1709
    180  C         77.4230   62.3830   25.6840 C.2   154  ASP154      0.2293
    181  O         77.7780   61.4180   24.9990 O.2   154  ASP154     -0.2864
    182  CB        79.4030   61.9470   27.2970 C.3   154  ASP154      0.1436
    183  CG        80.4370   62.5740   26.3680 C.2   154  ASP154      0.3671
    184  OD1       80.0170   63.3970   25.5350 O.co2 154  ASP154     -0.2456
    185  OD2       81.6520   62.2370   26.4460 O.co2 154  ASP154     -0.2456
@<TRIPOS>BOND
     1    50    49    1
     2    47    49   ar
     3    47    45   ar
     4    49    48   ar
     5    34    35    1
     6    34    33    1
     7    35    36    2
     8    45    44   ar
     9    48    46   ar
    10    38    36    1
    11    36    37    1
    12    76    77    1
    13    33    32    1
    14    44    46   ar
    15    44    43    1
    16    77    78    1
    17    77    80    1
    18    78    79    2
    19    31    30    2
    20    32    29    1
    21    43    40    1
    22    80    81    1
    23    30    29    1
    24    30    39   am
    25    40    39    1
    26    40    41    1
    27   181   180    2
    28    29    28    1
    29   184   183   ar
    30    81    82    1
    31   180   179    1
    32    42    41    2
    33   163   161   am
    34    41    51   am
    35    83    82   ar
    36    28    26   am
    37    82    84   ar
    38   183   185   ar
    39   183   182    1
    40    51    52    1
    41   179   182    1
    42   179   178    1
    43   161   162    2
    44   161   160    1
    45   155   153    1
    46    26    27    2
    47    26    25    1
    48   175   174    2
    49    75    74    1
    50   160   157    1
    51    74    73    1
    52   178   174   am
    53    52    53    1
    54   174   173    1
    55    25    24    1
    56   153   152    2
    57   153   154    1
    58   152   151    1
    59   157   156    1
    60   157   158    1
    61    73    72    1
    62   159   158    2
    63    53    54    2
    64   173   172    1
    65   173   176    1
    66   156   147   am
    67    24    15   am
    68    72    71    1
    69   149   146    1
    70   149   150    1
    71   151   150    1
    72    70    69    2
    73   145   146    1
    74   147   146    1
    75   147   148    2
    76   176   177    1
    77    15    16    2
    78    15    14    1
    79    23    21    1
    80    71    68    1
    81    69    68    1
    82    20    21    2
    83    20    19    1
    84    68    67    1
    85    17    14    1
    86    17    18    1
    87    21    22    1
    88    14    13    1
    89    92    91    1
    90    18    19    1
    91    61    59    1
    92    91    90    1
    93    13    11   am
    94    55    56    1
    95    89    90    1
    96    89    86    1
    97   164   165    1
    98    59    56    1
    99    59    60    1
   100    12    11    2
   101    11    10    1
   102    56    57    1
   103   169   170    1
   104   169   171    1
   105   169   168    1
   106    85    86    1
   107    86    87    1
   108   134   135    1
   109   134   131    1
   110   165   168    1
   111   165   166    1
   112    10     9    1
   113   167   166    2
   114    65    64    2
   115   131   132    1
   116   131   130    1
   117    57    58    2
   118    87    93   am
   119    87    88    2
   120   132   133    2
   121   125   124    1
   122    64    63    1
   123    93    94    1
   124   123   124   ar
   125   123   121   ar
   126     9     3   am
   127   136   137    1
   128   130   128   am
   129   124   122   ar
   130    96    95    2
   131   121   119   ar
   132    66    63    1
   133    63    62    1
   134     3     4    2
   135     3     2    1
   136   129   128    2
   137    94    97    1
   138    94    95    1
   139   128   127    1
   140    97    98    1
   141   137   140    1
   142   137   138    1
   143   122   120   ar
   144    95   102   am
   145     6     8    1
   146     6     5    1
   147   140   141    1
   148   119   120   ar
   149   119   118    1
   150     1     2    1
   151   100    99   ar
   152   127   126    1
   153     2     5    1
   154   118   115    1
   155   138   139    2
   156    98    99    1
   157   102   103    1
   158     5     7    1
   159   141   142    1
   160    99   101   ar
   161   103   104    1
   162   103   106    1
   163   114   115    1
   164   114   104   am
   165   115   116    1
   166   104   105    2
   167   117   116    2
   168   142   143    1
   169   106   107    1
   170   108   110   ar
   171   108   107   ar
   172   143   144    1
   173   110   112   ar
   174   107   109   ar
   175   112   113    1
   176   112   111   ar
   177   109   111   ar
