@<TRIPOS>MOLECULE
tmp/3g2hA00.pdb
 181 172 0 0 0
SMALL
GASTEIGER

@<TRIPOS>ATOM
      1  N         32.5420   20.0440   39.1070 N.3    77  GLU77      -0.1245
      2  CA        31.2350   20.5300   38.6980 C.3    77  GLU77       0.1567
      3  C         30.3020   19.3780   38.3710 C.2    77  GLU77       0.2260
      4  O         30.6720   18.4340   37.6630 O.2    77  GLU77      -0.2867
      5  CB        31.3520   21.4700   37.4910 C.3    77  GLU77       0.0388
      6  CG        32.2610   22.6710   37.7360 C.3    77  GLU77       0.1160
      7  CD        32.1770   23.7200   36.6570 C.2    77  GLU77       0.3649
      8  OE1       33.1100   24.5390   36.5870 O.co2  77  GLU77      -0.2457
      9  OE2       31.1900   23.7400   35.8860 O.co2  77  GLU77      -0.2457
     10  N         29.0440   25.3850   35.8180 N.3   122  ASN122     -0.1225
     11  CA        28.9910   26.5940   35.0070 C.3   122  ASN122      0.1785
     12  C         28.2260   26.4330   33.7040 C.2   122  ASN122      0.2598
     13  O         27.5330   27.3460   33.2590 O.2   122  ASN122     -0.2718
     14  CB        30.4150   27.0390   34.6930 C.3   122  ASN122      0.1169
     15  CG        31.0080   27.8520   35.8010 C.2   122  ASN122      0.2627
     16  OD1       30.5450   28.9600   36.0750 O.2   122  ASN122     -0.2716
     17  ND2       32.0320   27.3110   36.4620 N.am  122  ASN122     -0.0877
     18  N         28.3800   25.2750   33.0790 N.am  123  GLY123     -0.1942
     19  CA        27.7810   25.0430   31.7800 C.3   123  GLY123      0.2014
     20  C         28.0470   23.6400   31.3120 C.2   123  GLY123      0.2639
     21  O         27.7180   22.6830   32.0060 O.2   123  GLY123     -0.2714
     22  N         28.6620   23.5340   30.1370 N.am  124  GLY124     -0.1939
     23  CA        28.7770   22.2790   29.4130 C.3   124  GLY124      0.2014
     24  C         29.5560   21.1930   30.1250 C.2   124  GLY124      0.2638
     25  O         29.1440   20.0330   30.1260 O.2   124  GLY124     -0.2714
     26  N         30.6870   21.5650   30.7230 N.am  125  LEU125     -0.1977
     27  CA        31.5260   20.6080   31.4550 C.3   125  LEU125      0.1596
     28  C         30.7710   20.0470   32.6590 C.2   125  LEU125      0.2287
     29  O         30.7890   18.8410   32.8940 O.2   125  LEU125     -0.2864
     30  CB        32.8510   21.2560   31.8890 C.3   125  LEU125      0.0297
     31  CG        33.8470   20.4780   32.7640 C.3   125  LEU125      0.0022
     32  CD1       35.2800   20.9180   32.4820 C.3   125  LEU125      0.0001
     33  CD2       33.5270   20.6790   34.2400 C.3   125  LEU125      0.0001
     34  N         27.7630   17.9060   31.4050 N.3   128  LEU128     -0.1245
     35  CA        28.2580   16.6420   30.8770 C.3   128  LEU128      0.1561
     36  C         28.4000   15.6190   31.9900 C.2   128  LEU128      0.2260
     37  O         27.9780   14.4760   31.8340 O.2   128  LEU128     -0.2867
     38  CB        29.5920   16.8050   30.1490 C.3   128  LEU128      0.0270
     39  CG        30.0000   15.5370   29.3830 C.3   128  LEU128      0.0019
     40  CD1       29.1630   15.3730   28.1110 C.3   128  LEU128      0.0001
     41  CD2       31.4810   15.5510   29.0570 C.3   128  LEU128      0.0001
     42  N         34.1580   31.4750   36.7620 N.3   262  ASN262     -0.1225
     43  CA        34.9830   31.8720   35.6230 C.3   262  ASN262      0.1785
     44  C         35.3070   30.6880   34.7250 C.2   262  ASN262      0.2597
     45  O         36.2370   29.9280   34.9920 O.2   262  ASN262     -0.2718
     46  CB        36.2610   32.6070   36.0700 C.3   262  ASN262      0.1169
     47  CG        37.1290   31.7750   37.0050 C.2   262  ASN262      0.2627
     48  OD1       36.6290   31.1120   37.9130 O.2   262  ASN262     -0.2716
     49  ND2       38.4420   31.8110   36.7840 N.am  262  ASN262     -0.0877
     50  N         34.5210   30.5450   33.6600 N.am  263  ASP263     -0.1974
     51  CA        34.6690   29.4460   32.7130 C.3   263  ASP263      0.1709
     52  C         35.4210   29.8720   31.4450 C.2   263  ASP263      0.2293
     53  O         35.4320   29.1470   30.4470 O.2   263  ASP263     -0.2864
     54  CB        33.2890   28.9070   32.3380 C.3   263  ASP263      0.1436
     55  CG        32.4480   29.9200   31.5810 C.2   263  ASP263      0.3671
     56  OD1       32.7050   31.1440   31.6850 O.co2 263  ASP263     -0.2456
     57  OD2       31.5180   29.4870   30.8700 O.co2 263  ASP263     -0.2456
     58  N         38.5380   17.0880   32.9460 N.3   310  ASP310     -0.1239
     59  CA        39.5570   18.1110   32.6880 C.3   310  ASP310      0.1674
     60  C         40.6650   18.0540   33.7490 C.2   310  ASP310      0.2266
     61  O         40.7660   17.0730   34.4810 O.2   310  ASP310     -0.2867
     62  CB        38.9510   19.5140   32.5450 C.3   310  ASP310      0.1410
     63  CG        39.7020   20.3540   31.5350 C.2   310  ASP310      0.3668
     64  OD1       39.4160   20.2640   30.3160 O.co2 310  ASP310     -0.2456
     65  OD2       40.6160   21.0790   31.9660 O.co2 310  ASP310     -0.2456
     66  N         41.0190   19.9390   36.3860 N.3   312  HIS312     -0.1241
     67  CA        40.6260   20.4200   37.7140 C.3   312  HIS312      0.1621
     68  C         40.9680   19.4510   38.8540 C.2   312  HIS312      0.2264
     69  O         41.4440   19.8880   39.8970 O.2   312  HIS312     -0.2867
     70  CB        39.1520   20.8610   37.7620 C.3   312  HIS312      0.0745
     71  CG        38.7580   21.7710   36.6380 C.ar  312  HIS312      0.0817
     72  ND1       37.4720   21.8370   36.1520 N.ar  312  HIS312     -0.2268
     73  CD2       39.4870   22.6350   35.8920 C.ar  312  HIS312      0.1154
     74  CE1       37.4210   22.7110   35.1610 C.ar  312  HIS312      0.1986
     75  NE2       38.6320   23.2090   34.9830 N.ar  312  HIS312     -0.2212
     76  N         38.5320   19.2940   27.6470 N.3   348  HIS348     -0.1226
     77  CA        37.2720   19.9090   27.2470 C.3   348  HIS348      0.1752
     78  C         37.4380   21.2480   26.5380 C.2   348  HIS348      0.2596
     79  O         36.4420   21.8950   26.2180 O.2   348  HIS348     -0.2718
     80  CB        36.3600   20.0950   28.4590 C.3   348  HIS348      0.0759
     81  CG        35.9600   18.8190   29.1200 C.ar  348  HIS348      0.0818
     82  ND1       34.7890   18.1600   28.8180 N.ar  348  HIS348     -0.2268
     83  CD2       36.5730   18.0800   30.0740 C.ar  348  HIS348      0.1154
     84  CE1       34.6960   17.0710   29.5580 C.ar  348  HIS348      0.1986
     85  NE2       35.7670   16.9990   30.3290 N.ar  348  HIS348     -0.2212
     86  N         38.6830   21.6730   26.3110 N.am  349  THR349     -0.1953
     87  CA        38.9550   22.9070   25.5680 C.3   349  THR349      0.1897
     88  C         40.4020   23.0090   25.1030 C.2   349  THR349      0.2313
     89  O         41.3160   22.5050   25.7620 O.2   349  THR349     -0.2863
     90  CB        38.5890   24.1850   26.3630 C.3   349  THR349      0.1794
     91  OG1       38.7190   25.3300   25.5120 O.3   349  THR349     -0.2208
     92  CG2       39.4790   24.3660   27.5820 C.3   349  THR349      0.0378
     93  N         42.2540   29.1430   29.0780 N.3   354  ALA354     -0.1231
     94  CA        41.4580   28.2950   29.9690 C.3   354  ALA354      0.1694
     95  C         42.2910   27.2120   30.6460 C.2   354  ALA354      0.2592
     96  O         41.9060   26.6900   31.6870 O.2   354  ALA354     -0.2718
     97  CB        40.2990   27.6650   29.2070 C.3   354  ALA354      0.0304
     98  N         43.4270   26.8720   30.0460 N.am  355  LEU355     -0.1966
     99  CA        44.2680   25.7930   30.5530 C.3   355  LEU355      0.1728
    100  C         44.8870   26.1390   31.9070 C.2   355  LEU355      0.2616
    101  O         45.3230   27.2650   32.1310 O.2   355  LEU355     -0.2715
    102  CB        45.3390   25.4170   29.5250 C.3   355  LEU355      0.0311
    103  CG        44.8140   24.8480   28.1990 C.3   355  LEU355      0.0022
    104  CD1       45.9640   24.5570   27.2420 C.3   355  LEU355      0.0001
    105  CD2       43.9740   23.5890   28.4140 C.3   355  LEU355      0.0001
    106  N         44.8920   25.1680   32.8170 N.am  356  GLU356     -0.1977
    107  CA        45.4020   25.3940   34.1630 C.3   356  GLU356      0.1602
    108  C         46.9140   25.3180   34.1970 C.2   356  GLU356      0.2287
    109  O         47.4960   24.2880   33.8730 O.2   356  GLU356     -0.2864
    110  CB        44.8180   24.3830   35.1440 C.3   356  GLU356      0.0415
    111  CG        43.3390   24.5640   35.3950 C.3   356  GLU356      0.1163
    112  CD        42.8890   23.7800   36.5870 C.2   356  GLU356      0.3649
    113  OE1       42.9270   22.5340   36.5210 O.co2 356  GLU356     -0.2457
    114  OE2       42.5140   24.4110   37.5910 O.co2 356  GLU356     -0.2457
    115  N         36.4720   15.3660   23.1220 N.3   426  VAL426     -0.1245
    116  CA        35.0400   15.1920   23.3600 C.3   426  VAL426      0.1561
    117  C         34.1970   15.2900   22.0960 C.2   426  VAL426      0.2260
    118  O         32.9640   15.3070   22.1540 O.2   426  VAL426     -0.2867
    119  CB        34.5450   16.1700   24.4490 C.3   426  VAL426      0.0252
    120  CG1       35.0970   15.7430   25.8080 C.3   426  VAL426      0.0019
    121  CG2       34.9530   17.6140   24.1230 C.3   426  VAL426      0.0019
    122  N         30.8950   13.5790   22.8650 N.3   455  ASN455     -0.1240
    123  CA        29.9320   13.8690   23.9100 C.3   455  ASN455      0.1653
    124  C         28.5230   13.3930   23.5700 C.2   455  ASN455      0.2266
    125  O         28.2150   13.0420   22.4300 O.2   455  ASN455     -0.2867
    126  CB        29.9250   15.3710   24.2180 C.3   455  ASN455      0.1155
    127  CG        31.0410   15.7790   25.1700 C.2   455  ASN455      0.2627
    128  OD1       31.2920   16.9720   25.3770 O.2   455  ASN455     -0.2716
    129  ND2       31.7040   14.7960   25.7670 N.am  455  ASN455     -0.0877
    130  N         34.2390   33.2650   21.8520 N.3   544  TYR544     -0.1227
    131  CA        34.3800   32.1710   20.8930 C.3   544  TYR544      0.1736
    132  C         33.0400   31.6250   20.4060 C.2   544  TYR544      0.2595
    133  O         32.9460   31.1510   19.2790 O.2   544  TYR544     -0.2718
    134  CB        35.2930   31.0630   21.4160 C.3   544  TYR544      0.0548
    135  CG        34.6500   29.9860   22.2530 C.ar  544  TYR544     -0.0200
    136  CD1       34.0860   28.8570   21.6560 C.ar  544  TYR544     -0.0009
    137  CD2       34.6650   30.0580   23.6440 C.ar  544  TYR544     -0.0009
    138  CE1       33.5210   27.8430   22.4240 C.ar  544  TYR544      0.0417
    139  CE2       34.1070   29.0450   24.4200 C.ar  544  TYR544      0.0417
    140  CZ        33.5390   27.9440   23.8040 C.ar  544  TYR544      0.1957
    141  OH        32.9780   26.9390   24.5670 O.3   544  TYR544     -0.2866
    142  N         32.0210   31.7010   21.2600 N.am  545  LYS545     -0.1980
    143  CA        30.6740   31.2160   20.9350 C.3   545  LYS545      0.1596
    144  C         29.9430   32.1830   20.0040 C.2   545  LYS545      0.2287
    145  O         28.8850   31.8640   19.4620 O.2   545  LYS545     -0.2864
    146  CB        29.8690   30.9750   22.2150 C.3   545  LYS545      0.0298
    147  CG        30.3310   29.7620   23.0120 C.3   545  LYS545      0.0038
    148  CD        29.6430   29.6960   24.3710 C.3   545  LYS545      0.0206
    149  CE        30.1460   28.5410   25.2220 C.3   545  LYS545      0.1093
    150  NZ        29.7390   27.2100   24.6460 N.3   545  LYS545     -0.1314
    151  N         34.9030   25.3940   19.8300 N.3   643  GLU643     -0.1231
    152  CA        33.9650   24.6720   20.6930 C.3   643  GLU643      0.1699
    153  C         34.3530   23.2080   20.6860 C.2   643  GLU643      0.2592
    154  O         34.1600   22.5390   19.6840 O.2   643  GLU643     -0.2718
    155  CB        32.5290   24.8240   20.1830 C.3   643  GLU643      0.0402
    156  CG        31.4840   24.2870   21.1430 C.3   643  GLU643      0.1161
    157  CD        31.3320   25.1810   22.3420 C.2   643  GLU643      0.3649
    158  OE1       31.9680   24.8920   23.3760 O.co2 643  GLU643     -0.2457
    159  OE2       30.6130   26.1980   22.2340 O.co2 643  GLU643     -0.2457
    160  N         34.9070   22.7100   21.7890 N.am  644  ALA644     -0.1966
    161  CA        35.4160   21.3360   21.8210 C.3   644  ALA644      0.1728
    162  C         34.3690   20.3430   21.3140 C.2   644  ALA644      0.2617
    163  O         34.6610   19.4910   20.4740 O.2   644  ALA644     -0.2715
    164  CB        35.8890   20.9610   23.2140 C.3   644  ALA644      0.0334
    165  N         33.1440   20.4670   21.8100 N.am  645  SER645     -0.1936
    166  CA        32.0610   19.6190   21.3330 C.3   645  SER645      0.2055
    167  C         30.7840   20.4240   21.2270 C.2   645  SER645      0.2644
    168  O         30.2040   20.5440   20.1420 O.2   645  SER645     -0.2714
    169  CB        31.8570   18.4260   22.2600 C.3   645  SER645      0.2130
    170  OG        30.6380   17.7590   21.9720 O.3   645  SER645     -0.2179
    171  N         30.3750   21.0020   22.3530 N.am  646  GLY646     -0.1939
    172  CA        29.0270   21.5420   22.4940 C.3   646  GLY646      0.2014
    173  C         28.1460   20.3680   22.8830 C.2   646  GLY646      0.2639
    174  O         28.4250   19.2320   22.5000 O.2   646  GLY646     -0.2714
    175  N         27.1150   20.6280   23.6810 N.am  647  THR647     -0.1950
    176  CA        26.1160   19.6140   24.0040 C.3   647  THR647      0.1897
    177  C         24.7240   20.2050   23.8770 C.2   647  THR647      0.2313
    178  O         23.7560   19.4760   23.6520 O.2   647  THR647     -0.2863
    179  CB        26.2970   19.0130   25.4090 C.3   647  THR647      0.1794
    180  OG1       26.3880   20.0670   26.3660 O.3   647  THR647     -0.2208
    181  CG2       27.5540   18.1370   25.4810 C.3   647  THR647      0.0378
@<TRIPOS>BOND
     1   133   132    2
     2   145   144    2
     3   154   153    2
     4   151   152    1
     5   144   143    1
     6   168   167    2
     7   155   152    1
     8   155   156    1
     9   132   131    1
    10   132   142   am
    11   163   162    2
    12   153   152    1
    13   153   160   am
    14   131   134    1
    15   131   130    1
    16   143   142    1
    17   143   146    1
    18   156   157    1
    19   167   166    1
    20   167   171   am
    21   162   165   am
    22   162   161    1
    23   166   165    1
    24   166   169    1
    25   134   135    1
    26   136   135   ar
    27   136   138   ar
    28   160   161    1
    29   161   164    1
    30   170   169    1
    31   117   118    2
    32   117   116    1
    33   146   147    1
    34   159   157   ar
    35   135   137   ar
    36   157   158   ar
    37   171   172    1
    38   138   140   ar
    39   125   124    2
    40   172   173    1
    41   174   173    2
    42   122   123    1
    43   173   175   am
    44   147   148    1
    45   115   116    1
    46   116   119    1
    47   124   123    1
    48   137   139   ar
    49   178   177    2
    50   175   176    1
    51   140   139   ar
    52   140   141    1
    53   177   176    1
    54   123   126    1
    55   176   179    1
    56   121   119    1
    57   126   127    1
    58   148   149    1
    59   119   120    1
    60   150   149    1
    61    88    87    1
    62    88    89    2
    63   127   128    2
    64   127   129   am
    65   179   181    1
    66   179   180    1
    67    91    90    1
    68    87    86    1
    69    87    90    1
    70    79    78    2
    71    86    78   am
    72    90    92    1
    73    78    77    1
    74   104   103    1
    75    77    76    1
    76    77    80    1
    77    40    39    1
    78   103   105    1
    79   103   102    1
    80    80    81    1
    81    82    81   ar
    82    82    84   ar
    83    41    39    1
    84    93    94    1
    85    81    83   ar
    86    97    94    1
    87    39    38    1
    88    23    24    1
    89    23    22    1
    90   102    99    1
    91    84    85   ar
    92    94    95    1
    93    98    99    1
    94    98    95   am
    95    83    85   ar
    96    24    25    2
    97    24    26   am
    98    22    20   am
    99    38    35    1
   100    64    63   ar
   101    53    52    2
   102    99   100    1
   103    95    96    2
   104    26    27    1
   105    57    55   ar
   106    35    34    1
   107    35    36    1
   108    20    19    1
   109    20    21    2
   110    52    51    1
   111    27    30    1
   112    27    28    1
   113    63    65   ar
   114    63    62    1
   115    55    56   ar
   116    55    54    1
   117    19    18    1
   118    37    36    2
   119    30    31    1
   120   100   101    2
   121   100   106   am
   122    54    51    1
   123    32    31    1
   124    62    59    1
   125    28    29    2
   126    59    58    1
   127    59    60    1
   128    51    50    1
   129    31    33    1
   130   106   107    1
   131    18    12   am
   132    13    12    2
   133    50    44   am
   134    12    11    1
   135    60    61    2
   136   109   108    2
   137   107   108    1
   138   107   110    1
   139    14    11    1
   140    14    15    1
   141    44    45    2
   142    44    43    1
   143    75    74   ar
   144    75    73   ar
   145    11    10    1
   146   110   111    1
   147    74    72   ar
   148   111   112    1
   149    43    46    1
   150    43    42    1
   151    15    16    2
   152    15    17   am
   153     9     7   ar
   154    73    71   ar
   155    46    47    1
   156    72    71   ar
   157    66    67    1
   158   113   112   ar
   159     8     7   ar
   160   112   114   ar
   161    71    70    1
   162     7     6    1
   163    49    47   am
   164    47    48    2
   165     5     6    1
   166     5     2    1
   167     4     3    2
   168    67    70    1
   169    67    68    1
   170     3     2    1
   171     2     1    1
   172    68    69    2
