@<TRIPOS>MOLECULE
tmp/3g2iA00.pdb
 154 147 0 0 0
SMALL
GASTEIGER

@<TRIPOS>ATOM
      1  N         28.4780   23.5210   30.0180 N.3   124  GLY124     -0.1210
      2  CA        28.5890   22.2480   29.3110 C.3   124  GLY124      0.1956
      3  C         29.3920   21.1820   30.0180 C.2   124  GLY124      0.2611
      4  O         29.0350   20.0040   29.9790 O.2   124  GLY124     -0.2717
      5  N         30.4870   21.5850   30.6590 N.am  125  LEU125     -0.1979
      6  CA        31.3530   20.6300   31.3410 C.3   125  LEU125      0.1596
      7  C         30.6510   20.0370   32.5610 C.2   125  LEU125      0.2287
      8  O         30.6740   18.8270   32.7580 O.2   125  LEU125     -0.2864
      9  CB        32.6940   21.2700   31.7190 C.3   125  LEU125      0.0297
     10  CG        33.6600   20.4810   32.6120 C.3   125  LEU125      0.0022
     11  CD1       35.0850   20.5770   32.1040 C.3   125  LEU125      0.0001
     12  CD2       33.5850   21.0000   34.0400 C.3   125  LEU125      0.0001
     13  N         27.7480   17.8890   31.3170 N.3   128  LEU128     -0.1245
     14  CA        28.2540   16.6310   30.7900 C.3   128  LEU128      0.1561
     15  C         28.4380   15.6160   31.9090 C.2   128  LEU128      0.2260
     16  O         28.0540   14.4560   31.7680 O.2   128  LEU128     -0.2867
     17  CB        29.5690   16.8210   30.0240 C.3   128  LEU128      0.0270
     18  CG        30.0570   15.5690   29.2750 C.3   128  LEU128      0.0019
     19  CD1       29.2950   15.3800   27.9730 C.3   128  LEU128      0.0001
     20  CD2       31.5600   15.6230   29.0250 C.3   128  LEU128      0.0001
     21  N         33.5190   29.9090   32.8130 N.3   266  ASP266     -0.1225
     22  CA        33.3440   28.8850   31.8030 C.3   266  ASP266      0.1805
     23  C         34.5020   29.0190   30.8400 C.2   266  ASP266      0.2598
     24  O         34.7290   30.0990   30.2970 O.2   266  ASP266     -0.2718
     25  CB        32.0080   29.0580   31.0750 C.3   266  ASP266      0.1424
     26  CG        31.7190   27.9240   30.1050 C.2   266  ASP266      0.3668
     27  OD1       30.9310   27.0250   30.4600 O.co2 266  ASP266     -0.2456
     28  OD2       32.2800   27.9250   28.9880 O.co2 266  ASP266     -0.2456
     29  N         35.2520   27.9330   30.6610 N.am  267  ASN267     -0.1960
     30  CA        36.3330   27.8930   29.6740 C.3   267  ASN267      0.1819
     31  C         37.3210   29.0440   29.8810 C.2   267  ASN267      0.2621
     32  O         37.6890   29.7450   28.9380 O.2   267  ASN267     -0.2715
     33  CB        35.7380   27.9420   28.2580 C.3   267  ASN267      0.1195
     34  CG        36.3510   26.9270   27.3200 C.2   267  ASN267      0.2630
     35  OD1       37.4430   26.4160   27.5490 O.2   267  ASN267     -0.2716
     36  ND2       35.6490   26.6410   26.2440 N.am  267  ASN267     -0.0877
     37  N         37.7250   29.2430   31.1340 N.am  268  PHE268     -0.1974
     38  CA        38.6540   30.3020   31.5070 C.3   268  PHE268      0.1639
     39  C         39.3220   29.9310   32.8200 C.2   268  PHE268      0.2290
     40  O         38.6490   29.5640   33.7830 O.2   268  PHE268     -0.2864
     41  CB        37.9320   31.6480   31.6500 C.3   268  PHE268      0.0560
     42  CG        38.8470   32.7990   31.9880 C.ar  268  PHE268     -0.0200
     43  CD1       39.5980   33.4230   30.9950 C.ar  268  PHE268     -0.0042
     44  CD2       38.9490   33.2650   33.2950 C.ar  268  PHE268     -0.0042
     45  CE1       40.4440   34.4880   31.3010 C.ar  268  PHE268     -0.0003
     46  CE2       39.7930   34.3300   33.6160 C.ar  268  PHE268     -0.0003
     47  CZ        40.5440   34.9420   32.6180 C.ar  268  PHE268     -0.0000
     48  N         38.5070   17.0750   32.8300 N.3   313  ASP313     -0.1239
     49  CA        39.4270   18.1900   32.6200 C.3   313  ASP313      0.1674
     50  C         40.6140   18.0520   33.5740 C.2   313  ASP313      0.2266
     51  O         40.7800   17.0180   34.2220 O.2   313  ASP313     -0.2867
     52  CB        38.7110   19.5360   32.7990 C.3   313  ASP313      0.1410
     53  CG        39.2540   20.6130   31.8870 C.2   313  ASP313      0.3668
     54  OD1       40.4820   20.7630   31.7940 O.co2 313  ASP313     -0.2456
     55  OD2       38.4450   21.3340   31.2790 O.co2 313  ASP313     -0.2456
     56  N         41.0460   19.8780   36.1670 N.3   315  HIS315     -0.1241
     57  CA        40.6820   20.3840   37.4880 C.3   315  HIS315      0.1621
     58  C         41.0450   19.4330   38.6290 C.2   315  HIS315      0.2264
     59  O         41.5510   19.8790   39.6510 O.2   315  HIS315     -0.2867
     60  CB        39.2120   20.8260   37.5540 C.3   315  HIS315      0.0745
     61  CG        38.7960   21.7050   36.4150 C.ar  315  HIS315      0.0817
     62  ND1       37.4980   21.7590   35.9550 N.ar  315  HIS315     -0.2268
     63  CD2       39.5080   22.5520   35.6340 C.ar  315  HIS315      0.1154
     64  CE1       37.4270   22.6060   34.9440 C.ar  315  HIS315      0.1986
     65  NE2       38.6330   23.1040   34.7310 N.ar  315  HIS315     -0.2212
     66  N         38.8330   19.1280   27.4120 N.3   351  HIS351     -0.1226
     67  CA        37.5830   19.7470   27.0050 C.3   351  HIS351      0.1752
     68  C         37.7800   21.0610   26.2600 C.2   351  HIS351      0.2596
     69  O         36.8050   21.7270   25.9250 O.2   351  HIS351     -0.2718
     70  CB        36.7090   20.0200   28.2270 C.3   351  HIS351      0.0759
     71  CG        36.2420   18.7940   28.9370 C.ar  351  HIS351      0.0818
     72  ND1       35.0510   18.1710   28.6380 N.ar  351  HIS351     -0.2268
     73  CD2       36.7930   18.0900   29.9530 C.ar  351  HIS351      0.1154
     74  CE1       34.8910   17.1310   29.4360 C.ar  351  HIS351      0.1986
     75  NE2       35.9330   17.0610   30.2450 N.ar  351  HIS351     -0.2212
     76  N         39.0320   21.4440   26.0180 N.am  352  THR352     -0.1953
     77  CA        39.3110   22.7400   25.4120 C.3   352  THR352      0.1897
     78  C         40.7040   22.8260   24.7910 C.2   352  THR352      0.2313
     79  O         41.6280   22.1130   25.1980 O.2   352  THR352     -0.2863
     80  CB        39.1400   23.8880   26.4380 C.3   352  THR352      0.1794
     81  OG1       39.0590   25.1370   25.7460 O.3   352  THR352     -0.2208
     82  CG2       40.3070   23.9200   27.4330 C.3   352  THR352      0.0378
     83  N         42.0860   28.9600   28.9310 N.3   357  ALA357     -0.1245
     84  CA        41.3130   27.9940   29.7130 C.3   357  ALA357      0.1562
     85  C         42.1890   26.9060   30.3260 C.2   357  ALA357      0.2260
     86  O         41.7580   26.1930   31.2360 O.2   357  ALA357     -0.2867
     87  CB        40.2290   27.3700   28.8500 C.3   357  ALA357      0.0290
     88  N         36.6330   15.4050   23.0730 N.3   429  VAL429     -0.1245
     89  CA        35.1910   15.2740   23.3120 C.3   429  VAL429      0.1561
     90  C         34.3460   15.3500   22.0420 C.2   429  VAL429      0.2260
     91  O         33.1180   15.3470   22.1000 O.2   429  VAL429     -0.2867
     92  CB        34.7150   16.2810   24.3870 C.3   429  VAL429      0.0252
     93  CG1       35.2350   15.8490   25.7580 C.3   429  VAL429      0.0019
     94  CG2       35.1930   17.6900   24.0680 C.3   429  VAL429      0.0019
     95  N         31.0460   13.5930   22.8760 N.3   458  ASN458     -0.1240
     96  CA        30.0900   13.8890   23.9290 C.3   458  ASN458      0.1653
     97  C         28.6870   13.4170   23.5790 C.2   458  ASN458      0.2266
     98  O         28.3870   13.1060   22.4290 O.2   458  ASN458     -0.2867
     99  CB        30.0700   15.3970   24.2220 C.3   458  ASN458      0.1155
    100  CG        31.2210   15.8410   25.1240 C.2   458  ASN458      0.2627
    101  OD1       31.4670   17.0460   25.3000 O.2   458  ASN458     -0.2716
    102  ND2       31.9190   14.8790   25.7080 N.am  458  ASN458     -0.0877
    103  N         34.3180   33.3600   21.8980 N.3   547  TYR547     -0.1227
    104  CA        34.4680   32.2670   20.9320 C.3   547  TYR547      0.1736
    105  C         33.1330   31.7000   20.4450 C.2   547  TYR547      0.2595
    106  O         33.0500   31.2070   19.3230 O.2   547  TYR547     -0.2718
    107  CB        35.4170   31.1730   21.4390 C.3   547  TYR547      0.0548
    108  CG        34.8100   30.0800   22.2850 C.ar  547  TYR547     -0.0200
    109  CD1       34.2540   28.9440   21.6950 C.ar  547  TYR547     -0.0009
    110  CD2       34.8460   30.1460   23.6730 C.ar  547  TYR547     -0.0009
    111  CE1       33.7240   27.9260   22.4650 C.ar  547  TYR547      0.0417
    112  CE2       34.3120   29.1300   24.4550 C.ar  547  TYR547      0.0417
    113  CZ        33.7570   28.0210   23.8450 C.ar  547  TYR547      0.1957
    114  OH        33.2240   26.9990   24.6070 O.3   547  TYR547     -0.2866
    115  N         32.1010   31.7890   21.2820 N.am  548  LYS548     -0.1980
    116  CA        30.7660   31.2960   20.9380 C.3   548  LYS548      0.1596
    117  C         30.0200   32.2670   20.0160 C.2   548  LYS548      0.2287
    118  O         28.9740   31.9310   19.4490 O.2   548  LYS548     -0.2864
    119  CB        29.9540   31.0150   22.2050 C.3   548  LYS548      0.0298
    120  CG        30.4690   29.8280   23.0190 C.3   548  LYS548      0.0038
    121  CD        29.7160   29.6880   24.3300 C.3   548  LYS548      0.0206
    122  CE        30.3270   28.6460   25.2500 C.3   548  LYS548      0.1093
    123  NZ        30.0410   27.2580   24.7740 N.3   548  LYS548     -0.1314
    124  N         35.0500   25.4740   19.8270 N.3   646  GLU646     -0.1231
    125  CA        34.0980   24.7470   20.6620 C.3   646  GLU646      0.1699
    126  C         34.4530   23.2690   20.6050 C.2   646  GLU646      0.2592
    127  O         34.1760   22.6130   19.6130 O.2   646  GLU646     -0.2718
    128  CB        32.6600   24.9760   20.1800 C.3   646  GLU646      0.0402
    129  CG        31.5860   24.4480   21.1230 C.3   646  GLU646      0.1161
    130  CD        31.4190   25.3250   22.3480 C.2   646  GLU646      0.3649
    131  OE1       32.0530   25.0180   23.3740 O.co2 646  GLU646     -0.2457
    132  OE2       30.6850   26.3360   22.2820 O.co2 646  GLU646     -0.2457
    133  N         35.0780   22.7510   21.6630 N.am  647  ALA647     -0.1966
    134  CA        35.5710   21.3710   21.6590 C.3   647  ALA647      0.1728
    135  C         34.4990   20.3750   21.1930 C.2   647  ALA647      0.2617
    136  O         34.7540   19.5170   20.3470 O.2   647  ALA647     -0.2715
    137  CB        36.1010   20.9880   23.0210 C.3   647  ALA647      0.0334
    138  N         33.2950   20.5060   21.7300 N.am  648  SER648     -0.1936
    139  CA        32.1960   19.6630   21.2830 C.3   648  SER648      0.2055
    140  C         30.9100   20.4620   21.1920 C.2   648  SER648      0.2644
    141  O         30.2840   20.5380   20.1250 O.2   648  SER648     -0.2714
    142  CB        32.0330   18.4690   22.2260 C.3   648  SER648      0.2130
    143  OG        30.7990   17.8060   22.0220 O.3   648  SER648     -0.2179
    144  N         30.5390   21.0830   22.3080 N.am  649  GLY649     -0.1939
    145  CA        29.1880   21.5900   22.4790 C.3   649  GLY649      0.2014
    146  C         28.3020   20.4160   22.8520 C.2   649  GLY649      0.2639
    147  O         28.5710   19.2840   22.4600 O.2   649  GLY649     -0.2714
    148  N         27.2680   20.6790   23.6390 N.am  650  THR650     -0.1950
    149  CA        26.2800   19.6590   23.9960 C.3   650  THR650      0.1897
    150  C         24.8830   20.2410   23.8430 C.2   650  THR650      0.2313
    151  O         23.9200   19.5140   23.5830 O.2   650  THR650     -0.2863
    152  CB        26.4740   19.1350   25.4250 C.3   650  THR650      0.1794
    153  OG1       26.5500   20.2430   26.3260 O.3   650  THR650     -0.2208
    154  CG2       27.7430   18.3000   25.5260 C.3   650  THR650      0.0378
@<TRIPOS>BOND
     1   106   105    2
     2   118   117    2
     3   127   126    2
     4   124   125    1
     5   117   116    1
     6   141   140    2
     7   128   125    1
     8   128   129    1
     9   136   135    2
    10   105   104    1
    11   105   115   am
    12   126   125    1
    13   126   133   am
    14   104   107    1
    15   104   103    1
    16   116   115    1
    17   116   119    1
    18   129   130    1
    19   140   139    1
    20   140   144   am
    21   135   134    1
    22   135   138   am
    23   139   138    1
    24   139   142    1
    25   107   108    1
    26   134   133    1
    27   134   137    1
    28   109   108   ar
    29   109   111   ar
    30   143   142    1
    31    90    91    2
    32    90    89    1
    33   119   120    1
    34   132   130   ar
    35   108   110   ar
    36   144   145    1
    37   130   131   ar
    38    98    97    2
    39   147   146    2
    40   111   113   ar
    41   145   146    1
    42   146   148   am
    43    95    96    1
    44   120   121    1
    45    88    89    1
    46    89    92    1
    47    97    96    1
    48   151   150    2
    49   148   149    1
    50   110   112   ar
    51   150   149    1
    52   113   112   ar
    53   113   114    1
    54    96    99    1
    55   149   152    1
    56    94    92    1
    57    99   100    1
    58   121   122    1
    59    92    93    1
    60   123   122    1
    61    78    79    2
    62    78    77    1
    63   100   101    2
    64   100   102   am
    65    77    76    1
    66    77    80    1
    67   152   154    1
    68   152   153    1
    69    81    80    1
    70    69    68    2
    71    76    68   am
    72    36    34   am
    73    68    67    1
    74    80    82    1
    75    67    66    1
    76    67    70    1
    77    34    35    2
    78    34    33    1
    79    19    18    1
    80    70    71    1
    81    33    30    1
    82    72    71   ar
    83    72    74   ar
    84    87    84    1
    85    83    84    1
    86    71    73   ar
    87    32    31    2
    88    28    26   ar
    89    20    18    1
    90    18    17    1
    91     2     3    1
    92     2     1    1
    93    74    75   ar
    94    30    31    1
    95    30    29    1
    96    84    85    1
    97    31    37   am
    98    73    75   ar
    99     4     3    2
   100     3     5   am
   101    17    14    1
   102    26    27   ar
   103    26    25    1
   104    24    23    2
   105    85    86    2
   106     5     6    1
   107    29    23   am
   108    14    13    1
   109    14    15    1
   110    23    22    1
   111    43    45   ar
   112    43    42   ar
   113    25    22    1
   114    37    38    1
   115    55    53   ar
   116    45    47   ar
   117     6     9    1
   118     6     7    1
   119    38    41    1
   120    38    39    1
   121    41    42    1
   122     9    10    1
   123    16    15    2
   124    54    53   ar
   125    22    21    1
   126    53    52    1
   127    42    44   ar
   128    11    10    1
   129     7     8    2
   130    10    12    1
   131    47    46   ar
   132    49    52    1
   133    49    48    1
   134    49    50    1
   135    39    40    2
   136    44    46   ar
   137    50    51    2
   138    65    64   ar
   139    65    63   ar
   140    64    62   ar
   141    63    61   ar
   142    62    61   ar
   143    56    57    1
   144    61    60    1
   145    57    60    1
   146    57    58    1
   147    58    59    2
