@<TRIPOS>MOLECULE
tmp/3g2lA00.pdb
 212 204 0 0 0
SMALL
GASTEIGER

@<TRIPOS>ATOM
      1  N         33.0650   20.1920   39.3430 N.3    77  GLU77      -0.1245
      2  CA        31.7580   20.6560   38.9240 C.3    77  GLU77       0.1567
      3  C         30.8150   19.4980   38.6190 C.2    77  GLU77       0.2260
      4  O         31.1780   18.5500   37.9070 O.2    77  GLU77      -0.2867
      5  CB        31.8780   21.5980   37.7150 C.3    77  GLU77       0.0388
      6  CG        32.7140   22.8480   37.9890 C.3    77  GLU77       0.1160
      7  CD        32.6400   23.8760   36.8740 C.2    77  GLU77       0.3649
      8  OE1       33.5360   24.7460   36.8140 O.co2  77  GLU77      -0.2457
      9  OE2       31.6900   23.8190   36.0640 O.co2  77  GLU77      -0.2457
     10  N         29.4790   25.5220   36.0130 N.3   122  ASN122     -0.1225
     11  CA        29.4300   26.7490   35.2180 C.3   122  ASN122      0.1785
     12  C         28.6760   26.5930   33.9000 C.2   122  ASN122      0.2598
     13  O         27.9050   27.4670   33.5120 O.2   122  ASN122     -0.2718
     14  CB        30.8500   27.2550   34.9440 C.3   122  ASN122      0.1169
     15  CG        31.4350   28.0100   36.1190 C.2   122  ASN122      0.2627
     16  OD1       31.0310   29.1360   36.4040 O.2   122  ASN122     -0.2716
     17  ND2       32.3900   27.3950   36.8070 N.am  122  ASN122     -0.0877
     18  N         28.9160   25.4810   33.2170 N.am  123  GLY123     -0.1942
     19  CA        28.3860   25.2600   31.8790 C.3   123  GLY123      0.2014
     20  C         28.6410   23.8490   31.4020 C.2   123  GLY123      0.2639
     21  O         28.3270   22.8870   32.1070 O.2   123  GLY123     -0.2714
     22  N         29.2400   23.7290   30.2210 N.am  124  GLY124     -0.1939
     23  CA        29.3560   22.4430   29.5260 C.3   124  GLY124      0.2014
     24  C         30.1110   21.3520   30.2620 C.2   124  GLY124      0.2638
     25  O         29.7130   20.1870   30.2400 O.2   124  GLY124     -0.2714
     26  N         31.2090   21.7310   30.9110 N.am  125  LEU125     -0.1977
     27  CA        32.0620   20.7840   31.6280 C.3   125  LEU125      0.1596
     28  C         31.3380   20.2030   32.8570 C.2   125  LEU125      0.2287
     29  O         31.4180   18.9960   33.1290 O.2   125  LEU125     -0.2864
     30  CB        33.4020   21.4590   31.9930 C.3   125  LEU125      0.0297
     31  CG        34.3900   20.8470   32.9950 C.3   125  LEU125      0.0022
     32  CD1       35.8010   21.3730   32.7370 C.3   125  LEU125      0.0001
     33  CD2       33.9710   21.1430   34.4310 C.3   125  LEU125      0.0001
     34  N         28.3210   17.9480   31.5890 N.3   128  LEU128     -0.1245
     35  CA        28.8470   16.6660   31.1000 C.3   128  LEU128      0.1561
     36  C         28.9820   15.6580   32.2350 C.2   128  LEU128      0.2260
     37  O         28.5930   14.5030   32.0870 O.2   128  LEU128     -0.2867
     38  CB        30.1890   16.8400   30.3830 C.3   128  LEU128      0.0270
     39  CG        30.6590   15.5870   29.6320 C.3   128  LEU128      0.0019
     40  CD1       29.8450   15.3630   28.3530 C.3   128  LEU128      0.0001
     41  CD2       32.1550   15.6140   29.3310 C.3   128  LEU128      0.0001
     42  N         34.4050   31.1130   36.7370 N.3   265  ASN265     -0.1225
     43  CA        35.1960   31.3170   35.5130 C.3   265  ASN265      0.1785
     44  C         35.0230   30.2670   34.4300 C.2   265  ASN265      0.2597
     45  O         35.4300   29.1210   34.5940 O.2   265  ASN265     -0.2718
     46  CB        36.6730   31.4110   35.8500 C.3   265  ASN265      0.1169
     47  CG        37.0120   32.6850   36.5490 C.2   265  ASN265      0.2627
     48  OD1       36.2500   33.6560   36.5010 O.2   265  ASN265     -0.2716
     49  ND2       38.1620   32.7060   37.2070 N.am  265  ASN265     -0.0877
     50  N         34.4210   30.6770   33.3240 N.am  266  ASP266     -0.1960
     51  CA        34.2880   29.8470   32.1410 C.3   266  ASP266      0.1840
     52  C         35.3830   30.3150   31.1560 C.2   266  ASP266      0.2622
     53  O         35.4630   29.8070   30.0410 O.2   266  ASP266     -0.2715
     54  CB        32.8640   30.0360   31.5720 C.3   266  ASP266      0.1450
     55  CG        32.4280   28.9120   30.6160 C.2   266  ASP266      0.3671
     56  OD1       31.7600   27.9360   31.0670 O.co2 266  ASP266     -0.2456
     57  OD2       32.7310   29.0120   29.3980 O.co2 266  ASP266     -0.2456
     58  N         36.2440   31.2540   31.5820 N.am  267  ASN267     -0.1958
     59  CA        37.1620   31.9570   30.6450 C.3   267  ASN267      0.1819
     60  C         38.6980   31.9260   30.8430 C.2   267  ASN267      0.2621
     61  O         39.4240   31.4860   29.9450 O.2   267  ASN267     -0.2715
     62  CB        36.6800   33.3980   30.3370 C.3   267  ASN267      0.1195
     63  CG        36.8540   34.3700   31.5140 C.2   267  ASN267      0.2630
     64  OD1       36.3630   34.1380   32.6240 O.2   267  ASN267     -0.2716
     65  ND2       37.5320   35.4870   31.2520 N.am  267  ASN267     -0.0877
     66  N         39.1930   32.4080   31.9800 N.am  268  PHE268     -0.1960
     67  CA        40.5980   32.8260   32.0770 C.3   268  PHE268      0.1771
     68  C         41.2720   32.3170   33.3580 C.2   268  PHE268      0.2619
     69  O         40.9030   32.7280   34.4620 O.2   268  PHE268     -0.2715
     70  CB        40.6530   34.3590   31.9890 C.3   268  PHE268      0.0574
     71  CG        42.0380   34.9470   32.0560 C.ar  268  PHE268     -0.0200
     72  CD1       42.8760   34.9370   30.9350 C.ar  268  PHE268     -0.0042
     73  CD2       42.4860   35.5650   33.2260 C.ar  268  PHE268     -0.0042
     74  CE1       44.1640   35.5040   30.9840 C.ar  268  PHE268     -0.0003
     75  CE2       43.7710   36.1360   33.2910 C.ar  268  PHE268     -0.0003
     76  CZ        44.6110   36.1050   32.1650 C.ar  268  PHE268     -0.0000
     77  N         42.2620   31.4340   33.2110 N.am  269  PHE269     -0.1974
     78  CA        42.8860   30.8070   34.3750 C.3   269  PHE269      0.1639
     79  C         43.3350   31.8200   35.4150 C.2   269  PHE269      0.2290
     80  O         44.2130   32.6620   35.1720 O.2   269  PHE269     -0.2864
     81  CB        44.0430   29.8660   34.0070 C.3   269  PHE269      0.0560
     82  CG        44.8430   29.3970   35.2020 C.ar  269  PHE269     -0.0200
     83  CD1       46.1440   29.8540   35.4110 C.ar  269  PHE269     -0.0042
     84  CD2       44.2860   28.5190   36.1310 C.ar  269  PHE269     -0.0042
     85  CE1       46.8830   29.4340   36.5120 C.ar  269  PHE269     -0.0003
     86  CE2       45.0140   28.0970   37.2410 C.ar  269  PHE269     -0.0003
     87  CZ        46.3150   28.5510   37.4310 C.ar  269  PHE269     -0.0000
     88  N         39.0560   17.3710   33.2690 N.3   313  ASP313     -0.1239
     89  CA        40.0490   18.4210   33.0370 C.3   313  ASP313      0.1674
     90  C         41.2230   18.2740   34.0160 C.2   313  ASP313      0.2266
     91  O         41.3850   17.2200   34.6400 O.2   313  ASP313     -0.2867
     92  CB        39.4250   19.8250   33.0670 C.3   313  ASP313      0.1410
     93  CG        40.1160   20.7940   32.1100 C.2   313  ASP313      0.3668
     94  OD1       39.4330   21.3520   31.2280 O.co2 313  ASP313     -0.2456
     95  OD2       41.3410   20.9910   32.2230 O.co2 313  ASP313     -0.2456
     96  N         41.6480   20.0990   36.6790 N.3   315  HIS315     -0.1241
     97  CA        41.2620   20.6020   37.9960 C.3   315  HIS315      0.1621
     98  C         41.5640   19.6270   39.1460 C.2   315  HIS315      0.2264
     99  O         42.0220   20.0640   40.1970 O.2   315  HIS315     -0.2867
    100  CB        39.8120   21.1120   38.0200 C.3   315  HIS315      0.0745
    101  CG        39.4630   21.9940   36.8600 C.ar  315  HIS315      0.0817
    102  ND1       38.1960   22.0440   36.3190 N.ar  315  HIS315     -0.2268
    103  CD2       40.2260   22.8280   36.1090 C.ar  315  HIS315      0.1154
    104  CE1       38.1860   22.8920   35.3060 C.ar  315  HIS315      0.1986
    105  NE2       39.4060   23.3810   35.1570 N.ar  315  HIS315     -0.2212
    106  N         39.0870   19.6860   27.6580 N.3   351  HIS351     -0.1226
    107  CA        37.8490   20.3420   27.2160 C.3   351  HIS351      0.1752
    108  C         38.0580   21.6580   26.4470 C.2   351  HIS351      0.2596
    109  O         37.0820   22.3140   26.0780 O.2   351  HIS351     -0.2718
    110  CB        36.9250   20.6080   28.4130 C.3   351  HIS351      0.0759
    111  CG        36.5300   19.3780   29.1660 C.ar  351  HIS351      0.0818
    112  ND1       35.4230   18.6240   28.8360 N.ar  351  HIS351     -0.2268
    113  CD2       37.0930   18.7710   30.2380 C.ar  351  HIS351      0.1154
    114  CE1       35.3220   17.6050   29.6710 C.ar  351  HIS351      0.1986
    115  NE2       36.3240   17.6710   30.5300 N.ar  351  HIS351     -0.2212
    116  N         39.3100   22.0530   26.2200 N.am  352  THR352     -0.1953
    117  CA        39.6070   23.2800   25.4610 C.3   352  THR352      0.1897
    118  C         41.0580   23.3640   25.0120 C.2   352  THR352      0.2313
    119  O         41.9500   22.8080   25.6580 O.2   352  THR352     -0.2863
    120  CB        39.2440   24.5870   26.2360 C.3   352  THR352      0.1794
    121  OG1       39.4250   25.7230   25.3770 O.3   352  THR352     -0.2208
    122  CG2       40.1090   24.7510   27.4680 C.3   352  THR352      0.0378
    123  N         42.1610   26.6000   24.1530 N.3   354  LEU354     -0.1245
    124  CA        42.4960   28.0010   24.4160 C.3   354  LEU354      0.1561
    125  C         43.5940   28.1110   25.4760 C.2   354  LEU354      0.2260
    126  O         43.4290   27.6260   26.5920 O.2   354  LEU354     -0.2867
    127  CB        41.2630   28.8170   24.8100 C.3   354  LEU354      0.0270
    128  CG        40.1630   29.0210   23.7560 C.3   354  LEU354      0.0019
    129  CD1       39.0870   29.9800   24.2730 C.3   354  LEU354      0.0001
    130  CD2       40.7220   29.5020   22.4080 C.3   354  LEU354      0.0001
    131  N         43.1540   29.2050   29.1430 N.3   357  ALA357     -0.1245
    132  CA        42.3660   28.3100   29.9830 C.3   357  ALA357      0.1562
    133  C         43.2310   27.3060   30.7440 C.2   357  ALA357      0.2260
    134  O         42.7640   26.7110   31.7230 O.2   357  ALA357     -0.2867
    135  CB        41.3250   27.5790   29.1500 C.3   357  ALA357      0.0290
    136  N         37.1090   15.5300   23.2280 N.3   429  VAL429     -0.1245
    137  CA        35.6730   15.3730   23.4510 C.3   429  VAL429      0.1561
    138  C         34.8330   15.4460   22.1720 C.2   429  VAL429      0.2260
    139  O         33.6070   15.3690   22.2190 O.2   429  VAL429     -0.2867
    140  CB        35.1670   16.3630   24.5340 C.3   429  VAL429      0.0252
    141  CG1       35.7350   15.9680   25.9040 C.3   429  VAL429      0.0019
    142  CG2       35.5300   17.8020   24.1830 C.3   429  VAL429      0.0019
    143  N         31.4660   13.6720   22.9690 N.3   458  ASN458     -0.1240
    144  CA        30.4880   13.9590   24.0130 C.3   458  ASN458      0.1653
    145  C         29.0850   13.4740   23.6840 C.2   458  ASN458      0.2266
    146  O         28.7940   13.0630   22.5480 O.2   458  ASN458     -0.2867
    147  CB        30.4770   15.4590   24.3430 C.3   458  ASN458      0.1155
    148  CG        31.6170   15.8680   25.2770 C.2   458  ASN458      0.2627
    149  OD1       31.8720   17.0590   25.4720 O.2   458  ASN458     -0.2716
    150  ND2       32.2920   14.8850   25.8700 N.am  458  ASN458     -0.0877
    151  N         30.9590   34.0810   25.9370 N.3   545  HIS545     -0.1241
    152  CA        32.3900   34.1120   25.6500 C.3   545  HIS545      0.1621
    153  C         32.5920   34.6180   24.2310 C.2   545  HIS545      0.2264
    154  O         31.7410   34.4120   23.3600 O.2   545  HIS545     -0.2867
    155  CB        33.0320   32.7270   25.8240 C.3   545  HIS545      0.0745
    156  CG        34.5190   32.7690   26.0220 C.ar  545  HIS545      0.0817
    157  ND1       35.3970   33.1780   25.0340 N.ar  545  HIS545     -0.2268
    158  CD2       35.2850   32.4470   27.0930 C.ar  545  HIS545      0.1154
    159  CE1       36.6350   33.1140   25.4920 C.ar  545  HIS545      0.1986
    160  NE2       36.5960   32.6660   26.7360 N.ar  545  HIS545     -0.2212
    161  N         34.6910   33.5370   21.9950 N.3   547  TYR547     -0.1227
    162  CA        34.8610   32.4400   21.0240 C.3   547  TYR547      0.1736
    163  C         33.5300   31.8910   20.5080 C.2   547  TYR547      0.2595
    164  O         33.4530   31.4190   19.3720 O.2   547  TYR547     -0.2718
    165  CB        35.8030   31.3280   21.5500 C.3   547  TYR547      0.0548
    166  CG        35.1860   30.2020   22.3670 C.ar  547  TYR547     -0.0200
    167  CD1       34.6020   29.0980   21.7430 C.ar  547  TYR547     -0.0009
    168  CD2       35.2450   30.2100   23.7580 C.ar  547  TYR547     -0.0009
    169  CE1       34.0670   28.0580   22.4830 C.ar  547  TYR547      0.0417
    170  CE2       34.7050   29.1690   24.5160 C.ar  547  TYR547      0.0417
    171  CZ        34.1200   28.1000   23.8740 C.ar  547  TYR547      0.1957
    172  OH        33.5850   27.0650   24.6130 O.3   547  TYR547     -0.2866
    173  N         32.4950   31.9830   21.3410 N.am  548  LYS548     -0.1980
    174  CA        31.1560   31.4830   21.0200 C.3   548  LYS548      0.1596
    175  C         30.3930   32.4490   20.1110 C.2   548  LYS548      0.2287
    176  O         29.3310   32.1100   19.5840 O.2   548  LYS548     -0.2864
    177  CB        30.3620   31.2230   22.3040 C.3   548  LYS548      0.0298
    178  CG        30.9200   30.1050   23.1830 C.3   548  LYS548      0.0038
    179  CD        30.3290   30.1780   24.5890 C.3   548  LYS548      0.0206
    180  CE        30.8690   29.0930   25.5270 C.3   548  LYS548      0.1093
    181  NZ        30.2800   27.7570   25.2050 N.3   548  LYS548     -0.1314
    182  N         35.4080   25.6430   19.8060 N.3   646  GLU646     -0.1231
    183  CA        34.4680   24.8870   20.6450 C.3   646  GLU646      0.1699
    184  C         34.8420   23.4050   20.6320 C.2   646  GLU646      0.2592
    185  O         34.6380   22.7320   19.6340 O.2   646  GLU646     -0.2718
    186  CB        33.0240   25.0820   20.1620 C.3   646  GLU646      0.0402
    187  CG        31.9530   24.5020   21.0910 C.3   646  GLU646      0.1161
    188  CD        31.7490   25.3430   22.3290 C.2   646  GLU646      0.3649
    189  OE1       32.3970   25.0570   23.3570 O.co2 646  GLU646     -0.2457
    190  OE2       30.9580   26.3060   22.2710 O.co2 646  GLU646     -0.2457
    191  N         35.3970   22.9030   21.7350 N.am  647  ALA647     -0.1966
    192  CA        35.9060   21.5250   21.7720 C.3   647  ALA647      0.1728
    193  C         34.8830   20.5080   21.2510 C.2   647  ALA647      0.2617
    194  O         35.2020   19.6850   20.3780 O.2   647  ALA647     -0.2715
    195  CB        36.3840   21.1530   23.1670 C.3   647  ALA647      0.0334
    196  N         33.6620   20.5850   21.7760 N.am  648  SER648     -0.1936
    197  CA        32.5800   19.7240   21.3420 C.3   648  SER648      0.2055
    198  C         31.2730   20.4910   21.2460 C.2   648  SER648      0.2644
    199  O         30.6630   20.5830   20.1640 O.2   648  SER648     -0.2714
    200  CB        32.4190   18.5420   22.3050 C.3   648  SER648      0.2130
    201  OG        31.2400   17.8070   22.0190 O.3   648  SER648     -0.2179
    202  N         30.8540   21.0500   22.3810 N.am  649  GLY649     -0.1939
    203  CA        29.4920   21.5380   22.5370 C.3   649  GLY649      0.2014
    204  C         28.6040   20.3870   22.9700 C.2   649  GLY649      0.2639
    205  O         28.8390   19.2290   22.5810 O.2   649  GLY649     -0.2714
    206  N         27.6000   20.6890   23.7910 N.am  650  THR650     -0.1950
    207  CA        26.5700   19.7030   24.1540 C.3   650  THR650      0.1897
    208  C         25.1590   20.2870   24.0380 C.2   650  THR650      0.2313
    209  O         24.1930   19.5580   23.7960 O.2   650  THR650     -0.2863
    210  CB        26.7700   19.1140   25.5590 C.3   650  THR650      0.1794
    211  OG1       26.8190   20.1730   26.5190 O.3   650  THR650     -0.2208
    212  CG2       28.0470   18.2920   25.6350 C.3   650  THR650      0.0378
@<TRIPOS>BOND
     1   164   163    2
     2   176   175    2
     3   185   184    2
     4   182   183    1
     5   175   174    1
     6   186   183    1
     7   186   187    1
     8   199   198    2
     9   194   193    2
    10   163   162    1
    11   163   173   am
    12   184   183    1
    13   184   191   am
    14   174   173    1
    15   174   177    1
    16   162   165    1
    17   162   161    1
    18   187   188    1
    19   198   197    1
    20   198   202   am
    21   193   192    1
    22   193   196   am
    23   197   196    1
    24   197   200    1
    25   165   166    1
    26   191   192    1
    27   167   166   ar
    28   167   169   ar
    29   192   195    1
    30   201   200    1
    31   138   139    2
    32   138   137    1
    33   190   188   ar
    34   177   178    1
    35   188   189   ar
    36   166   168   ar
    37   202   203    1
    38   130   128    1
    39   169   171   ar
    40   203   204    1
    41   146   145    2
    42   205   204    2
    43   143   144    1
    44   204   206   am
    45   178   179    1
    46   136   137    1
    47   154   153    2
    48   137   140    1
    49   145   144    1
    50   128   129    1
    51   128   127    1
    52   168   170   ar
    53   206   207    1
    54   209   208    2
    55   171   170   ar
    56   171   172    1
    57   144   147    1
    58   208   207    1
    59   123   124    1
    60   207   210    1
    61   142   140    1
    62   153   152    1
    63   147   148    1
    64   124   127    1
    65   124   125    1
    66   140   141    1
    67   179   180    1
    68   118   117    1
    69   118   119    2
    70   157   159   ar
    71   157   156   ar
    72   181   180    1
    73   148   149    2
    74   148   150   am
    75   121   120    1
    76   117   116    1
    77   117   120    1
    78   125   126    2
    79   159   160   ar
    80   210   212    1
    81   210   211    1
    82   152   155    1
    83   152   151    1
    84   155   156    1
    85   156   158   ar
    86   109   108    2
    87   116   108   am
    88   120   122    1
    89   108   107    1
    90   160   158   ar
    91   107   106    1
    92   107   110    1
    93    40    39    1
    94   110   111    1
    95   112   111   ar
    96   112   114   ar
    97   131   132    1
    98   135   132    1
    99   111   113   ar
   100    41    39    1
   101    57    55   ar
   102    23    22    1
   103    23    24    1
   104    39    38    1
   105   114   115   ar
   106    61    60    2
   107   132   133    1
   108    53    52    2
   109    22    20   am
   110   113   115   ar
   111    25    24    2
   112    24    26   am
   113    62    59    1
   114    62    63    1
   115    38    35    1
   116    55    56   ar
   117    55    54    1
   118    59    60    1
   119    59    58    1
   120   133   134    2
   121    60    66   am
   122    26    27    1
   123    72    74   ar
   124    72    71   ar
   125    74    76   ar
   126    35    34    1
   127    35    36    1
   128    52    58   am
   129    52    51    1
   130    94    93   ar
   131    65    63   am
   132    20    19    1
   133    20    21    2
   134    63    64    2
   135    54    51    1
   136    27    30    1
   137    27    28    1
   138    19    18    1
   139    66    67    1
   140    70    71    1
   141    70    67    1
   142    30    31    1
   143    71    73   ar
   144    67    68    1
   145    37    36    2
   146    93    95   ar
   147    93    92    1
   148    51    50    1
   149    76    75   ar
   150    32    31    1
   151    28    29    2
   152    31    33    1
   153    89    92    1
   154    89    88    1
   155    89    90    1
   156    77    68   am
   157    77    78    1
   158    18    12   am
   159    73    75   ar
   160    50    44   am
   161    68    69    2
   162    13    12    2
   163    12    11    1
   164    81    78    1
   165    81    82    1
   166    90    91    2
   167    78    79    1
   168    44    45    2
   169    44    43    1
   170    14    11    1
   171    14    15    1
   172   105   104   ar
   173   105   103   ar
   174    80    79    2
   175    82    83   ar
   176    82    84   ar
   177    11    10    1
   178   104   102   ar
   179    83    85   ar
   180    43    46    1
   181    43    42    1
   182    46    47    1
   183     9     7   ar
   184   103   101   ar
   185    15    16    2
   186    15    17   am
   187    84    86   ar
   188   102   101   ar
   189    48    47    2
   190    85    87   ar
   191    47    49   am
   192    96    97    1
   193     8     7   ar
   194   101   100    1
   195     7     6    1
   196    86    87   ar
   197     5     6    1
   198     5     2    1
   199     4     3    2
   200    97   100    1
   201    97    98    1
   202     3     2    1
   203     2     1    1
   204    98    99    2
