@<TRIPOS>MOLECULE
tmp/3g2nA00.pdb
 173 166 0 0 0
SMALL
GASTEIGER

@<TRIPOS>ATOM
      1  N         28.8670   25.4550   33.2550 N.3   123  GLY123     -0.1210
      2  CA        28.2900   25.2270   31.9340 C.3   123  GLY123      0.1956
      3  C         28.5370   23.8230   31.4480 C.2   123  GLY123      0.2612
      4  O         28.2340   22.8670   32.1550 O.2   123  GLY123     -0.2717
      5  N         29.1100   23.7070   30.2490 N.am  124  GLY124     -0.1942
      6  CA        29.2510   22.4240   29.5560 C.3   124  GLY124      0.2014
      7  C         30.0020   21.3190   30.2770 C.2   124  GLY124      0.2638
      8  O         29.5830   20.1550   30.2500 O.2   124  GLY124     -0.2714
      9  N         31.1210   21.6710   30.9140 N.am  125  LEU125     -0.1977
     10  CA        31.9390   20.6920   31.6300 C.3   125  LEU125      0.1596
     11  C         31.1860   20.0960   32.8280 C.2   125  LEU125      0.2287
     12  O         31.1930   18.8720   33.0320 O.2   125  LEU125     -0.2864
     13  CB        33.2780   21.3180   32.0700 C.3   125  LEU125      0.0297
     14  CG        34.2170   20.5090   32.9790 C.3   125  LEU125      0.0022
     15  CD1       35.6910   20.9150   32.8250 C.3   125  LEU125      0.0001
     16  CD2       33.7970   20.6360   34.4430 C.3   125  LEU125      0.0001
     17  N         28.2060   17.9830   31.5930 N.3   128  LEU128     -0.1245
     18  CA        28.7090   16.7120   31.0820 C.3   128  LEU128      0.1561
     19  C         28.8760   15.7040   32.2080 C.2   128  LEU128      0.2260
     20  O         28.4870   14.5480   32.0660 O.2   128  LEU128     -0.2867
     21  CB        30.0400   16.8850   30.3350 C.3   128  LEU128      0.0270
     22  CG        30.5170   15.6420   29.5680 C.3   128  LEU128      0.0019
     23  CD1       29.7180   15.4400   28.2740 C.3   128  LEU128      0.0001
     24  CD2       32.0080   15.7100   29.2830 C.3   128  LEU128      0.0001
     25  N         34.4670   30.9900   36.6890 N.3   268  ASN268     -0.1225
     26  CA        35.2410   31.1030   35.4350 C.3   268  ASN268      0.1785
     27  C         34.9070   30.0810   34.3540 C.2   268  ASN268      0.2597
     28  O         35.2770   28.9030   34.4550 O.2   268  ASN268     -0.2718
     29  CB        36.7420   31.0280   35.7200 C.3   268  ASN268      0.1169
     30  CG        37.2290   32.1910   36.5430 C.2   268  ASN268      0.2627
     31  OD1       36.8520   33.3420   36.2970 O.2   268  ASN268     -0.2716
     32  ND2       38.0750   31.9030   37.5310 N.am  268  ASN268     -0.0877
     33  N         34.2200   30.5350   33.3130 N.am  269  ASP269     -0.1960
     34  CA        33.9980   29.7050   32.1400 C.3   269  ASP269      0.1840
     35  C         35.0880   30.0220   31.1200 C.2   269  ASP269      0.2622
     36  O         35.1780   31.1520   30.6260 O.2   269  ASP269     -0.2715
     37  CB        32.6130   29.9540   31.5420 C.3   269  ASP269      0.1450
     38  CG        32.1260   28.7850   30.7030 C.2   269  ASP269      0.3671
     39  OD1       31.7800   27.7250   31.2860 O.co2 269  ASP269     -0.2456
     40  OD2       32.0870   28.9230   29.4570 O.co2 269  ASP269     -0.2456
     41  N         35.9130   29.0200   30.8210 N.am  270  ASN270     -0.1958
     42  CA        37.0380   29.1420   29.8770 C.3   270  ASN270      0.1819
     43  C         37.9990   30.3140   30.1700 C.2   270  ASN270      0.2621
     44  O         38.1410   31.2370   29.3590 O.2   270  ASN270     -0.2715
     45  CB        36.5550   29.1300   28.4100 C.3   270  ASN270      0.1195
     46  CG        36.1290   27.7320   27.9280 C.2   270  ASN270      0.2630
     47  OD1       36.9080   27.0150   27.2940 O.2   270  ASN270     -0.2716
     48  ND2       34.8850   27.3510   28.2220 N.am  270  ASN270     -0.0877
     49  N         38.6380   30.2540   31.3430 N.am  271  PHE271     -0.1974
     50  CA        39.7150   31.1730   31.7600 C.3   271  PHE271      0.1639
     51  C         40.3680   30.6910   33.0700 C.2   271  PHE271      0.2290
     52  O         39.7100   30.0120   33.8730 O.2   271  PHE271     -0.2864
     53  CB        39.2000   32.6050   31.9170 C.3   271  PHE271      0.0560
     54  CG        40.2800   33.6110   32.2100 C.ar  271  PHE271     -0.0200
     55  CD1       41.2930   33.8600   31.2850 C.ar  271  PHE271     -0.0042
     56  CD2       40.2840   34.3140   33.4120 C.ar  271  PHE271     -0.0042
     57  CE1       42.2970   34.7910   31.5540 C.ar  271  PHE271     -0.0003
     58  CE2       41.2850   35.2510   33.6940 C.ar  271  PHE271     -0.0003
     59  CZ        42.2920   35.4890   32.7630 C.ar  271  PHE271     -0.0000
     60  N         39.2110   17.2280   33.1480 N.3   319  ASP319     -0.1239
     61  CA        40.1950   18.2710   32.8630 C.3   319  ASP319      0.1674
     62  C         41.3200   18.2100   33.9040 C.2   319  ASP319      0.2266
     63  O         41.4870   17.1790   34.5600 O.2   319  ASP319     -0.2867
     64  CB        39.5590   19.6700   32.7420 C.3   319  ASP319      0.1410
     65  CG        40.3180   20.5570   31.7720 C.2   319  ASP319      0.3668
     66  OD1       40.1210   20.4330   30.5400 O.co2 319  ASP319     -0.2456
     67  OD2       41.1500   21.3530   32.2470 O.co2 319  ASP319     -0.2456
     68  N         41.6340   20.0350   36.6230 N.3   321  HIS321     -0.1241
     69  CA        41.2330   20.5270   37.9390 C.3   321  HIS321      0.1621
     70  C         41.5810   19.5700   39.0850 C.2   321  HIS321      0.2264
     71  O         42.0440   20.0230   40.1270 O.2   321  HIS321     -0.2867
     72  CB        39.7610   20.9670   37.9740 C.3   321  HIS321      0.0745
     73  CG        39.3840   21.8930   36.8580 C.ar  321  HIS321      0.0817
     74  ND1       38.0880   22.0270   36.4080 N.ar  321  HIS321     -0.2268
     75  CD2       40.1380   22.7050   36.0780 C.ar  321  HIS321      0.1154
     76  CE1       38.0570   22.8970   35.4140 C.ar  321  HIS321      0.1986
     77  NE2       39.2900   23.3210   35.1930 N.ar  321  HIS321     -0.2212
     78  N         39.2460   19.3570   27.9430 N.3   357  HIS357     -0.1226
     79  CA        37.9810   19.9890   27.5800 C.3   357  HIS357      0.1752
     80  C         38.1280   21.3480   26.8870 C.2   357  HIS357      0.2596
     81  O         37.1320   22.0240   26.6680 O.2   357  HIS357     -0.2718
     82  CB        37.0790   20.1460   28.8080 C.3   357  HIS357      0.0759
     83  CG        36.6140   18.8540   29.3930 C.ar  357  HIS357      0.0818
     84  ND1       35.4090   18.2760   29.0590 N.ar  357  HIS357     -0.2268
     85  CD2       37.1870   18.0330   30.3040 C.ar  357  HIS357      0.1154
     86  CE1       35.2630   17.1500   29.7330 C.ar  357  HIS357      0.1986
     87  NE2       36.3250   16.9830   30.5010 N.ar  357  HIS357     -0.2212
     88  N         39.3540   21.7500   26.5510 N.am  358  THR358     -0.1953
     89  CA        39.5620   23.0040   25.8140 C.3   358  THR358      0.1897
     90  C         40.9910   23.1570   25.3120 C.2   358  THR358      0.2313
     91  O         41.9240   22.6050   25.9010 O.2   358  THR358     -0.2863
     92  CB        39.1540   24.2630   26.6430 C.3   358  THR358      0.1794
     93  OG1       39.2710   25.4410   25.8330 O.3   358  THR358     -0.2208
     94  CG2       40.0160   24.4070   27.8950 C.3   358  THR358      0.0378
     95  N         42.7860   29.2390   29.2840 N.3   363  ALA363     -0.1245
     96  CA        42.0200   28.3460   30.1460 C.3   363  ALA363      0.1562
     97  C         42.9020   27.2810   30.8010 C.2   363  ALA363      0.2260
     98  O         42.4590   26.5770   31.7100 O.2   363  ALA363     -0.2867
     99  CB        40.8880   27.6980   29.3590 C.3   363  ALA363      0.0290
    100  N         37.1220   15.4550   23.2430 N.3   435  VAL435     -0.1245
    101  CA        35.6890   15.2840   23.4710 C.3   435  VAL435      0.1561
    102  C         34.8420   15.3990   22.2010 C.2   435  VAL435      0.2260
    103  O         33.6180   15.4420   22.2670 O.2   435  VAL435     -0.2867
    104  CB        35.1830   16.2520   24.5690 C.3   435  VAL435      0.0252
    105  CG1       35.7330   15.8430   25.9340 C.3   435  VAL435      0.0019
    106  CG2       35.5610   17.6950   24.2480 C.3   435  VAL435      0.0019
    107  N         31.4450   13.6150   23.0160 N.3   464  ASN464     -0.1240
    108  CA        30.4980   13.8960   24.0870 C.3   464  ASN464      0.1653
    109  C         29.0810   13.4380   23.7490 C.2   464  ASN464      0.2266
    110  O         28.7710   13.1300   22.5970 O.2   464  ASN464     -0.2867
    111  CB        30.5010   15.4020   24.4120 C.3   464  ASN464      0.1155
    112  CG        31.6700   15.8210   25.3180 C.2   464  ASN464      0.2627
    113  OD1       31.9480   17.0200   25.4770 O.2   464  ASN464     -0.2716
    114  ND2       32.3380   14.8490   25.9220 N.am  464  ASN464     -0.0877
    115  N         34.6530   33.7090   22.0410 N.3   553  TYR553     -0.1227
    116  CA        34.8000   32.5950   21.0940 C.3   553  TYR553      0.1736
    117  C         33.4730   32.0090   20.6210 C.2   553  TYR553      0.2595
    118  O         33.4060   31.4660   19.5190 O.2   553  TYR553     -0.2718
    119  CB        35.7670   31.5150   21.5960 C.3   553  TYR553      0.0548
    120  CG        35.1900   30.3840   22.4260 C.ar  553  TYR553     -0.0200
    121  CD1       34.6300   29.2600   21.8180 C.ar  553  TYR553     -0.0009
    122  CD2       35.2710   30.4030   23.8200 C.ar  553  TYR553     -0.0009
    123  CE1       34.1320   28.2100   22.5760 C.ar  553  TYR553      0.0417
    124  CE2       34.7750   29.3540   24.5840 C.ar  553  TYR553      0.0417
    125  CZ        34.2150   28.2610   23.9590 C.ar  553  TYR553      0.1957
    126  OH        33.7150   27.2140   24.7150 O.3   553  TYR553     -0.2866
    127  N         32.4340   32.1180   21.4490 N.am  554  LYS554     -0.1980
    128  CA        31.1050   31.6070   21.0970 C.3   554  LYS554      0.1596
    129  C         30.3740   32.5670   20.1430 C.2   554  LYS554      0.2287
    130  O         29.3380   32.2230   19.5670 O.2   554  LYS554     -0.2864
    131  CB        30.2830   31.3220   22.3640 C.3   554  LYS554      0.0298
    132  CG        30.7950   30.1000   23.1620 C.3   554  LYS554      0.0038
    133  CD        30.2800   30.0900   24.6070 C.3   554  LYS554      0.0206
    134  CE        30.8590   28.9470   25.4470 C.3   554  LYS554      0.1093
    135  NZ        30.4210   27.5920   24.9550 N.3   554  LYS554     -0.1314
    136  N         37.6240   26.3110   18.1480 N.3   651  THR651     -0.1203
    137  CA        37.5660   26.8700   19.5020 C.3   651  THR651      0.1994
    138  C         36.6190   26.1400   20.4700 C.2   651  THR651      0.2618
    139  O         36.9130   26.0480   21.6670 O.2   651  THR651     -0.2717
    140  CB        37.2230   28.3760   19.4720 C.3   651  THR651      0.1784
    141  OG1       35.9160   28.5570   18.9230 O.3   651  THR651     -0.2211
    142  CG2       38.2410   29.1500   18.6210 C.3   651  THR651      0.0376
    143  N         35.4930   25.6290   19.9650 N.am  652  GLU652     -0.1965
    144  CA        34.5440   24.8870   20.8080 C.3   652  GLU652      0.1733
    145  C         34.9350   23.4130   20.7900 C.2   652  GLU652      0.2616
    146  O         34.7540   22.7410   19.7800 O.2   652  GLU652     -0.2715
    147  CB        33.1010   25.0920   20.3080 C.3   652  GLU652      0.0429
    148  CG        31.9910   24.5980   21.2500 C.3   652  GLU652      0.1163
    149  CD        31.8300   25.4770   22.4740 C.2   652  GLU652      0.3649
    150  OE1       32.4350   25.1500   23.5130 O.co2 652  GLU652     -0.2457
    151  OE2       31.1210   26.5070   22.3970 O.co2 652  GLU652     -0.2457
    152  N         35.4950   22.9140   21.8930 N.am  653  ALA653     -0.1963
    153  CA        35.9850   21.5310   21.9420 C.3   653  ALA653      0.1728
    154  C         34.9500   20.5270   21.4200 C.2   653  ALA653      0.2617
    155  O         35.2510   19.7070   20.5450 O.2   653  ALA653     -0.2715
    156  CB        36.4440   21.1580   23.3470 C.3   653  ALA653      0.0334
    157  N         33.7330   20.6030   21.9490 N.am  654  SER654     -0.1936
    158  CA        32.6580   19.7460   21.4790 C.3   654  SER654      0.2055
    159  C         31.3750   20.5330   21.3450 C.2   654  SER654      0.2644
    160  O         30.8180   20.6390   20.2450 O.2   654  SER654     -0.2714
    161  CB        32.4570   18.5480   22.4160 C.3   654  SER654      0.2130
    162  OG        31.2070   17.9150   22.1740 O.3   654  SER654     -0.2179
    163  N         30.9370   21.1160   22.4610 N.am  655  GLY655     -0.1939
    164  CA        29.5820   21.6330   22.5930 C.3   655  GLY655      0.2014
    165  C         28.6990   20.4710   23.0170 C.2   655  GLY655      0.2639
    166  O         28.9650   19.3270   22.6470 O.2   655  GLY655     -0.2714
    167  N         27.6730   20.7540   23.8150 N.am  656  THR656     -0.1950
    168  CA        26.6630   19.7560   24.1780 C.3   656  THR656      0.1897
    169  C         25.2590   20.3280   24.0300 C.2   656  THR656      0.2313
    170  O         24.3080   19.5930   23.7780 O.2   656  THR656     -0.2863
    171  CB        26.8430   19.2090   25.6080 C.3   656  THR656      0.1794
    172  OG1       26.9210   20.2990   26.5270 O.3   656  THR656     -0.2208
    173  CG2       28.0910   18.3520   25.7140 C.3   656  THR656      0.0378
@<TRIPOS>BOND
     1   136   137    1
     2   142   140    1
     3   141   140    1
     4   140   137    1
     5   137   138    1
     6   118   117    2
     7   130   129    2
     8   146   145    2
     9   143   138   am
    10   143   144    1
    11   129   128    1
    12   160   159    2
    13   147   144    1
    14   147   148    1
    15   138   139    2
    16   155   154    2
    17   117   116    1
    18   117   127   am
    19   145   144    1
    20   145   152   am
    21   116   119    1
    22   116   115    1
    23   128   127    1
    24   128   131    1
    25   148   149    1
    26   159   158    1
    27   159   163   am
    28   154   153    1
    29   154   157   am
    30   158   157    1
    31   158   161    1
    32   119   120    1
    33   121   120   ar
    34   121   123   ar
    35   152   153    1
    36   153   156    1
    37   162   161    1
    38   102   103    2
    39   102   101    1
    40   131   132    1
    41   151   149   ar
    42   120   122   ar
    43   163   164    1
    44   149   150   ar
    45   123   125   ar
    46   164   165    1
    47   110   109    2
    48   166   165    2
    49   107   108    1
    50   165   167   am
    51   132   133    1
    52   100   101    1
    53   101   104    1
    54   109   108    1
    55   170   169    2
    56   167   168    1
    57   122   124   ar
    58   125   124   ar
    59   125   126    1
    60   169   168    1
    61   108   111    1
    62   168   171    1
    63   106   104    1
    64   111   112    1
    65   104   105    1
    66   133   134    1
    67   135   134    1
    68    90    89    1
    69    90    91    2
    70   112   113    2
    71   112   114   am
    72   171   173    1
    73   171   172    1
    74    89    88    1
    75    89    92    1
    76    93    92    1
    77    88    80   am
    78    92    94    1
    79    81    80    2
    80    80    79    1
    81    47    46    2
    82    79    78    1
    83    79    82    1
    84    46    48   am
    85    46    45    1
    86    23    22    1
    87    45    42    1
    88    82    83    1
    89    84    83   ar
    90    84    86   ar
    91    24    22    1
    92    95    96    1
    93    44    43    2
    94    99    96    1
    95    83    85   ar
    96    40    38   ar
    97     6     5    1
    98     6     7    1
    99    22    21    1
   100    86    87   ar
   101    42    43    1
   102    42    41    1
   103    96    97    1
   104    43    49   am
   105     5     3   am
   106     8     7    2
   107     7     9   am
   108    85    87   ar
   109    21    18    1
   110    66    65   ar
   111    36    35    2
   112    38    39   ar
   113    38    37    1
   114    97    98    2
   115    41    35   am
   116     9    10    1
   117    18    17    1
   118    18    19    1
   119    35    34    1
   120    55    57   ar
   121    55    54   ar
   122    49    50    1
   123     3     2    1
   124     3     4    2
   125    37    34    1
   126    57    59   ar
   127    10    13    1
   128    10    11    1
   129    50    53    1
   130    50    51    1
   131    65    67   ar
   132    65    64    1
   133    53    54    1
   134     2     1    1
   135    20    19    2
   136    13    14    1
   137    34    33    1
   138    54    56   ar
   139    64    61    1
   140    59    58   ar
   141    15    14    1
   142    11    12    2
   143    61    60    1
   144    61    62    1
   145    14    16    1
   146    51    52    2
   147    33    27   am
   148    56    58   ar
   149    62    63    2
   150    27    28    2
   151    27    26    1
   152    77    76   ar
   153    77    75   ar
   154    76    74   ar
   155    26    29    1
   156    26    25    1
   157    29    30    1
   158    75    73   ar
   159    31    30    2
   160    74    73   ar
   161    30    32   am
   162    68    69    1
   163    73    72    1
   164    69    72    1
   165    69    70    1
   166    70    71    2
