@<TRIPOS>MOLECULE
tmp/3g2pB00.pdb
 106 98 0 0 0
SMALL
GASTEIGER

@<TRIPOS>ATOM
      1  N        -15.1710   53.2430   22.2120 N.3    47  ALA47      -0.1245
      2  CA       -15.2090   54.6830   22.4380 C.3    47  ALA47       0.1562
      3  C        -16.0060   55.3100   21.3110 C.2    47  ALA47       0.2260
      4  O        -15.4750   56.0720   20.4840 O.2    47  ALA47      -0.2867
      5  CB       -13.8300   55.2490   22.5150 C.3    47  ALA47       0.0290
      6  N        -18.1160   57.3990   20.9620 N.3    49  GLY49      -0.1225
      7  CA       -18.6380   58.7580   21.0780 C.3    49  GLY49       0.1811
      8  C        -20.1470   58.6830   21.1260 C.2    49  GLY49       0.2280
      9  O        -20.7200   57.8270   21.8210 O.2    49  GLY49      -0.2866
     10  N        -19.0830   50.7210   22.7300 N.3    67  LEU67      -0.1231
     11  CA       -18.5620   50.9950   24.0620 C.3    67  LEU67       0.1693
     12  C        -18.2000   52.4740   24.1810 C.2    67  LEU67       0.2592
     13  O        -17.5360   53.0180   23.3140 O.2    67  LEU67      -0.2718
     14  CB       -17.3470   50.1050   24.3490 C.3    67  LEU67       0.0284
     15  CG       -16.8000   50.0060   25.7740 C.3    67  LEU67       0.0019
     16  CD1      -16.2540   48.6130   26.0660 C.3    67  LEU67       0.0001
     17  CD2      -15.7410   51.0680   26.0110 C.3    67  LEU67       0.0001
     18  N        -18.6470   53.1170   25.2530 N.am   68  GLU68      -0.1966
     19  CA       -18.3050   54.5020   25.5280 C.3    68  GLU68       0.1733
     20  C        -18.1020   54.6880   27.0310 C.2    68  GLU68       0.2616
     21  O        -18.7220   54.0020   27.8220 O.2    68  GLU68      -0.2715
     22  CB       -19.4040   55.4120   25.0000 C.3    68  GLU68       0.0429
     23  CG       -19.3530   56.8700   25.4570 C.3    68  GLU68       0.1163
     24  CD       -18.0930   57.6000   25.0160 C.2    68  GLU68       0.3649
     25  OE1      -17.7020   57.4490   23.8400 O.co2  68  GLU68      -0.2457
     26  OE2      -17.4960   58.3220   25.8570 O.co2  68  GLU68      -0.2457
     27  N        -17.2320   55.6040   27.4310 N.am   69  LEU69      -0.1963
     28  CA       -16.9500   55.7880   28.8400 C.3    69  LEU69       0.1728
     29  C        -17.9030   56.7500   29.5170 C.2    69  LEU69       0.2616
     30  O        -18.3030   56.5090   30.6340 O.2    69  LEU69      -0.2715
     31  CB       -15.5160   56.2890   29.0280 C.3    69  LEU69       0.0311
     32  CG       -14.9580   56.5620   30.4450 C.3    69  LEU69       0.0022
     33  CD1      -14.3250   55.2970   31.0820 C.3    69  LEU69       0.0001
     34  CD2      -13.9480   57.7470   30.3800 C.3    69  LEU69       0.0001
     35  N        -18.2550   57.8340   28.8330 N.am   70  SER70      -0.1950
     36  CA       -18.9480   58.9790   29.4510 C.3    70  SER70       0.1924
     37  C        -20.4560   58.8160   29.7030 C.2    70  SER70       0.2314
     38  O        -21.2200   58.5110   28.7810 O.2    70  SER70      -0.2863
     39  CB       -18.7160   60.2350   28.5910 C.3    70  SER70       0.2116
     40  OG       -19.7380   61.2040   28.7740 O.3    70  SER70      -0.2180
     41  N        -22.1930   61.4560   27.5000 N.3    73  VAL73      -0.1245
     42  CA       -22.1730   61.1470   26.0720 C.3    73  VAL73       0.1561
     43  C        -23.1230   59.9820   25.7760 C.2    73  VAL73       0.2260
     44  O        -23.7880   59.9350   24.7320 O.2    73  VAL73      -0.2867
     45  CB       -20.7180   60.9710   25.5520 C.3    73  VAL73       0.0252
     46  CG1      -20.6750   60.2570   24.2470 C.3    73  VAL73       0.0019
     47  CG2      -20.0870   62.3370   25.3830 C.3    73  VAL73       0.0019
     48  N        -18.0600   51.7490   29.6130 N.3    97  GLY97      -0.1210
     49  CA       -16.8340   50.9620   29.6390 C.3    97  GLY97       0.1956
     50  C        -15.6040   51.8160   29.4690 C.2    97  GLY97       0.2612
     51  O        -15.6950   53.0200   29.2310 O.2    97  GLY97      -0.2717
     52  N        -14.4500   51.1810   29.5950 N.am   98  ASP98      -0.1959
     53  CA       -13.1960   51.8640   29.4010 C.3    98  ASP98       0.1840
     54  C        -12.3920   51.1060   28.3700 C.2    98  ASP98       0.2622
     55  O        -11.9910   49.9670   28.6040 O.2    98  ASP98      -0.2715
     56  CB       -12.4550   51.9240   30.7190 C.3    98  ASP98       0.1450
     57  CG       -11.0890   52.5680   30.6070 C.2    98  ASP98       0.3671
     58  OD1      -10.5120   52.6630   29.4910 O.co2  98  ASP98      -0.2456
     59  OD2      -10.5890   52.9630   31.6830 O.co2  98  ASP98      -0.2456
     60  N        -12.1550   51.7470   27.2280 N.am   99  MET99      -0.1963
     61  CA       -11.4770   51.0970   26.1100 C.3    99  MET99       0.1736
     62  C        -10.0840   50.6110   26.4800 C.2    99  MET99       0.2617
     63  O         -9.5490   49.7440   25.8000 O.2    99  MET99      -0.2715
     64  CB       -11.4300   51.9910   24.8770 C.3    99  MET99       0.0427
     65  CG       -10.6490   53.2490   25.0750 C.3    99  MET99       0.0599
     66  SD       -10.4430   54.2370   23.5820 S.3    99  MET99      -0.1393
     67  CE       -10.3060   55.8900   24.2650 C.3    99  MET99       0.0692
     68  N         -9.5070   51.1360   27.5590 N.am  100  SER100     -0.1950
     69  CA        -8.1670   50.7140   27.9600 C.3   100  SER100      0.1924
     70  C         -8.1800   49.5060   28.9230 C.2   100  SER100      0.2314
     71  O         -7.1410   48.8750   29.1810 O.2   100  SER100     -0.2863
     72  CB        -7.3860   51.8840   28.5360 C.3   100  SER100      0.2116
     73  OG        -7.9850   52.2680   29.7370 O.3   100  SER100     -0.2180
     74  N        -11.7010   54.5120   16.3320 N.3   114  SER114     -0.1217
     75  CA       -11.5050   55.6830   15.4820 C.3   114  SER114      0.1889
     76  C        -10.3040   56.5350   15.9070 C.2   114  SER114      0.2288
     77  O         -9.9320   56.5440   17.1070 O.2   114  SER114     -0.2866
     78  CB       -12.7550   56.5220   15.5450 C.3   114  SER114      0.2089
     79  OG       -12.4450   57.8380   15.9630 O.3   114  SER114     -0.2183
     80  N         -9.6980   59.6700   16.5840 N.3   116  GLY116     -0.1210
     81  CA        -9.9200   60.4540   17.7950 C.3   116  GLY116      0.1956
     82  C         -9.9620   59.6740   19.1130 C.2   116  GLY116      0.2612
     83  O         -9.6350   60.2120   20.1780 O.2   116  GLY116     -0.2717
     84  N        -10.3840   58.4100   19.0540 N.am  117  SER117     -0.1952
     85  CA       -10.4640   57.5840   20.2560 C.3   117  SER117      0.1924
     86  C         -9.0890   57.1080   20.6690 C.2   117  SER117      0.2314
     87  O         -8.7030   57.2310   21.8300 O.2   117  SER117     -0.2863
     88  CB       -11.3600   56.3770   20.0460 C.3   117  SER117      0.2116
     89  OG       -12.6800   56.7680   19.7750 O.3   117  SER117     -0.2180
     90  N         -6.7240   59.6210   22.3090 N.3   120  GLU120     -0.1231
     91  CA        -7.0980   60.0540   23.6380 C.3   120  GLU120      0.1699
     92  C         -6.3950   59.2740   24.7420 C.2   120  GLU120      0.2592
     93  O         -6.5050   59.6260   25.9030 O.2   120  GLU120     -0.2718
     94  CB        -8.5960   59.9000   23.8340 C.3   120  GLU120      0.0402
     95  CG        -9.1970   60.9560   24.7520 C.3   120  GLU120      0.1161
     96  CD        -9.9010   62.0260   23.9620 C.2   120  GLU120      0.3649
     97  OE1      -11.1570   62.0290   23.9740 O.co2 120  GLU120     -0.2457
     98  OE2       -9.2100   62.8270   23.2900 O.co2 120  GLU120     -0.2457
     99  N         -5.6960   58.2100   24.3950 N.am  121  LEU121     -0.1980
    100  CA        -4.9960   57.3940   25.3780 C.3   121  LEU121      0.1596
    101  C         -3.5090   57.6980   25.3200 C.2   121  LEU121      0.2287
    102  O         -2.9630   57.8440   24.2350 O.2   121  LEU121     -0.2864
    103  CB        -5.2100   55.9050   25.0450 C.3   121  LEU121      0.0297
    104  CG        -6.6360   55.3640   24.8780 C.3   121  LEU121      0.0022
    105  CD1       -6.5840   53.9240   24.4290 C.3   121  LEU121      0.0001
    106  CD2       -7.3760   55.4630   26.1830 C.3   121  LEU121      0.0001
@<TRIPOS>BOND
     1    75    78    1
     2    75    76    1
     3    75    74    1
     4    78    79    1
     5    76    77    2
     6    80    81    1
     7    81    82    1
     8    84    82   am
     9    84    85    1
    10    82    83    2
    11    89    88    1
    12    88    85    1
    13    85    86    1
    14     4     3    2
    15    86    87    2
    16     6     7    1
    17     7     8    1
    18     8     9    2
    19     3     2    1
    20     1     2    1
    21    90    91    1
    22     2     5    1
    23    10    11    1
    24    98    96   ar
    25    13    12    2
    26    66    67    1
    27    66    65    1
    28    91    94    1
    29    91    92    1
    30    94    95    1
    31    25    24   ar
    32    96    97   ar
    33    96    95    1
    34    11    12    1
    35    11    14    1
    36    12    18   am
    37   102   101    2
    38    46    45    1
    39    14    15    1
    40    99    92   am
    41    99   100    1
    42   105   104    1
    43    44    43    2
    44    92    93    2
    45    64    65    1
    46    64    61    1
    47   104   103    1
    48   104   106    1
    49    22    23    1
    50    22    19    1
    51    24    23    1
    52    24    26   ar
    53   103   100    1
    54    18    19    1
    55   101   100    1
    56    47    45    1
    57    19    20    1
    58    45    42    1
    59    15    17    1
    60    15    16    1
    61    43    42    1
    62    63    62    2
    63    42    41    1
    64    61    62    1
    65    61    60    1
    66    62    68   am
    67    20    27   am
    68    20    21    2
    69    60    54   am
    70    27    28    1
    71    68    69    1
    72    69    72    1
    73    69    70    1
    74    54    55    2
    75    54    53    1
    76    72    73    1
    77    39    40    1
    78    39    36    1
    79    38    37    2
    80    35    36    1
    81    35    29   am
    82    28    31    1
    83    28    29    1
    84    70    71    2
    85    31    32    1
    86    51    50    2
    87    53    52    1
    88    53    56    1
    89    36    37    1
    90    50    52   am
    91    50    49    1
    92    58    57   ar
    93    29    30    2
    94    48    49    1
    95    34    32    1
    96    32    33    1
    97    57    56    1
    98    57    59   ar
