@<TRIPOS>MOLECULE
tmp/3g2pA00.pdb
 155 147 0 0 0
SMALL
GASTEIGER

@<TRIPOS>ATOM
      1  N         24.7280   63.6600   39.2980 N.3    51  GLU51      -0.1231
      2  CA        24.5080   63.2700   37.9350 C.3    51  GLU51       0.1699
      3  C         23.7590   61.9380   37.8310 C.2    51  GLU51       0.2592
      4  O         24.2020   60.9030   38.3770 O.2    51  GLU51      -0.2718
      5  CB        25.8090   63.1950   37.1800 C.3    51  GLU51       0.0402
      6  CG        25.5630   63.0950   35.6900 C.3    51  GLU51       0.1161
      7  CD        26.7460   62.5830   34.9210 C.2    51  GLU51       0.3649
      8  OE1       27.8770   62.5880   35.4630 O.co2  51  GLU51      -0.2457
      9  OE2       26.5410   62.1640   33.7620 O.co2  51  GLU51      -0.2457
     10  N         22.6280   61.9640   37.1190 N.am   52  LEU52      -0.1966
     11  CA        21.7660   60.7910   36.9750 C.3    52  LEU52       0.1728
     12  C         22.1400   59.9730   35.7620 C.2    52  LEU52       0.2616
     13  O         22.3940   60.5200   34.7110 O.2    52  LEU52      -0.2715
     14  CB        20.2920   61.2040   36.8940 C.3    52  LEU52       0.0311
     15  CG        19.7070   61.8860   38.1470 C.3    52  LEU52       0.0022
     16  CD1       18.3290   62.4910   37.8690 C.3    52  LEU52       0.0001
     17  CD2       19.6760   60.9980   39.4140 C.3    52  LEU52       0.0001
     18  N         22.1680   58.6550   35.8970 N.am   53  ALA53      -0.1963
     19  CA        22.5410   57.7890   34.7880 C.3    53  ALA53       0.1728
     20  C         23.8560   58.2660   34.1950 C.2    53  ALA53       0.2616
     21  O         23.9410   58.5860   33.0160 O.2    53  ALA53      -0.2715
     22  CB        21.4620   57.7980   33.7430 C.3    53  ALA53       0.0334
     23  N         24.8790   58.3080   35.0360 N.am   54  ALA54      -0.1963
     24  CA        26.1550   58.9130   34.6910 C.3    54  ALA54       0.1728
     25  C         26.9170   58.0530   33.7360 C.2    54  ALA54       0.2617
     26  O         27.9970   58.4050   33.3290 O.2    54  ALA54      -0.2715
     27  CB        26.9810   59.1780   35.9430 C.3    54  ALA54       0.0334
     28  N         26.3510   56.9210   33.3770 N.am   55  GLY55      -0.1940
     29  CA        26.9910   56.0500   32.4300 C.3    55  GLY55       0.2014
     30  C         28.4010   55.8200   32.8840 C.2    55  GLY55       0.2638
     31  O         28.6300   55.4790   34.0470 O.2    55  GLY55      -0.2714
     32  N         29.3470   56.0480   31.9810 N.am   56  MET56      -0.1976
     33  CA        30.7320   55.7040   32.2440 C.3    56  MET56       0.1605
     34  C         31.5960   56.8850   32.6210 C.2    56  MET56       0.2287
     35  O         32.8170   56.7530   32.7320 O.2    56  MET56      -0.2864
     36  CB        31.3220   54.9950   31.0450 C.3    56  MET56       0.0413
     37  CG        30.9430   53.5490   31.0130 C.3    56  MET56       0.0598
     38  SD        32.2970   52.5720   30.3610 S.3    56  MET56      -0.1393
     39  CE        33.6230   52.9970   31.4910 C.3    56  MET56       0.0692
     40  N         31.4590   60.0010   30.9530 N.3    58  ARG58      -0.1231
     41  CA        31.6350   60.9450   29.8450 C.3    58  ARG58       0.1694
     42  C         31.5900   62.4040   30.2970 C.2    58  ARG58       0.2591
     43  O         32.5010   63.1490   30.0040 O.2    58  ARG58      -0.2718
     44  CB        30.6130   60.7000   28.7350 C.3    58  ARG58       0.0321
     45  CG        30.8900   61.4740   27.4550 C.3    58  ARG58       0.0489
     46  CD        29.8720   61.1400   26.3700 C.3    58  ARG58       0.2205
     47  NE        28.5500   61.6510   26.7080 N.pl3  58  ARG58      -0.0865
     48  CZ        28.0790   62.8200   26.3010 C.cat  58  ARG58       0.5346
     49  NH1       28.8120   63.6040   25.5200 N.pl3  58  ARG58       0.1354
     50  NH2       26.8720   63.1990   26.6780 N.pl3  58  ARG58       0.1354
     51  N         30.5420   62.8050   31.0080 N.am   59  LEU59      -0.1980
     52  CA        30.4780   64.1300   31.6060 C.3    59  LEU59       0.1596
     53  C         31.0420   64.1500   33.0350 C.2    59  LEU59       0.2287
     54  O         31.5540   65.1790   33.4750 O.2    59  LEU59      -0.2864
     55  CB        29.0380   64.6540   31.6350 C.3    59  LEU59       0.0297
     56  CG        28.0790   64.5230   30.4500 C.3    59  LEU59       0.0022
     57  CD1       26.6800   64.9200   30.8660 C.3    59  LEU59       0.0001
     58  CD2       28.5110   65.3350   29.2400 C.3    59  LEU59       0.0001
     59  N         25.0210   58.4920   39.6870 N.3    73  LEU73      -0.1231
     60  CA        24.0300   57.4040   39.8640 C.3    73  LEU73       0.1693
     61  C         23.7880   56.6230   38.5740 C.2    73  LEU73       0.2592
     62  O         23.4480   57.2090   37.5710 O.2    73  LEU73      -0.2718
     63  CB        22.6930   57.9630   40.4120 C.3    73  LEU73       0.0284
     64  CG        21.4400   57.0600   40.5000 C.3    73  LEU73       0.0019
     65  CD1       20.4770   57.4040   41.6350 C.3    73  LEU73       0.0001
     66  CD2       20.7080   57.0650   39.1940 C.3    73  LEU73       0.0001
     67  N         23.9160   55.3040   38.6130 N.am   74  GLU74      -0.1966
     68  CA        23.8370   54.4990   37.3870 C.3    74  GLU74       0.1733
     69  C         23.0440   53.2300   37.6450 C.2    74  GLU74       0.2616
     70  O         23.0580   52.7270   38.7490 O.2    74  GLU74      -0.2715
     71  CB        25.2520   54.2010   36.8660 C.3    74  GLU74       0.0429
     72  CG        25.3710   53.2040   35.7270 C.3    74  GLU74       0.1163
     73  CD        24.4690   53.5070   34.5220 C.2    74  GLU74       0.3649
     74  OE1       24.5260   54.6370   33.9700 O.co2  74  GLU74      -0.2457
     75  OE2       23.7110   52.5860   34.1170 O.co2  74  GLU74      -0.2457
     76  N         22.3250   52.7240   36.6530 N.am   75  LEU75      -0.1963
     77  CA        21.4790   51.5660   36.8980 C.3    75  LEU75       0.1728
     78  C         22.1940   50.2700   36.5930 C.2    75  LEU75       0.2616
     79  O         21.9770   49.2760   37.2700 O.2    75  LEU75      -0.2715
     80  CB        20.1900   51.6420   36.0830 C.3    75  LEU75       0.0311
     81  CG        19.2310   50.4420   36.0710 C.3    75  LEU75       0.0022
     82  CD1       18.3860   50.3260   37.3180 C.3    75  LEU75       0.0001
     83  CD2       18.3520   50.5510   34.8670 C.3    75  LEU75       0.0001
     84  N         23.0260   50.2900   35.5560 N.am   76  SER76      -0.1950
     85  CA        23.7100   49.1030   35.0750 C.3    76  SER76       0.1924
     86  C         24.8560   48.7640   35.9870 C.2    76  SER76       0.2314
     87  O         25.7970   49.5460   36.0780 O.2    76  SER76      -0.2863
     88  CB        24.2760   49.3610   33.6750 C.3    76  SER76       0.2116
     89  OG        25.1240   48.2890   33.2460 O.3    76  SER76      -0.2180
     90  N         28.1350   48.7190   33.7770 N.3    79  VAL79      -0.1245
     91  CA        28.6400   50.0930   33.5560 C.3    79  VAL79       0.1561
     92  C         29.2070   50.6620   34.8570 C.2    79  VAL79       0.2260
     93  O         30.2920   51.2120   34.8850 O.2    79  VAL79      -0.2867
     94  CB        27.5460   51.0420   32.9940 C.3    79  VAL79       0.0252
     95  CG1       27.9900   52.5000   33.0780 C.3    79  VAL79       0.0019
     96  CG2       27.1700   50.6500   31.5390 C.3    79  VAL79       0.0019
     97  N         21.1250   52.7540   41.3160 N.3   103  GLY103     -0.1210
     98  CA        19.8450   53.4460   41.4070 C.3   103  GLY103      0.1956
     99  C         19.0700   53.5050   40.1110 C.2   103  GLY103      0.2612
    100  O         19.6450   53.4570   39.0180 O.2   103  GLY103     -0.2717
    101  N         17.7510   53.5910   40.2510 N.am  104  ASP104     -0.1959
    102  CA        16.8470   53.8410   39.1300 C.3   104  ASP104      0.1840
    103  C         16.3880   55.3210   39.0860 C.2   104  ASP104      0.2622
    104  O         15.5680   55.7490   39.8990 O.2   104  ASP104     -0.2715
    105  CB        15.6490   52.9060   39.2230 C.3   104  ASP104      0.1450
    106  CG        14.7110   53.0530   38.0640 C.2   104  ASP104      0.3671
    107  OD1       14.6310   54.1740   37.4820 O.co2 104  ASP104     -0.2456
    108  OD2       14.0360   52.0450   37.7410 O.co2 104  ASP104     -0.2456
    109  N         16.9090   56.0910   38.1300 N.am  105  MET105     -0.1963
    110  CA        16.6230   57.5240   38.0470 C.3   105  MET105      0.1736
    111  C         15.1140   57.8280   37.9790 C.2   105  MET105      0.2617
    112  O         14.6980   58.9730   38.2570 O.2   105  MET105     -0.2715
    113  CB        17.3780   58.1790   36.8810 C.3   105  MET105      0.0427
    114  CG        17.1250   57.5380   35.5000 C.3   105  MET105      0.0599
    115  SD        17.8020   58.5080   34.1220 S.3   105  MET105     -0.1393
    116  CE        17.9260   57.3190   32.7820 C.3   105  MET105      0.0692
    117  N         14.2980   56.8230   37.6290 N.am  106  SER106     -0.1950
    118  CA        12.8610   57.0280   37.6550 C.3   106  SER106      0.1924
    119  C         12.2450   56.9010   39.0860 C.2   106  SER106      0.2314
    120  O         11.1160   57.3700   39.3650 O.2   106  SER106     -0.2863
    121  CB        12.1590   56.1360   36.6310 C.3   106  SER106      0.2116
    122  OG        12.2510   54.7740   36.9480 O.3   106  SER106     -0.2180
    123  N         21.8840   64.0470   31.2080 N.3   120  SER120     -0.1217
    124  CA        22.2770   64.2750   29.8120 C.3   120  SER120      0.1889
    125  C         21.1820   63.7500   28.8890 C.2   120  SER120      0.2288
    126  O         20.4260   62.8410   29.2930 O.2   120  SER120     -0.2866
    127  CB        23.6430   63.6390   29.4990 C.3   120  SER120      0.2089
    128  OG        23.5000   62.3390   28.9420 O.3   120  SER120     -0.2183
    129  N         21.1550   61.8930   26.3350 N.3   122  GLY122     -0.1210
    130  CA        21.2770   60.4430   26.2220 C.3   122  GLY122      0.1956
    131  C         20.3800   59.7380   27.2250 C.2   122  GLY122      0.2612
    132  O         19.5530   58.9170   26.8480 O.2   122  GLY122     -0.2717
    133  N         20.5270   60.0980   28.4960 N.am  123  SER123     -0.1952
    134  CA        19.8690   59.4390   29.5980 C.3   123  SER123      0.1924
    135  C         18.3640   59.6650   29.6780 C.2   123  SER123      0.2314
    136  O         17.6110   58.6870   29.7270 O.2   123  SER123     -0.2863
    137  CB        20.5170   59.8770   30.9010 C.3   123  SER123      0.2116
    138  OG        21.9180   59.7780   30.7990 O.3   123  SER123     -0.2180
    139  N         16.1020   57.5260   27.6570 N.3   126  GLU126     -0.1231
    140  CA        15.9170   56.1160   27.8890 C.3   126  GLU126      0.1699
    141  C         14.5580   55.8260   28.5270 C.2   126  GLU126      0.2592
    142  O         14.0690   54.6970   28.4600 O.2   126  GLU126     -0.2718
    143  CB        17.0470   55.5730   28.7160 C.3   126  GLU126      0.0402
    144  CG        18.3600   55.7940   28.0370 C.3   126  GLU126      0.1161
    145  CD        19.1220   54.5000   27.8330 C.2   126  GLU126      0.3649
    146  OE1       19.0490   53.6000   28.6920 O.co2 126  GLU126     -0.2457
    147  OE2       19.8110   54.3700   26.8000 O.co2 126  GLU126     -0.2457
    148  N         13.9380   56.8510   29.1100 N.am  127  LEU127     -0.1980
    149  CA        12.7150   56.6950   29.8920 C.3   127  LEU127      0.1596
    150  C         11.4580   56.9450   29.0640 C.2   127  LEU127      0.2287
    151  O         11.4200   57.8750   28.2690 O.2   127  LEU127     -0.2864
    152  CB        12.7650   57.6570   31.1000 C.3   127  LEU127      0.0297
    153  CG        13.9280   57.5180   32.1130 C.3   127  LEU127      0.0022
    154  CD1       13.7720   58.4770   33.2900 C.3   127  LEU127      0.0001
    155  CD2       14.0800   56.0890   32.6190 C.3   127  LEU127      0.0001
@<TRIPOS>BOND
     1    49    48    1
     2   130   129    1
     3   130   131    1
     4    48    50    1
     5    48    47    2
     6    46    47    1
     7    46    45    1
     8   147   145   ar
     9   132   131    2
    10   131   133   am
    11    45    44    1
    12   139   140    1
    13   145   144    1
    14   145   146   ar
    15   140   141    1
    16   140   143    1
    17   144   143    1
    18   151   150    2
    19   142   141    2
    20   133   134    1
    21   141   148   am
    22    44    41    1
    23   125   126    2
    24   125   124    1
    25   128   127    1
    26   150   149    1
    27   148   149    1
    28    58    56    1
    29   127   124    1
    30   134   135    1
    31   134   137    1
    32   135   136    2
    33   124   123    1
    34    41    42    1
    35    41    40    1
    36   149   152    1
    37    43    42    2
    38    42    51   am
    39    38    37    1
    40    38    39    1
    41    56    57    1
    42    56    55    1
    43   138   137    1
    44    51    52    1
    45    37    36    1
    46    36    33    1
    47   152   153    1
    48    96    94    1
    49    52    55    1
    50    52    53    1
    51    32    33    1
    52    32    30   am
    53   153   155    1
    54   153   154    1
    55    33    34    1
    56    29    30    1
    57    29    28    1
    58    34    35    2
    59   116   115    1
    60    30    31    2
    61    94    95    1
    62    94    91    1
    63    21    20    2
    64    53    54    2
    65    89    88    1
    66    26    25    2
    67    28    25   am
    68    91    90    1
    69    91    92    1
    70    88    85    1
    71    25    24    1
    72    22    19    1
    73     9     7   ar
    74    74    73   ar
    75    75    73   ar
    76   115   114    1
    77    20    19    1
    78    20    23   am
    79    73    72    1
    80    24    23    1
    81    24    27    1
    82    13    12    2
    83    19    18    1
    84    92    93    2
    85    83    81    1
    86     7     8   ar
    87     7     6    1
    88    85    84    1
    89    85    86    1
    90   114   113    1
    91    84    78   am
    92     6     5    1
    93    72    71    1
    94    12    18   am
    95    12    11    1
    96    86    87    2
    97    81    80    1
    98    81    82    1
    99    80    77    1
   100    78    77    1
   101    78    79    2
   102   121   122    1
   103   121   118    1
   104    76    77    1
   105    76    69   am
   106    71    68    1
   107   113   110    1
   108    14    11    1
   109    14    15    1
   110    11    10    1
   111    10     3   am
   112     5     2    1
   113    68    69    1
   114    68    67    1
   115   107   106   ar
   116    62    61    2
   117   117   118    1
   118   117   111   am
   119    69    70    2
   120   118   119    1
   121   108   106   ar
   122     3     2    1
   123     3     4    2
   124    16    15    1
   125     2     1    1
   126   111   110    1
   127   111   112    2
   128   110   109    1
   129   106   105    1
   130   109   103   am
   131    15    17    1
   132    61    67   am
   133    61    60    1
   134   100    99    2
   135   119   120    2
   136   103   102    1
   137   103   104    2
   138   102   105    1
   139   102   101    1
   140    66    64    1
   141    59    60    1
   142    60    63    1
   143    99   101   am
   144    99    98    1
   145    63    64    1
   146    64    65    1
   147    97    98    1
