@<TRIPOS>MOLECULE
tmp/3g2qB00.pdb
 166 157 0 0 0
SMALL
GASTEIGER

@<TRIPOS>ATOM
      1  N         17.2430  -10.3450  -18.5750 N.3    35  GLU35      -0.1231
      2  CA        16.6480   -9.0350  -18.3550 C.3    35  GLU35       0.1699
      3  C         16.2310   -8.4020  -19.6850 C.2    35  GLU35       0.2592
      4  O         17.0170   -8.3170  -20.6020 O.2    35  GLU35      -0.2718
      5  CB        17.6040   -8.1230  -17.5990 C.3    35  GLU35       0.0402
      6  CG        17.0320   -6.7080  -17.3080 C.3    35  GLU35       0.1161
      7  CD        18.1230   -5.7520  -16.8940 C.2    35  GLU35       0.3649
      8  OE1       19.2860   -6.2250  -16.8220 O.co2  35  GLU35      -0.2457
      9  OE2       17.8570   -4.5470  -16.6570 O.co2  35  GLU35      -0.2457
     10  N         14.9770   -7.9730  -19.7830 N.am   36  LEU36      -0.1966
     11  CA        14.4290   -7.4910  -21.0580 C.3    36  LEU36       0.1728
     12  C         14.5140   -5.9700  -21.0990 C.2    36  LEU36       0.2616
     13  O         14.3310   -5.3210  -20.0620 O.2    36  LEU36      -0.2715
     14  CB        12.9900   -7.9750  -21.2340 C.3    36  LEU36       0.0311
     15  CG        12.8140   -9.4940  -21.2690 C.3    36  LEU36       0.0022
     16  CD1       11.3450   -9.8300  -21.3210 C.3    36  LEU36       0.0001
     17  CD2       13.5480  -10.1360  -22.4500 C.3    36  LEU36       0.0001
     18  N         14.8520   -5.4210  -22.2680 N.am   37  ALA37      -0.1963
     19  CA        15.0690   -3.9720  -22.4420 C.3    37  ALA37       0.1728
     20  C         16.0010   -3.4400  -21.3600 C.2    37  ALA37       0.2616
     21  O         15.6030   -2.6260  -20.5170 O.2    37  ALA37      -0.2715
     22  CB        13.7350   -3.2340  -22.4020 C.3    37  ALA37       0.0334
     23  N         17.2410   -3.9170  -21.3590 N.am   38  ALA38      -0.1963
     24  CA        18.1600   -3.5990  -20.2680 C.3    38  ALA38       0.1728
     25  C         18.6600   -2.1560  -20.2720 C.2    38  ALA38       0.2617
     26  O         19.1960   -1.7010  -19.2660 O.2    38  ALA38      -0.2715
     27  CB        19.3130   -4.5830  -20.2430 C.3    38  ALA38       0.0334
     28  N         18.4710   -1.4180  -21.3700 N.am   39  GLY39      -0.1940
     29  CA        18.9070   -0.0220  -21.3870 C.3    39  GLY39       0.2014
     30  C         20.4300    0.0230  -21.3610 C.2    39  GLY39       0.2638
     31  O         21.0790   -0.8280  -21.9580 O.2    39  GLY39      -0.2714
     32  N         21.0130    0.9810  -20.6490 N.am   40  MET40      -0.1976
     33  CA        22.4570    0.8880  -20.4160 C.3    40  MET40       0.1605
     34  C         22.8940    0.2610  -19.0870 C.2    40  MET40       0.2287
     35  O         24.0470    0.4490  -18.6560 O.2    40  MET40      -0.2864
     36  CB        23.1550    2.2080  -20.6740 C.3    40  MET40       0.0413
     37  CG        22.3330    3.4080  -20.4160 C.3    40  MET40       0.0598
     38  SD        23.4490    4.7370  -20.8100 S.3    40  MET40      -0.1393
     39  CE        22.4760    5.5610  -22.0740 C.3    40  MET40       0.0692
     40  N         21.0960    0.1730  -15.9560 N.3    42  ARG42      -0.1231
     41  CA        20.6590    0.8040  -14.7180 C.3    42  ARG42       0.1694
     42  C         20.3240   -0.2700  -13.6890 C.2    42  ARG42       0.2591
     43  O         20.6810   -0.1170  -12.5300 O.2    42  ARG42      -0.2718
     44  CB        19.4660    1.7400  -14.9580 C.3    42  ARG42       0.0321
     45  CG        19.1260    2.6500  -13.7630 C.3    42  ARG42       0.0489
     46  CD        17.8270    3.4530  -14.0100 C.3    42  ARG42       0.2205
     47  NE        16.6400    2.6000  -14.0370 N.pl3  42  ARG42      -0.0865
     48  CZ        15.9350    2.2760  -12.9580 C.cat  42  ARG42       0.5346
     49  NH1       16.2900    2.7460  -11.7680 N.pl3  42  ARG42       0.1354
     50  NH2       14.8760    1.4820  -13.0680 N.pl3  42  ARG42       0.1354
     51  N         19.6850   -1.3610  -14.1230 N.am   43  LEU43      -0.1980
     52  CA        19.4310   -2.5130  -13.2540 C.3    43  LEU43       0.1596
     53  C         20.4450   -3.6480  -13.4140 C.2    43  LEU43       0.2287
     54  O         20.6830   -4.4120  -12.4660 O.2    43  LEU43      -0.2864
     55  CB        18.0400   -3.0980  -13.4880 C.3    43  LEU43       0.0297
     56  CG        16.7560   -2.2880  -13.2610 C.3    43  LEU43       0.0022
     57  CD1       15.5310   -3.2190  -13.3890 C.3    43  LEU43       0.0001
     58  CD2       16.7490   -1.5590  -11.9280 C.3    43  LEU43       0.0001
     59  N         19.0160   -8.0060  -22.9180 N.3    57  LEU57      -0.1231
     60  CA        18.4230   -7.8100  -24.2350 C.3    57  LEU57       0.1693
     61  C         17.9900   -6.3490  -24.3910 C.2    57  LEU57       0.2592
     62  O         17.3140   -5.8030  -23.5270 O.2    57  LEU57      -0.2718
     63  CB        17.2020   -8.7250  -24.3870 C.3    57  LEU57       0.0284
     64  CG        16.3660   -8.6440  -25.6710 C.3    57  LEU57       0.0019
     65  CD1       15.9600  -10.0330  -26.1270 C.3    57  LEU57       0.0001
     66  CD2       15.1350   -7.8120  -25.4570 C.3    57  LEU57       0.0001
     67  N         18.3700   -5.7230  -25.4940 N.am   58  GLU58      -0.1966
     68  CA        18.0800   -4.2960  -25.7010 C.3    58  GLU58       0.1733
     69  C         17.9070   -4.1050  -27.1750 C.2    58  GLU58       0.2616
     70  O         18.6550   -4.6670  -27.9580 O.2    58  GLU58      -0.2715
     71  CB        19.2280   -3.4130  -25.1440 C.3    58  GLU58       0.0429
     72  CG        19.2290   -1.9110  -25.5580 C.3    58  GLU58       0.1163
     73  CD        17.9280   -1.1350  -25.2440 C.2    58  GLU58       0.3649
     74  OE1       17.4410   -1.1850  -24.0920 O.co2  58  GLU58      -0.2457
     75  OE2       17.4010   -0.4250  -26.1530 O.co2  58  GLU58      -0.2457
     76  N         16.9450   -3.2870  -27.5620 N.am   59  LEU59      -0.1963
     77  CA        16.6620   -3.0610  -28.9780 C.3    59  LEU59       0.1728
     78  C         17.5810   -2.0350  -29.6490 C.2    59  LEU59       0.2616
     79  O         17.9490   -2.1820  -30.8030 O.2    59  LEU59      -0.2715
     80  CB        15.1700   -2.6860  -29.1610 C.3    59  LEU59       0.0311
     81  CG        14.6270   -2.3370  -30.5660 C.3    59  LEU59       0.0022
     82  CD1       14.5930   -3.5680  -31.4540 C.3    59  LEU59       0.0001
     83  CD2       13.2280   -1.7090  -30.4990 C.3    59  LEU59       0.0001
     84  N         17.9180   -0.9650  -28.9450 N.am   60  SER60      -0.1950
     85  CA        18.6610    0.1340  -29.5800 C.3    60  SER60       0.1924
     86  C         20.1740   -0.1260  -29.7350 C.2    60  SER60       0.2314
     87  O         20.8560   -0.4620  -28.7730 O.2    60  SER60      -0.2863
     88  CB        18.4260    1.4320  -28.8120 C.3    60  SER60       0.2116
     89  OG        19.3000    2.4310  -29.2950 O.3    60  SER60      -0.2180
     90  N         21.9860    2.5330  -27.6780 N.3    63  VAL63      -0.1245
     91  CA        21.9520    2.2710  -26.2400 C.3    63  VAL63       0.1561
     92  C         22.8680    1.0930  -25.9150 C.2    63  VAL63       0.2260
     93  O         23.5650    1.1110  -24.9120 O.2    63  VAL63      -0.2867
     94  CB        20.4970    2.1050  -25.6940 C.3    63  VAL63       0.0252
     95  CG1       20.4830    1.7860  -24.1920 C.3    63  VAL63       0.0019
     96  CG2       19.6720    3.4060  -25.9180 C.3    63  VAL63       0.0019
     97  N         17.8310   -7.2220  -29.4600 N.3    87  GLY87      -0.1210
     98  CA        16.5330   -7.8400  -29.7110 C.3    87  GLY87       0.1956
     99  C         15.3470   -7.0190  -29.2420 C.2    87  GLY87       0.2612
    100  O         15.5000   -5.9760  -28.6060 O.2    87  GLY87      -0.2717
    101  N         14.1650   -7.5250  -29.5740 N.am   88  ASP88      -0.1959
    102  CA        12.9060   -6.8370  -29.3670 C.3    88  ASP88       0.1840
    103  C         12.1850   -7.6630  -28.3200 C.2    88  ASP88       0.2622
    104  O         11.8430   -8.8220  -28.5870 O.2    88  ASP88      -0.2715
    105  CB        12.1260   -6.8190  -30.7030 C.3    88  ASP88       0.1450
    106  CG        10.8570   -5.9700  -30.6450 C.2    88  ASP88       0.3671
    107  OD1       10.2850   -5.8130  -29.5640 O.co2  88  ASP88      -0.2456
    108  OD2       10.4200   -5.4690  -31.6940 O.co2  88  ASP88      -0.2456
    109  N         12.0050   -7.0930  -27.1230 N.am   89  MET89      -0.1963
    110  CA        11.3080   -7.7740  -25.9980 C.3    89  MET89       0.1736
    111  C          9.8890   -8.2590  -26.3500 C.2    89  MET89       0.2617
    112  O          9.3860   -9.1810  -25.7210 O.2    89  MET89      -0.2715
    113  CB        11.2420   -6.8900  -24.7390 C.3    89  MET89       0.0427
    114  CG        10.6110   -5.5180  -24.9540 C.3    89  MET89       0.0599
    115  SD        10.3210   -4.5530  -23.4530 S.3    89  MET89      -0.1393
    116  CE        10.1800   -2.9310  -24.1830 C.3    89  MET89       0.0692
    117  N          9.2620   -7.6330  -27.3470 N.am   90  SER90      -0.1950
    118  CA         7.9050   -7.9940  -27.7640 C.3    90  SER90       0.1924
    119  C          7.9060   -9.1480  -28.7860 C.2    90  SER90       0.2314
    120  O          6.8570   -9.6600  -29.1400 O.2    90  SER90      -0.2863
    121  CB         7.1440   -6.7630  -28.3010 C.3    90  SER90       0.2116
    122  OG         7.5430   -6.4370  -29.6290 O.3    90  SER90      -0.2180
    123  N         11.7010   -4.2820  -16.0360 N.3   104  SER104     -0.1217
    124  CA        11.2470   -3.1170  -15.2570 C.3   104  SER104      0.1889
    125  C         10.0530   -2.3120  -15.8350 C.2   104  SER104      0.2288
    126  O          9.7230   -2.4010  -17.0330 O.2   104  SER104     -0.2866
    127  CB        12.3660   -2.1430  -15.0120 C.3   104  SER104      0.2089
    128  OG        12.3440   -1.2220  -16.0890 O.3   104  SER104     -0.2183
    129  N          9.6830    0.8340  -16.6320 N.3   106  GLY106     -0.1210
    130  CA         9.9770    1.7550  -17.7360 C.3   106  GLY106      0.1956
    131  C          9.9120    1.0100  -19.0520 C.2   106  GLY106      0.2612
    132  O          9.5320    1.5650  -20.0990 O.2   106  GLY106     -0.2717
    133  N         10.2510   -0.2710  -18.9870 N.am  107  SER107     -0.1952
    134  CA        10.2420   -1.0990  -20.1490 C.3   107  SER107      0.1924
    135  C          8.8370   -1.5800  -20.5190 C.2   107  SER107      0.2314
    136  O          8.4070   -1.3520  -21.6380 O.2   107  SER107     -0.2863
    137  CB        11.2010   -2.2510  -19.9600 C.3   107  SER107      0.2116
    138  OG        12.4070   -1.7380  -19.4930 O.3   107  SER107     -0.2180
    139  N          6.5560    0.7700  -22.1880 N.3   110  GLU110     -0.1231
    140  CA         7.0160    1.1000  -23.5330 C.3   110  GLU110      0.1699
    141  C          6.1390    0.4180  -24.6010 C.2   110  GLU110      0.2592
    142  O          6.1190    0.8300  -25.7730 O.2   110  GLU110     -0.2718
    143  CB         8.4650    0.6250  -23.6720 C.3   110  GLU110      0.0402
    144  CG         9.3600    1.4920  -24.5330 C.3   110  GLU110      0.1161
    145  CD         9.9710    2.6860  -23.8070 C.2   110  GLU110      0.3649
    146  OE1       10.8780    3.3330  -24.3960 O.co2 110  GLU110     -0.2457
    147  OE2        9.5440    3.0050  -22.6920 O.co2 110  GLU110     -0.2457
    148  N          5.4250   -0.6320  -24.2040 N.am  111  LEU111     -0.1980
    149  CA         4.7090   -1.4670  -25.1620 C.3   111  LEU111      0.1596
    150  C          3.2110   -1.2240  -25.1120 C.2   111  LEU111      0.2287
    151  O          2.6440   -1.1190  -24.0140 O.2   111  LEU111     -0.2864
    152  CB         5.0020   -2.9400  -24.8640 C.3   111  LEU111      0.0297
    153  CG         6.4760   -3.3860  -24.8630 C.3   111  LEU111      0.0022
    154  CD1        6.5720   -4.8670  -24.4690 C.3   111  LEU111      0.0001
    155  CD2        7.1340   -3.1250  -26.2640 C.3   111  LEU111      0.0001
    156  N          3.7130    9.9360  -21.4550 N.3   187  ARG187     -0.1245
    157  CA         3.9770    8.4820  -21.5010 C.3   187  ARG187      0.1563
    158  C          2.8730    7.6070  -20.8550 C.2   187  ARG187      0.2260
    159  O          2.1260    8.0480  -19.9760 O.2   187  ARG187     -0.2867
    160  CB         5.3520    8.1450  -20.9410 C.3   187  ARG187      0.0307
    161  CG         5.5400    8.5130  -19.4790 C.3   187  ARG187      0.0489
    162  CD         6.8380    7.9730  -18.9360 C.3   187  ARG187      0.2205
    163  NE         7.9620    8.3510  -19.7840 N.pl3 187  ARG187     -0.0865
    164  CZ         9.2410    8.2340  -19.4370 C.cat 187  ARG187      0.5346
    165  NH1        9.5760    7.7440  -18.2420 N.pl3 187  ARG187      0.1354
    166  NH2       10.1860    8.6050  -20.2890 N.pl3 187  ARG187      0.1354
@<TRIPOS>BOND
     1   108   106   ar
     2    82    81    1
     3    79    78    2
     4   105   106    1
     5   105   102    1
     6   106   107   ar
     7    81    83    1
     8    81    80    1
     9    86    85    1
    10    86    87    2
    11    98    97    1
    12    98    99    1
    13    78    77    1
    14    78    84   am
    15   122   121    1
    16    85    84    1
    17    85    88    1
    18   101   102    1
    19   101    99   am
    20   102   103    1
    21    89    88    1
    22    99   100    2
    23    80    77    1
    24   120   119    2
    25    77    76    1
    26   119   118    1
    27   104   103    2
    28   103   109   am
    29   121   118    1
    30    70    69    2
    31   118   117    1
    32    90    91    1
    33    76    69   am
    34   117   111   am
    35    69    68    1
    36   109   110    1
    37   111   110    1
    38   111   112    2
    39   155   153    1
    40    91    92    1
    41    91    94    1
    42    75    73   ar
    43    65    64    1
    44   110   113    1
    45    96    94    1
    46    92    93    2
    47   142   141    2
    48    68    67    1
    49    68    71    1
    50    94    95    1
    51    64    66    1
    52    64    63    1
    53    72    73    1
    54    72    71    1
    55    67    61   am
    56    73    74   ar
    57   149   150    1
    58   149   152    1
    59   149   148    1
    60   150   151    2
    61   114   113    1
    62   114   115    1
    63   152   153    1
    64   153   154    1
    65   141   148   am
    66   141   140    1
    67   144   145    1
    68   144   143    1
    69   146   145   ar
    70    61    60    1
    71    61    62    2
    72    63    60    1
    73    60    59    1
    74   116   115    1
    75   145   147   ar
    76   143   140    1
    77   140   139    1
    78    17    15    1
    79    19    22    1
    80    19    18    1
    81    19    20    1
    82    18    12   am
    83    39    38    1
    84    31    30    2
    85   136   135    2
    86   157   156    1
    87   157   160    1
    88   157   158    1
    89    29    28    1
    90    29    30    1
    91    28    25   am
    92    30    32   am
    93    20    23   am
    94    20    21    2
    95    23    24    1
    96    16    15    1
    97    15    14    1
    98    14    11    1
    99    12    11    1
   100    12    13    2
   101    11    10    1
   102   160   161    1
   103   158   159    2
   104    38    37    1
   105    36    33    1
   106    36    37    1
   107    32    33    1
   108     4     3    2
   109   135   134    1
   110    33    34    1
   111   166   164    1
   112    25    24    1
   113    25    26    2
   114    24    27    1
   115   134   137    1
   116   134   133    1
   117   132   131    2
   118   137   138    1
   119   163   164    2
   120   163   162    1
   121    10     3   am
   122     3     2    1
   123   161   162    1
   124   164   165    1
   125    34    35    2
   126   131   133   am
   127   131   130    1
   128     1     2    1
   129     2     5    1
   130   130   129    1
   131     5     6    1
   132     6     7    1
   133   126   125    2
   134     7     8   ar
   135     7     9   ar
   136   128   127    1
   137   123   124    1
   138    40    41    1
   139   125   124    1
   140   124   127    1
   141    44    41    1
   142    44    45    1
   143    41    42    1
   144    51    42   am
   145    51    52    1
   146    47    46    1
   147    47    48    2
   148    46    45    1
   149    42    43    2
   150    55    56    1
   151    55    52    1
   152    53    52    1
   153    53    54    2
   154    57    56    1
   155    56    58    1
   156    50    48    1
   157    48    49    1
