@<TRIPOS>MOLECULE
tmp/3g2sB00.pdb
 105 99 0 0 0
SMALL
GASTEIGER

@<TRIPOS>ATOM
      1  N         17.7120    1.2760    4.6280 N.3    36  PHE36      -0.1241
      2  CA        18.3040    2.4460    3.9820 C.3    36  PHE36       0.1605
      3  C         18.2740    2.2160    2.4830 C.2    36  PHE36       0.2264
      4  O         18.3400    3.1650    1.6950 O.2    36  PHE36      -0.2867
      5  CB        19.7110    2.7430    4.5010 C.3    36  PHE36       0.0534
      6  CG        19.7280    3.7810    5.5820 C.ar   36  PHE36      -0.0203
      7  CD1       20.2140    5.0500    5.3170 C.ar   36  PHE36      -0.0042
      8  CD2       18.9590    3.5960    6.7220 C.ar   36  PHE36      -0.0042
      9  CE1       20.0750    6.0670    6.2430 C.ar   36  PHE36      -0.0003
     10  CE2       18.8180    4.6050    7.6550 C.ar   36  PHE36      -0.0003
     11  CZ        19.3770    5.8420    7.4150 C.ar   36  PHE36      -0.0000
     12  N         15.4410    3.7930   -2.6440 N.3    40  PRO40      -0.2116
     13  CA        15.9570    3.6410   -4.0130 C.3    40  PRO40       0.1372
     14  C         15.4090    2.4110   -4.7540 C.2    40  PRO40       0.2244
     15  O         15.1740    2.4580   -5.9600 O.2    40  PRO40      -0.2868
     16  CB        17.4690    3.5020   -3.8150 C.3    40  PRO40       0.0268
     17  CG        17.7500    3.9990   -2.4280 C.3    40  PRO40       0.0207
     18  CD        16.5090    3.8450   -1.6260 C.3    40  PRO40       0.0892
     19  N         14.7570   10.5040   -3.2280 N.3    79  GLU79      -0.1245
     20  CA        14.9930    9.5530   -4.3090 C.3    79  GLU79       0.1567
     21  C         14.1060    9.8390   -5.5210 C.2    79  GLU79       0.2260
     22  O         14.5330    9.6630   -6.6650 O.2    79  GLU79      -0.2867
     23  CB        14.7700    8.1120   -3.8310 C.3    79  GLU79       0.0388
     24  CG        15.9320    7.5370   -3.0270 C.3    79  GLU79       0.1160
     25  CD        17.2690    7.6290   -3.7600 C.2    79  GLU79       0.3649
     26  OE1       17.3670    7.1670   -4.9180 O.co2  79  GLU79      -0.2457
     27  OE2       18.2180    8.1880   -3.1810 O.co2  79  GLU79      -0.2457
     28  N         15.5340   12.7550   -7.9370 N.3    82  LYS82      -0.1231
     29  CA        16.7460   12.5610   -8.7310 C.3    82  LYS82       0.1693
     30  C         16.4110   12.2230  -10.1900 C.2    82  LYS82       0.2592
     31  O         15.3760   11.5960  -10.4550 O.2    82  LYS82      -0.2718
     32  CB        17.5740   11.4290   -8.1300 C.3    82  LYS82       0.0285
     33  CG        18.1840   11.7690   -6.7680 C.3    82  LYS82       0.0035
     34  CD        18.8210   10.5320   -6.1510 C.3    82  LYS82       0.0206
     35  CE        19.1520   10.7790   -4.6950 C.3    82  LYS82       0.1093
     36  NZ        19.8610    9.6390   -4.0350 N.3    82  LYS82      -0.1314
     37  N         17.2670   12.6390  -11.1220 N.am   83  PHE83      -0.1962
     38  CA        17.0100   12.3860  -12.5460 C.3    83  PHE83       0.1771
     39  C         16.9930   10.9010  -12.8910 C.2    83  PHE83       0.2619
     40  O         16.2650   10.4660  -13.7870 O.2    83  PHE83      -0.2715
     41  CB        17.9710   13.1620  -13.4520 C.3    83  PHE83       0.0574
     42  CG        17.8080   14.6460  -13.3530 C.ar   83  PHE83      -0.0200
     43  CD1       16.5550   15.2310  -13.5180 C.ar   83  PHE83      -0.0042
     44  CD2       18.8840   15.4490  -13.0070 C.ar   83  PHE83      -0.0042
     45  CE1       16.3860   16.6040  -13.3900 C.ar   83  PHE83      -0.0003
     46  CE2       18.7190   16.8290  -12.8750 C.ar   83  PHE83      -0.0003
     47  CZ        17.4530   17.3820  -12.9820 C.ar   83  PHE83      -0.0000
     48  N         17.7300   10.1070  -12.1190 N.am   84  ARG84      -0.1977
     49  CA        17.6350    8.6530  -12.2140 C.3    84  ARG84       0.1597
     50  C         16.1800    8.1510  -12.2040 C.2    84  ARG84       0.2287
     51  O         15.8020    7.2540  -12.9790 O.2    84  ARG84      -0.2864
     52  CB        18.4280    8.0070  -11.0770 C.3    84  ARG84       0.0334
     53  CG        18.4990    6.5070  -11.1850 C.3    84  ARG84       0.0492
     54  CD        19.4590    5.9640  -10.1460 C.3    84  ARG84       0.2205
     55  NE        20.8300    6.2940  -10.5240 N.pl3  84  ARG84      -0.0865
     56  CZ        21.5610    7.2450   -9.9550 C.cat  84  ARG84       0.5346
     57  NH1       21.1250    7.8650   -8.8630 N.pl3  84  ARG84       0.1354
     58  NH2       22.7870    7.4790  -10.4010 N.pl3  84  ARG84       0.1354
     59  N         13.8320   10.9950  -15.0260 N.3    87  ASN87      -0.1240
     60  CA        14.0210   10.6850  -16.4500 C.3    87  ASN87       0.1653
     61  C         13.0440    9.5980  -16.9180 C.2    87  ASN87       0.2266
     62  O         12.5990    9.5950  -18.0700 O.2    87  ASN87      -0.2867
     63  CB        15.4720   10.2440  -16.7220 C.3    87  ASN87       0.1155
     64  CG        16.4580   11.4160  -16.7270 C.2    87  ASN87       0.2627
     65  OD1       16.0670   12.5860  -16.8170 O.2    87  ASN87      -0.2716
     66  ND2       17.7500   11.0970  -16.6810 N.am   87  ASN87      -0.0877
     67  N          9.8570   11.3390  -17.5710 N.3    90  ILE90      -0.1245
     68  CA        10.0150   12.1770  -18.7710 C.3    90  ILE90       0.1561
     69  C          9.8250   11.3390  -20.0460 C.2    90  ILE90       0.2260
     70  O          9.0980   11.7290  -20.9670 O.2    90  ILE90      -0.2867
     71  CB        11.3990   12.8950  -18.7690 C.3    90  ILE90       0.0252
     72  CG1       11.4410   13.9890  -17.6870 C.3    90  ILE90       0.0019
     73  CG2       11.7030   13.5090  -20.1380 C.3    90  ILE90       0.0019
     74  CD1       12.8230   14.5840  -17.4350 C.3    90  ILE90       0.0001
     75  N         15.3110   19.4020   -8.3710 N.3   126  LYS126     -0.1245
     76  CA        15.3880   18.7290   -9.6600 C.3   126  LYS126      0.1561
     77  C         13.9790   18.4300  -10.1750 C.2   126  LYS126      0.2260
     78  O         13.7630   18.2960  -11.3820 O.2   126  LYS126     -0.2867
     79  CB        16.2280   17.4480   -9.5530 C.3   126  LYS126      0.0271
     80  CG        17.7270   17.6870   -9.4030 C.3   126  LYS126      0.0035
     81  CD        18.4510   16.3570   -9.1500 C.3   126  LYS126      0.0206
     82  CE        19.9580   16.5680   -9.1900 C.3   126  LYS126      0.1093
     83  NZ        20.7390   15.4110   -8.6650 N.3   126  LYS126     -0.1314
     84  N         13.1440   21.4020  -11.8270 N.3   129  GLU129     -0.1231
     85  CA        13.9210   21.4910  -13.0670 C.3   129  GLU129      0.1699
     86  C         13.2710   20.6480  -14.1610 C.2   129  GLU129      0.2592
     87  O         13.0910   21.1160  -15.2750 O.2   129  GLU129     -0.2718
     88  CB        15.3600   21.0120  -12.8480 C.3   129  GLU129      0.0402
     89  CG        16.2210   21.9780  -12.0510 C.3   129  GLU129      0.1161
     90  CD        17.5820   21.3800  -11.6950 C.2   129  GLU129      0.3649
     91  OE1       17.9470   21.4040  -10.4990 O.co2 129  GLU129     -0.2457
     92  OE2       18.2230   20.7600  -12.5750 O.co2 129  GLU129     -0.2457
     93  N         12.8430   19.4350  -13.8200 N.am  130  ALA130     -0.1980
     94  CA        12.2270   18.5590  -14.8140 C.3   130  ALA130      0.1597
     95  C         10.8770   19.1190  -15.2780 C.2   130  ALA130      0.2287
     96  O         10.6020   19.1760  -16.4750 O.2   130  ALA130     -0.2864
     97  CB        12.0850   17.1240  -14.2660 C.3   130  ALA130      0.0319
     98  N         11.3450   22.0810  -17.6130 N.3   133  MET133     -0.1245
     99  CA        11.7710   21.6200  -18.9360 C.3   133  MET133      0.1570
    100  C         10.5620   21.1370  -19.7330 C.2   133  MET133      0.2261
    101  O         10.4140   21.4460  -20.9180 O.2   133  MET133     -0.2867
    102  CB        12.8400   20.5260  -18.8010 C.3   133  MET133      0.0387
    103  CG        13.2940   19.8720  -20.1040 C.3   133  MET133      0.0595
    104  SD        12.1430   18.5960  -20.6550 S.3   133  MET133     -0.1393
    105  CE        12.4720   17.3340  -19.4260 C.3   133  MET133      0.0692
@<TRIPOS>BOND
     1    70    69    2
     2   101   100    2
     3   104   103    1
     4   104   105    1
     5    73    71    1
     6   103   102    1
     7    69    68    1
     8   100    99    1
     9    99   102    1
    10    99    98    1
    11    68    71    1
    12    68    67    1
    13    71    72    1
    14    62    61    2
    15    72    74    1
    16    61    60    1
    17    65    64    2
    18    64    63    1
    19    64    66   am
    20    63    60    1
    21    96    95    2
    22    60    59    1
    23    95    94    1
    24    87    86    2
    25    94    97    1
    26    94    93    1
    27    86    93   am
    28    86    85    1
    29    40    39    2
    30    43    45   ar
    31    43    42   ar
    32    41    42    1
    33    41    38    1
    34    45    47   ar
    35    42    44   ar
    36    85    88    1
    37    85    84    1
    38    44    46   ar
    39    47    46   ar
    40    51    50    2
    41    39    38    1
    42    39    48   am
    43    88    89    1
    44    92    90   ar
    45    38    37    1
    46    49    50    1
    47    49    48    1
    48    49    52    1
    49    89    90    1
    50    90    91   ar
    51    78    77    2
    52    53    52    1
    53    53    54    1
    54    37    30   am
    55    55    54    1
    56    55    56    2
    57    31    30    2
    58    58    56    1
    59    30    29    1
    60    77    76    1
    61    56    57    1
    62    76    79    1
    63    76    75    1
    64    79    80    1
    65    80    81    1
    66    82    81    1
    67    82    83    1
    68    29    32    1
    69    29    28    1
    70    32    33    1
    71    33    34    1
    72    22    21    2
    73    34    35    1
    74    15    14    2
    75    21    20    1
    76    26    25   ar
    77    14    13    1
    78    35    36    1
    79    20    23    1
    80    20    19    1
    81    13    16    1
    82    13    12    1
    83    23    24    1
    84    16    17    1
    85    25    27   ar
    86    25    24    1
    87    12    18    1
    88    17    18    1
    89     4     3    2
    90     3     2    1
    91     2     5    1
    92     2     1    1
    93     5     6    1
    94     7     6   ar
    95     7     9   ar
    96     6     8   ar
    97     9    11   ar
    98     8    10   ar
    99    11    10   ar
