@<TRIPOS>MOLECULE
tmp/3g2sA00.pdb
 146 140 0 0 0
SMALL
GASTEIGER

@<TRIPOS>ATOM
      1  N         13.9960   -5.8730  -35.9730 N.3    86  LYS86      -0.1231
      2  CA        13.9440   -4.4110  -36.1450 C.3    86  LYS86       0.1693
      3  C         14.5730   -3.6740  -34.9580 C.2    86  LYS86       0.2592
      4  O         14.4600   -4.1170  -33.8040 O.2    86  LYS86      -0.2718
      5  CB        12.4810   -3.9340  -36.2930 C.3    86  LYS86       0.0285
      6  CG        11.8280   -4.2670  -37.6360 C.3    86  LYS86       0.0035
      7  CD        10.3470   -3.8950  -37.6130 C.3    86  LYS86       0.0206
      8  CE         9.5800   -4.5370  -38.7680 C.3    86  LYS86       0.1093
      9  NZ         8.1050   -4.2990  -38.6310 N.3    86  LYS86      -0.1314
     10  N         15.1270   -2.4910  -35.2150 N.am   87  PHE87      -0.1962
     11  CA        15.6660   -1.6800  -34.1200 C.3    87  PHE87       0.1771
     12  C         14.5480   -1.2450  -33.1760 C.2    87  PHE87       0.2619
     13  O         14.7820   -1.0290  -31.9880 O.2    87  PHE87      -0.2715
     14  CB        16.4360   -0.4590  -34.6640 C.3    87  PHE87       0.0574
     15  CG        17.6930   -0.8300  -35.4010 C.ar   87  PHE87      -0.0200
     16  CD1       18.6440   -1.6400  -34.7980 C.ar   87  PHE87      -0.0042
     17  CD2       17.9120   -0.3940  -36.6970 C.ar   87  PHE87      -0.0042
     18  CE1       19.8060   -2.0140  -35.4660 C.ar   87  PHE87      -0.0003
     19  CE2       19.0930   -0.7200  -37.3600 C.ar   87  PHE87      -0.0003
     20  CZ        20.0090   -1.5760  -36.7650 C.ar   87  PHE87      -0.0000
     21  N         13.3110   -1.1950  -33.6650 N.am   88  ARG88      -0.1977
     22  CA        12.1960   -0.8970  -32.7640 C.3    88  ARG88       0.1597
     23  C         12.2370   -1.8140  -31.5350 C.2    88  ARG88       0.2287
     24  O         11.9270   -1.4000  -30.4100 O.2    88  ARG88      -0.2864
     25  CB        10.8470   -1.0450  -33.4680 C.3    88  ARG88       0.0334
     26  CG         9.6820   -0.5120  -32.6560 C.3    88  ARG88       0.0492
     27  CD         8.4000   -0.4550  -33.4920 C.3    88  ARG88       0.2205
     28  NE         8.5500    0.2040  -34.7900 N.pl3  88  ARG88      -0.0865
     29  CZ         8.3660    1.5060  -34.9920 C.cat  88  ARG88       0.5346
     30  NH1        8.2530    2.3250  -33.9540 N.pl3  88  ARG88       0.1354
     31  NH2        8.4860    2.0120  -36.2110 N.pl3  88  ARG88       0.1354
     32  N         16.4910   -1.9050  -29.9770 N.3    91  ASN91      -0.1240
     33  CA        16.8610   -0.7540  -29.1520 C.3    91  ASN91       0.1653
     34  C         16.4990   -0.9600  -27.6860 C.2    91  ASN91       0.2266
     35  O         17.1580   -0.4460  -26.7790 O.2    91  ASN91      -0.2867
     36  CB        16.1510    0.4920  -29.6850 C.3    91  ASN91       0.1155
     37  CG        16.7870    1.0140  -30.9560 C.2    91  ASN91       0.2627
     38  OD1       17.8770    0.5690  -31.3500 O.2    91  ASN91      -0.2716
     39  ND2       16.1140    1.9810  -31.5970 N.am   91  ASN91      -0.0877
     40  N         19.2390   -3.0330  -26.2380 N.3    94  ILE94      -0.1231
     41  CA        20.3880   -2.1260  -26.0970 C.3    94  ILE94       0.1692
     42  C         20.2780   -1.2710  -24.8190 C.2    94  ILE94       0.2591
     43  O         21.2740   -1.0500  -24.1220 O.2    94  ILE94      -0.2718
     44  CB        20.5160   -1.2470  -27.3750 C.3    94  ILE94       0.0266
     45  CG1       20.8700   -2.1300  -28.5850 C.3    94  ILE94       0.0019
     46  CG2       21.5810   -0.1460  -27.1870 C.3    94  ILE94       0.0020
     47  CD1       20.6950   -1.4270  -29.9530 C.3    94  ILE94       0.0001
     48  N         19.1020   -0.6960  -24.5810 N.am   95  LYS95      -0.1980
     49  CA        18.8950    0.1640  -23.4110 C.3    95  LYS95       0.1596
     50  C         19.0950   -0.5890  -22.0860 C.2    95  LYS95       0.2287
     51  O         19.5880   -0.0250  -21.0930 O.2    95  LYS95      -0.2864
     52  CB        17.4900    0.7920  -23.4660 C.3    95  LYS95       0.0298
     53  CG        17.3390    1.9280  -24.4950 C.3    95  LYS95       0.0038
     54  CD        15.8600    2.1650  -24.7990 C.3    95  LYS95       0.0206
     55  CE        15.6810    3.1810  -25.9150 C.3    95  LYS95       0.1093
     56  NZ        14.2320    3.4570  -26.1560 N.3    95  LYS95      -0.1314
     57  N         23.2670   -1.0770  -21.8990 N.3    98  SER98      -0.1203
     58  CA        24.0780    0.1380  -22.0100 C.3    98  SER98       0.2005
     59  C         24.1100    0.9120  -20.6910 C.2    98  SER98       0.2461
     60  O         23.0580    1.2570  -20.1580 O.2    98  SER98      -0.2732
     61  CB        23.5160    1.0460  -23.1030 C.3    98  SER98       0.2103
     62  OG        24.0960    2.3540  -23.0430 O.3    98  SER98      -0.2182
     63  N         25.3120    1.3650  -20.2780 N.am   99  PRO99      -0.2717
     64  CA        25.4830    2.2740  -19.1450 C.3    99  PRO99       0.1535
     65  C         24.8370    3.6460  -19.3420 C.2    99  PRO99       0.2598
     66  O         24.5520    4.3340  -18.3520 O.2    99  PRO99      -0.2715
     67  CB        27.0110    2.4280  -19.0370 C.3    99  PRO99       0.0310
     68  CG        27.5550    1.1960  -19.6900 C.3    99  PRO99       0.0237
     69  CD        26.6060    0.8940  -20.8100 C.3    99  PRO99       0.0939
     70  N         24.6070    4.0440  -20.5940 N.am  100  LYS100     -0.1964
     71  CA        23.8840    5.2860  -20.8850 C.3   100  LYS100      0.1728
     72  C         22.4320    5.2680  -20.4160 C.2   100  LYS100      0.2616
     73  O         21.7970    6.3240  -20.3170 O.2   100  LYS100     -0.2715
     74  CB        23.9150    5.6110  -22.3860 C.3   100  LYS100      0.0311
     75  CG        25.2920    5.9770  -22.9110 C.3   100  LYS100      0.0038
     76  CD        25.3390    6.0580  -24.4430 C.3   100  LYS100      0.0206
     77  CE        24.9520    7.4410  -24.9720 C.3   100  LYS100      0.1093
     78  NZ        25.1040    7.6020  -26.4630 N.3   100  LYS100     -0.1314
     79  N         21.8840    4.0640  -20.2440 N.am  101  TYR101     -0.1974
     80  CA        20.4500    3.8860  -20.0990 C.3   101  TYR101      0.1639
     81  C         20.1490    3.1340  -18.7970 C.2   101  TYR101      0.2290
     82  O         20.3510    3.7090  -17.7130 O.2   101  TYR101     -0.2864
     83  CB        19.8870    3.1930  -21.3480 C.3   101  TYR101      0.0560
     84  CG        19.9660    4.0990  -22.5610 C.ar  101  TYR101     -0.0198
     85  CD1       20.9730    3.9300  -23.5080 C.ar  101  TYR101     -0.0009
     86  CD2       19.2060    5.2660  -22.6220 C.ar  101  TYR101     -0.0009
     87  CE1       21.0570    4.7720  -24.6150 C.ar  101  TYR101      0.0417
     88  CE2       19.3140    6.1350  -23.6940 C.ar  101  TYR101      0.0417
     89  CZ        20.2180    5.8740  -24.6970 C.ar  101  TYR101      0.1957
     90  OH        20.3230    6.7610  -25.7510 O.3   101  TYR101     -0.2866
     91  N         20.0870   -6.4590  -39.1230 N.3   130  LYS130     -0.1245
     92  CA        20.0460   -5.4990  -38.0120 C.3   130  LYS130      0.1561
     93  C         20.4330   -6.1330  -36.6660 C.2   130  LYS130      0.2260
     94  O         21.0070   -5.4580  -35.8060 O.2   130  LYS130     -0.2867
     95  CB        18.6710   -4.8270  -37.9300 C.3   130  LYS130      0.0271
     96  CG        18.3560   -3.9520  -39.1430 C.3   130  LYS130      0.0035
     97  CD        16.9870   -3.2980  -38.9750 C.3   130  LYS130      0.0206
     98  CE        16.6190   -2.4940  -40.2190 C.3   130  LYS130      0.1093
     99  NZ        15.1630   -2.1590  -40.2870 N.3   130  LYS130     -0.1314
    100  N         24.1450   -5.9320  -36.9110 N.3   133  GLU133     -0.1231
    101  CA        24.6010   -4.5540  -36.6800 C.3   133  GLU133      0.1699
    102  C         24.5610   -4.1230  -35.2210 C.2   133  GLU133      0.2592
    103  O         25.4630   -3.4170  -34.7500 O.2   133  GLU133     -0.2718
    104  CB        23.7970   -3.5710  -37.5220 C.3   133  GLU133      0.0402
    105  CG        23.9690   -3.7680  -38.9960 C.3   133  GLU133      0.1161
    106  CD        23.3820   -2.6160  -39.7830 C.2   133  GLU133      0.3649
    107  OE1       23.7220   -2.4910  -40.9800 O.co2 133  GLU133     -0.2457
    108  OE2       22.5860   -1.8440  -39.2010 O.co2 133  GLU133     -0.2457
    109  N         23.4840   -4.5040  -34.5340 N.am  134  ALA134     -0.1980
    110  CA        23.3020   -4.1580  -33.1230 C.3   134  ALA134      0.1597
    111  C         24.3970   -4.8620  -32.3120 C.2   134  ALA134      0.2287
    112  O         24.9990   -4.2670  -31.4190 O.2   134  ALA134     -0.2864
    113  CB        21.9200   -4.6030  -32.6380 C.3   134  ALA134      0.0319
    114  N         27.8010   -3.2710  -32.9160 N.3   137  MET137     -0.1230
    115  CA        27.8320   -2.0110  -32.1660 C.3   137  MET137      0.1702
    116  C         28.0770   -2.2390  -30.6680 C.2   137  MET137      0.2592
    117  O         28.9010   -1.5520  -30.0620 O.2   137  MET137     -0.2718
    118  CB        26.5540   -1.2050  -32.4190 C.3   137  MET137      0.0401
    119  CG        26.4360    0.1130  -31.6370 C.3   137  MET137      0.0596
    120  SD        25.8520   -0.1270  -29.9430 S.3   137  MET137     -0.1393
    121  CE        24.1520   -0.6380  -30.2250 C.3   137  MET137      0.0692
    122  N         27.3920   -3.2110  -30.0670 N.am  138  LEU138     -0.1980
    123  CA        27.5840   -3.4830  -28.6450 C.3   138  LEU138      0.1596
    124  C         29.0370   -3.8470  -28.3380 C.2   138  LEU138      0.2287
    125  O         29.6330   -3.3280  -27.3900 O.2   138  LEU138     -0.2864
    126  CB        26.6560   -4.5830  -28.1330 C.3   138  LEU138      0.0297
    127  CG        25.1760   -4.1940  -28.0990 C.3   138  LEU138      0.0022
    128  CD1       24.3990   -5.4490  -27.7890 C.3   138  LEU138      0.0001
    129  CD2       24.8930   -3.1220  -27.0590 C.3   138  LEU138      0.0001
    130  N         31.2790   -0.7090  -28.6370 N.3   141  GLN141     -0.1245
    131  CA        31.0840    0.1310  -27.4870 C.3   141  GLN141      0.1566
    132  C         31.4760   -0.5200  -26.1600 C.2   141  GLN141      0.2260
    133  O         31.2720    0.0420  -25.1020 O.2   141  GLN141     -0.2867
    134  CB        29.6470    0.6670  -27.3980 C.3   141  GLN141      0.0367
    135  CG        29.1220    1.4020  -28.6110 C.3   141  GLN141      0.0905
    136  CD        29.9130    2.6680  -28.9940 C.2   141  GLN141      0.2608
    137  OE1       30.2170    2.8690  -30.1350 O.2   141  GLN141     -0.2717
    138  NE2       30.1720    3.4970  -28.0550 N.am  141  GLN141     -0.0878
    139  N         30.4390   -3.3130  -24.5390 N.3   143  ILE143     -0.1245
    140  CA        29.4710   -4.0700  -23.7400 C.3   143  ILE143      0.1561
    141  C         29.8000   -5.5660  -23.7600 C.2   143  ILE143      0.2260
    142  O         29.6300   -6.2350  -24.7800 O.2   143  ILE143     -0.2867
    143  CB        28.0310   -3.8440  -24.2550 C.3   143  ILE143      0.0252
    144  CG1       27.8060   -2.3640  -24.5890 C.3   143  ILE143      0.0019
    145  CG2       26.9840   -4.3720  -23.2550 C.3   143  ILE143      0.0019
    146  CD1       27.7790   -1.4480  -23.3850 C.3   143  ILE143      0.0001
@<TRIPOS>BOND
     1   107   106   ar
     2    99    98    1
     3    98    97    1
     4   106   108   ar
     5   106   105    1
     6    96    97    1
     7    96    95    1
     8    91    92    1
     9   105   104    1
    10     8     9    1
    11     8     7    1
    12    92    95    1
    13    92    93    1
    14     6     7    1
    15     6     5    1
    16   104   101    1
    17    19    20   ar
    18    19    17   ar
    19   100   101    1
    20    20    18   ar
    21    17    15   ar
    22   101   102    1
    23    93    94    2
    24     5     2    1
    25    31    29    1
    26     2     1    1
    27     2     3    1
    28    18    16   ar
    29    15    16   ar
    30    15    14    1
    31   102   103    2
    32   102   109   am
    33    10     3   am
    34    10    11    1
    35    29    28    2
    36    29    30    1
    37     3     4    2
    38    28    27    1
    39    14    11    1
    40   109   110    1
    41    11    12    1
    42    21    12   am
    43    21    22    1
    44    27    26    1
    45    25    22    1
    46    25    26    1
    47    12    13    2
    48   110   113    1
    49   110   111    1
    50   114   115    1
    51    22    23    1
    52   118   115    1
    53   118   119    1
    54   111   112    2
    55   115   116    1
    56   119   120    1
    57    39    37   am
    58    23    24    2
    59    38    37    2
    60    37    36    1
    61   116   122   am
    62   116   117    2
    63   121   120    1
    64   137   136    2
    65   122   123    1
    66    32    33    1
    67    47    45    1
    68    36    33    1
    69    33    34    1
    70   136   135    1
    71   136   138   am
    72   123   124    1
    73   123   126    1
    74   130   131    1
    75   135   134    1
    76    45    44    1
    77   124   125    2
    78   126   127    1
    79   127   128    1
    80   127   129    1
    81    34    35    2
    82   131   134    1
    83   131   132    1
    84    44    46    1
    85    44    41    1
    86    78    77    1
    87    40    41    1
    88   132   133    2
    89    56    55    1
    90    41    42    1
    91    55    54    1
    92    90    89    1
    93    77    76    1
    94    42    48   am
    95    42    43    2
    96    54    53    1
    97   142   141    2
    98    89    87   ar
    99    89    88   ar
   100    87    85   ar
   101   144   143    1
   102   144   146    1
   103    48    49    1
   104   139   140    1
   105    53    52    1
   106    76    75    1
   107   143   140    1
   108   143   145    1
   109   141   140    1
   110    88    86   ar
   111    85    84   ar
   112    52    49    1
   113    49    50    1
   114    61    62    1
   115    61    58    1
   116    75    74    1
   117    86    84   ar
   118    84    83    1
   119    74    71    1
   120    50    51    2
   121    58    57    1
   122    58    59    1
   123    83    80    1
   124    71    70    1
   125    71    72    1
   126    69    63    1
   127    69    68    1
   128    59    63   am
   129    59    60    2
   130    70    65   am
   131    72    73    2
   132    72    79   am
   133    63    64    1
   134    79    80    1
   135    80    81    1
   136    68    67    1
   137    65    64    1
   138    65    66    2
   139    64    67    1
   140    81    82    2
