@<TRIPOS>MOLECULE
tmp/3g2tA00.pdb
 146 140 0 0 0
SMALL
GASTEIGER

@<TRIPOS>ATOM
      1  N         24.7250    8.7780   11.5550 N.3    81  LYS81      -0.1231
      2  CA        26.0840    8.6420   11.0210 C.3    81  LYS81       0.1693
      3  C         26.1710    9.0910    9.5670 C.2    81  LYS81       0.2592
      4  O         25.2150    8.9510    8.8130 O.2    81  LYS81      -0.2718
      5  CB        26.5690    7.1890   11.1180 C.3    81  LYS81       0.0285
      6  CG        26.7110    6.6600   12.5380 C.3    81  LYS81       0.0035
      7  CD        27.0660    5.1740   12.5280 C.3    81  LYS81       0.0206
      8  CE        26.8700    4.5710   13.9060 C.3    81  LYS81       0.1093
      9  NZ        27.4010    3.1800   13.9790 N.3    81  LYS81      -0.1314
     10  N         27.3470    9.5650    9.1630 N.am   82  PHE82      -0.1962
     11  CA        27.5930    9.9260    7.7640 C.3    82  PHE82       0.1771
     12  C         27.4890    8.7210    6.8340 C.2    82  PHE82       0.2619
     13  O         27.1130    8.8550    5.6740 O.2    82  PHE82      -0.2715
     14  CB        28.9490   10.6230    7.6080 C.3    82  PHE82       0.0574
     15  CG        28.9900   11.9980    8.2270 C.ar   82  PHE82      -0.0200
     16  CD1       28.0350   12.9420    7.9030 C.ar   82  PHE82      -0.0042
     17  CD2       29.9060   12.2960    9.2260 C.ar   82  PHE82      -0.0042
     18  CE1       28.0210   14.1850    8.5220 C.ar   82  PHE82      -0.0003
     19  CE2       29.8920   13.5350    9.8460 C.ar   82  PHE82      -0.0003
     20  CZ        28.9650   14.4870    9.4720 C.ar   82  PHE82      -0.0000
     21  N         27.7060    7.5310    7.3800 N.am   83  ARG83      -0.1977
     22  CA        27.5370    6.3000    6.6090 C.3    83  ARG83       0.1597
     23  C         26.1390    6.1980    5.9920 C.2    83  ARG83       0.2287
     24  O         25.9740    5.6630    4.8870 O.2    83  ARG83      -0.2864
     25  CB        27.8370    5.0880    7.4910 C.3    83  ARG83       0.0334
     26  CG        27.2970    3.7780    6.9610 C.3    83  ARG83       0.0492
     27  CD        27.9110    2.5900    7.7070 C.3    83  ARG83       0.2205
     28  NE        29.3700    2.6180    7.6600 N.pl3  83  ARG83      -0.0865
     29  CZ        30.1660    2.7000    8.7230 C.cat  83  ARG83       0.5346
     30  NH1       29.6510    2.7590    9.9470 N.pl3  83  ARG83       0.1354
     31  NH2       31.4840    2.7260    8.5580 N.pl3  83  ARG83       0.1354
     32  N         25.3290   10.3630    4.2300 N.3    86  ASN86      -0.1240
     33  CA        25.9710   10.5040    2.9210 C.3    86  ASN86       0.1653
     34  C         25.1230    9.9700    1.7640 C.2    86  ASN86       0.2266
     35  O         25.1550   10.5120    0.6590 O.2    86  ASN86      -0.2867
     36  CB        27.3370    9.8050    2.9090 C.3    86  ASN86       0.1155
     37  CG        28.4190   10.6020    3.6260 C.2    86  ASN86       0.2627
     38  OD1       28.2190   11.7690    4.0030 O.2    86  ASN86      -0.2716
     39  ND2       29.5830    9.9800    3.8050 N.am   86  ASN86      -0.0877
     40  N         22.7090   12.8140    1.1500 N.3    89  ILE89      -0.1231
     41  CA        23.4170   13.9220    0.5320 C.3    89  ILE89       0.1692
     42  C         23.6040   13.6830   -0.9680 C.2    89  ILE89       0.2591
     43  O         23.5730   14.6260   -1.7480 O.2    89  ILE89      -0.2718
     44  CB        24.7780   14.1670    1.2450 C.3    89  ILE89       0.0266
     45  CG1       24.5490   14.8030    2.6250 C.3    89  ILE89       0.0019
     46  CG2       25.7100   15.0330    0.4020 C.3    89  ILE89       0.0020
     47  CD1       25.8330   14.9210    3.4750 C.3    89  ILE89       0.0001
     48  N         23.7960   12.4240   -1.3630 N.am   90  LYS90      -0.1980
     49  CA        24.0440   12.0880   -2.7580 C.3    90  LYS90       0.1596
     50  C         22.8030   12.3010   -3.6180 C.2    90  LYS90       0.2287
     51  O         22.9160   12.5970   -4.8080 O.2    90  LYS90      -0.2864
     52  CB        24.5180   10.6390   -2.8830 C.3    90  LYS90       0.0298
     53  CG        25.9810   10.4190   -2.5480 C.3    90  LYS90       0.0038
     54  CD        26.2920    8.9190   -2.4660 C.3    90  LYS90       0.0206
     55  CE        27.6960    8.6670   -1.9270 C.3    90  LYS90       0.1093
     56  NZ        27.8530    7.2840   -1.3590 N.3    90  LYS90      -0.1314
     57  N         22.4270   16.2620   -4.0220 N.3    93  SER93      -0.1203
     58  CA        23.5830   16.9420   -4.5930 C.3    93  SER93       0.2005
     59  C         23.6010   16.7770   -6.1170 C.2    93  SER93       0.2461
     60  O         23.5500   15.6550   -6.6090 O.2    93  SER93      -0.2732
     61  CB        24.8690   16.3610   -4.0180 C.3    93  SER93       0.2103
     62  OG        25.9850   16.7890   -4.7750 O.3    93  SER93      -0.2182
     63  N         23.7350   17.8950   -6.8600 N.am   94  PRO94      -0.2717
     64  CA        23.8750   17.8440   -8.3160 C.3    94  PRO94       0.1535
     65  C         25.1550   17.1480   -8.7840 C.2    94  PRO94       0.2598
     66  O         25.2470   16.7750   -9.9500 O.2    94  PRO94      -0.2715
     67  CB        23.9130   19.3250   -8.7270 C.3    94  PRO94       0.0310
     68  CG        23.3240   20.0760   -7.5570 C.3    94  PRO94       0.0237
     69  CD        23.7370   19.2810   -6.3530 C.3    94  PRO94       0.0939
     70  N         26.1410   16.9860   -7.9030 N.am   95  LYS95      -0.1964
     71  CA        27.3500   16.2860   -8.3050 C.3    95  LYS95       0.1728
     72  C         27.2830   14.7770   -8.1330 C.2    95  LYS95       0.2616
     73  O         28.1670   14.0550   -8.5870 O.2    95  LYS95      -0.2715
     74  CB        28.6170   16.8880   -7.6860 C.3    95  LYS95       0.0311
     75  CG        28.6410   16.9870   -6.2020 C.3    95  LYS95       0.0038
     76  CD        29.9750   17.5300   -5.7340 C.3    95  LYS95       0.0206
     77  CE        30.0220   19.0560   -5.7740 C.3    95  LYS95       0.1093
     78  NZ        30.8240   19.6020   -4.6200 N.3    95  LYS95      -0.1314
     79  N         26.1960   14.2990   -7.5440 N.am   96  TYR96      -0.1974
     80  CA        25.9480   12.8690   -7.4770 C.3    96  TYR96       0.1639
     81  C         24.6610   12.5210   -8.2150 C.2    96  TYR96       0.2290
     82  O         24.6480   12.5010   -9.4570 O.2    96  TYR96      -0.2864
     83  CB        25.9730   12.3700   -6.0200 C.3    96  TYR96       0.0560
     84  CG        27.3380   12.5780   -5.3760 C.ar   96  TYR96      -0.0198
     85  CD1       27.6530   13.7770   -4.7420 C.ar   96  TYR96      -0.0009
     86  CD2       28.3540   11.6480   -5.5510 C.ar   96  TYR96      -0.0009
     87  CE1       28.9240   14.0080   -4.2260 C.ar   96  TYR96       0.0417
     88  CE2       29.6370   11.8650   -5.0390 C.ar   96  TYR96       0.0417
     89  CZ        29.9080   13.0430   -4.3710 C.ar   96  TYR96       0.1957
     90  OH        31.1690   13.2630   -3.8600 O.3    96  TYR96      -0.2866
     91  N         25.7760   15.0660   13.9410 N.3   125  LYS125     -0.1245
     92  CA        26.2000   14.9450   12.5450 C.3   125  LYS125      0.1561
     93  C         25.0630   15.2160   11.5730 C.2   125  LYS125      0.2260
     94  O         25.3100   15.4830   10.3950 O.2   125  LYS125     -0.2867
     95  CB        26.7940   13.5610   12.2570 C.3   125  LYS125      0.0271
     96  CG        28.0990   13.2570   12.9940 C.3   125  LYS125      0.0035
     97  CD        28.5440   11.8380   12.6920 C.3   125  LYS125      0.0206
     98  CE        29.8660   11.5080   13.3590 C.3   125  LYS125      0.1093
     99  NZ        30.0430   10.0340   13.3940 N.3   125  LYS125     -0.1314
    100  N         25.4260   18.9080   11.3410 N.3   128  GLU128     -0.1231
    101  CA        26.6000   19.1710   10.5330 C.3   128  GLU128      0.1699
    102  C         26.3060   18.9880    9.0400 C.2   128  GLU128      0.2592
    103  O         26.6360   19.8580    8.2220 O.2   128  GLU128     -0.2718
    104  CB        27.7550   18.2790   11.0020 C.3   128  GLU128      0.0402
    105  CG        28.9700   18.3370   10.1340 C.3   128  GLU128      0.1161
    106  CD        30.1600   17.6050   10.7480 C.2   128  GLU128      0.3649
    107  OE1       29.9730   16.8860   11.7640 O.co2 128  GLU128     -0.2457
    108  OE2       31.2770   17.7440   10.1940 O.co2 128  GLU128     -0.2457
    109  N         25.6280   17.8950    8.6920 N.am  129  ALA129     -0.1980
    110  CA        25.1630   17.6830    7.3250 C.3   129  ALA129      0.1597
    111  C         24.2960   18.8480    6.8360 C.2   129  ALA129      0.2287
    112  O         24.4350   19.2860    5.7070 O.2   129  ALA129     -0.2864
    113  CB        24.3790   16.3610    7.2130 C.3   129  ALA129      0.0319
    114  N         26.1390   22.0430    6.2340 N.3   132  MET132     -0.1230
    115  CA        26.9280   21.9220    4.9940 C.3   132  MET132      0.1702
    116  C         25.9950   22.1960    3.8170 C.2   132  MET132      0.2592
    117  O         26.3100   22.9870    2.9440 O.2   132  MET132     -0.2718
    118  CB        27.5690   20.5260    4.8760 C.3   132  MET132      0.0401
    119  CG        28.2380   20.1870    3.5160 C.3   132  MET132      0.0596
    120  SD        27.1170   19.4020    2.3140 S.3   132  MET132     -0.1393
    121  CE        26.7200   20.7920    1.2920 C.3   132  MET132      0.0692
    122  N         24.7900   21.6340    3.8590 N.am  133  LEU133     -0.1980
    123  CA        23.8650   21.7920    2.7350 C.3   133  LEU133      0.1596
    124  C         23.4370   23.2490    2.5330 C.2   133  LEU133      0.2287
    125  O         23.2330   23.6950    1.4040 O.2   133  LEU133     -0.2864
    126  CB        22.6520   20.8730    2.9040 C.3   133  LEU133      0.0297
    127  CG        22.9390   19.3790    2.7160 C.3   133  LEU133      0.0022
    128  CD1       21.7300   18.5670    3.1540 C.3   133  LEU133      0.0001
    129  CD2       23.2830   19.0670    1.2600 C.3   133  LEU133      0.0001
    130  N         26.6420   25.1140    0.9660 N.3   136  GLN136     -0.1245
    131  CA        26.8490   24.7520   -0.4410 C.3   136  GLN136      0.1566
    132  C         25.6800   25.2060   -1.3050 C.2   136  GLN136      0.2260
    133  O         25.6790   24.9920   -2.5150 O.2   136  GLN136     -0.2867
    134  CB        27.0270   23.2320   -0.5810 C.3   136  GLN136      0.0367
    135  CG        28.2420   22.6910    0.1540 C.3   136  GLN136      0.0905
    136  CD        29.5200   23.3540   -0.3190 C.2   136  GLN136      0.2608
    137  OE1       30.3930   23.6790    0.4840 O.2   136  GLN136     -0.2717
    138  NE2       29.6560   23.5220   -1.6250 N.am  136  GLN136     -0.0878
    139  N         22.4420   24.2670   -1.2150 N.3   138  ILE138     -0.1245
    140  CA        21.3540   23.3380   -1.4900 C.3   138  ILE138      0.1561
    141  C         20.0860   23.7100   -0.7070 C.2   138  ILE138      0.2260
    142  O         18.9870   23.7490   -1.2650 O.2   138  ILE138     -0.2867
    143  CB        21.7730   21.8670   -1.2700 C.3   138  ILE138      0.0252
    144  CG1       22.5310   21.3520   -2.4920 C.3   138  ILE138      0.0019
    145  CG2       20.5680   20.9820   -1.0330 C.3   138  ILE138      0.0019
    146  CD1       24.0010   21.3320   -2.3200 C.3   138  ILE138      0.0001
@<TRIPOS>BOND
     1    66    65    2
     2    82    81    2
     3    65    64    1
     4    65    70   am
     5    67    64    1
     6    67    68    1
     7    73    72    2
     8    64    63    1
     9    71    72    1
    10    71    70    1
    11    71    74    1
    12    81    80    1
    13    72    79   am
    14    74    75    1
    15    68    69    1
    16    79    80    1
    17    80    83    1
    18    63    69    1
    19    63    59   am
    20    60    59    2
    21    75    76    1
    22    59    58    1
    23    83    84    1
    24    77    76    1
    25    77    78    1
    26    86    84   ar
    27    86    88   ar
    28    84    85   ar
    29    88    89   ar
    30    51    50    2
    31    62    61    1
    32    85    87   ar
    33    58    57    1
    34    58    61    1
    35    89    87   ar
    36    89    90    1
    37    50    49    1
    38    52    49    1
    39    52    53    1
    40    49    48    1
    41    53    54    1
    42   133   132    2
    43   144   146    1
    44   144   143    1
    45    54    55    1
    46    55    56    1
    47    43    42    2
    48   138   136   am
    49   140   143    1
    50   140   139    1
    51   140   141    1
    52    48    42   am
    53   132   131    1
    54   143   145    1
    55   142   141    2
    56    42    41    1
    57   134   131    1
    58   134   135    1
    59   131   130    1
    60   136   135    1
    61   136   137    2
    62    46    44    1
    63    41    40    1
    64    41    44    1
    65    35    34    2
    66    44    45    1
    67   129   127    1
    68   121   120    1
    69   125   124    2
    70    34    33    1
    71   120   119    1
    72   124   123    1
    73    45    47    1
    74   127   126    1
    75   127   128    1
    76   123   126    1
    77   123   122    1
    78    36    33    1
    79    36    37    1
    80    33    32    1
    81   117   116    2
    82   119   118    1
    83    37    39   am
    84    37    38    2
    85   116   122   am
    86   116   115    1
    87   118   115    1
    88    24    23    2
    89   115   114    1
    90    13    12    2
    91   112   111    2
    92    23    22    1
    93    22    21    1
    94    22    25    1
    95    12    21   am
    96    12    11    1
    97   111   110    1
    98    26    25    1
    99    26    27    1
   100   113   110    1
   101   110   109    1
   102    14    11    1
   103    14    15    1
   104    28    27    1
   105    28    29    2
   106    11    10    1
   107    16    15   ar
   108    16    18   ar
   109   103   102    2
   110    15    17   ar
   111    18    20   ar
   112    31    29    1
   113   109   102   am
   114    29    30    1
   115     4     3    2
   116   102   101    1
   117    10     3   am
   118    17    19   ar
   119    20    19   ar
   120     3     2    1
   121   105   106    1
   122   105   104    1
   123   108   106   ar
   124    94    93    2
   125   101   104    1
   126   101   100    1
   127   106   107   ar
   128     2     5    1
   129     2     1    1
   130     5     6    1
   131    93    92    1
   132    95    92    1
   133    95    96    1
   134     7     6    1
   135     7     8    1
   136    92    91    1
   137    97    96    1
   138    97    98    1
   139    98    99    1
   140     8     9    1
