@<TRIPOS>MOLECULE
tmp/3g2uA00.pdb
 132 125 0 0 0
SMALL
GASTEIGER

@<TRIPOS>ATOM
      1  N         -2.7910  -10.8360   -2.2010 N.3    81  LYS81      -0.1231
      2  CA        -3.8320  -10.9450   -3.2100 C.3    81  LYS81       0.1693
      3  C         -3.2780  -11.5960   -4.4650 C.2    81  LYS81       0.2592
      4  O         -2.1210  -11.3730   -4.8240 O.2    81  LYS81      -0.2718
      5  CB        -4.3860   -9.5680   -3.5520 C.3    81  LYS81       0.0285
      6  CG        -5.1700   -8.9260   -2.4300 C.3    81  LYS81       0.0035
      7  CD        -5.5670   -7.5080   -2.7910 C.3    81  LYS81       0.0206
      8  CE        -6.1580   -6.7820   -1.5900 C.3    81  LYS81       0.1093
      9  NZ        -6.9480   -5.5930   -2.0250 N.3    81  LYS81      -0.1314
     10  N         -4.1210  -12.3610   -5.1530 N.am   82  PHE82      -0.1962
     11  CA        -3.7530  -13.0120   -6.4170 C.3    82  PHE82       0.1771
     12  C         -3.3220  -11.9990   -7.4750 C.2    82  PHE82       0.2619
     13  O         -2.4800  -12.2900   -8.3250 O.2    82  PHE82      -0.2715
     14  CB        -4.9220  -13.8550   -6.9460 C.3    82  PHE82       0.0574
     15  CG        -5.3110  -14.9940   -6.0400 C.ar   82  PHE82      -0.0200
     16  CD1       -4.3380  -15.8100   -5.4700 C.ar   82  PHE82      -0.0042
     17  CD2       -6.6340  -15.1980   -5.6920 C.ar   82  PHE82      -0.0042
     18  CE1       -4.6920  -16.8580   -4.6290 C.ar   82  PHE82      -0.0003
     19  CE2       -6.9890  -16.2160   -4.8150 C.ar   82  PHE82      -0.0003
     20  CZ        -6.0100  -17.0040   -4.2390 C.ar   82  PHE82      -0.0000
     21  N         -3.8950  -10.8050   -7.4020 N.am   83  ARG83      -0.1977
     22  CA        -3.4890   -9.6890   -8.2320 C.3    83  ARG83       0.1597
     23  C         -1.9780   -9.4850   -8.2300 C.2    83  ARG83       0.2287
     24  O         -1.4010   -9.0720   -9.2340 O.2    83  ARG83      -0.2864
     25  CB        -4.1900   -8.4160   -7.7620 C.3    83  ARG83       0.0334
     26  CG        -4.0180   -7.2340   -8.6960 C.3    83  ARG83       0.0492
     27  CD        -4.8160   -6.0240   -8.2150 C.3    83  ARG83       0.2205
     28  NE        -6.2220   -6.1580   -8.5710 N.pl3  83  ARG83      -0.0865
     29  CZ        -7.2290   -6.0470   -7.7100 C.cat  83  ARG83       0.5346
     30  NH1       -6.9920   -5.7480   -6.4330 N.pl3  83  ARG83       0.1354
     31  NH2       -8.4760   -6.2460   -8.1280 N.pl3  83  ARG83       0.1354
     32  N         -0.1480  -13.6860   -8.6480 N.3    86  ASN86      -0.1225
     33  CA        -0.1520  -14.1010  -10.0590 C.3    86  ASN86       0.1785
     34  C          1.0840  -13.6410  -10.8270 C.2    86  ASN86       0.2597
     35  O          1.5120  -14.3100  -11.7630 O.2    86  ASN86      -0.2718
     36  CB        -1.4180  -13.6300  -10.7950 C.3    86  ASN86       0.1169
     37  CG        -2.6600  -14.4150  -10.3980 C.2    86  ASN86       0.2627
     38  OD1       -2.5800  -15.4130   -9.6780 O.2    86  ASN86      -0.2716
     39  ND2       -3.8180  -13.9080  -10.7830 N.am   86  ASN86      -0.0877
     40  N          1.5580  -12.4350  -10.5310 N.am   87  GLU87      -0.1979
     41  CA         2.7420  -11.9160  -11.1950 C.3    87  GLU87       0.1602
     42  C          4.0090  -12.7260  -10.8210 C.2    87  GLU87       0.2287
     43  O          4.8960  -12.9480  -11.6610 O.2    87  GLU87      -0.2864
     44  CB         2.9310  -10.4180  -10.8850 C.3    87  GLU87       0.0415
     45  CG         1.7160   -9.5320  -11.2020 C.3    87  GLU87       0.1163
     46  CD         1.2410   -9.6480  -12.6620 C.2    87  GLU87       0.3649
     47  OE1        0.0540   -9.9700  -12.8890 O.co2  87  GLU87      -0.2457
     48  OE2        2.0860   -9.6040  -13.5750 O.co2  87  GLU87      -0.2457
     49  N          3.7740  -16.0330   -9.8650 N.3    89  ILE89      -0.1231
     50  CA         3.4780  -17.3040  -10.4990 C.3    89  ILE89       0.1692
     51  C          3.8840  -17.2700  -11.9660 C.2    89  ILE89       0.2591
     52  O          4.5100  -18.2000  -12.4600 O.2    89  ILE89      -0.2718
     53  CB         1.9730  -17.6510  -10.3790 C.3    89  ILE89       0.0266
     54  CG1        1.6360  -18.0960   -8.9530 C.3    89  ILE89       0.0019
     55  CG2        1.5650  -18.7430  -11.3880 C.3    89  ILE89       0.0020
     56  CD1        0.1750  -18.1830   -8.6990 C.3    89  ILE89       0.0001
     57  N          3.6130  -16.1520  -12.6320 N.am   90  LYS90      -0.1980
     58  CA         4.0850  -15.9560  -14.0030 C.3    90  LYS90       0.1596
     59  C          5.5920  -16.1260  -14.1420 C.2    90  LYS90       0.2287
     60  O          6.0720  -16.6630  -15.1300 O.2    90  LYS90      -0.2864
     61  CB         3.6770  -14.5800  -14.5130 C.3    90  LYS90       0.0298
     62  CG         2.2440  -14.4900  -14.9620 C.3    90  LYS90       0.0038
     63  CD         1.8990  -13.0490  -15.2440 C.3    90  LYS90       0.0206
     64  CE         0.4410  -12.8890  -15.6260 C.3    90  LYS90       0.1093
     65  NZ         0.0530  -11.4540  -15.5920 N.3    90  LYS90      -0.1314
     66  N          6.7820  -20.1250  -13.3990 N.3    93  SER93      -0.1217
     67  CA         6.0740  -21.2160  -14.0630 C.3    93  SER93       0.1889
     68  C          6.4080  -21.2870  -15.5640 C.2    93  SER93       0.2288
     69  O          6.4300  -20.2630  -16.2380 O.2    93  SER93      -0.2866
     70  CB         4.5730  -21.0690  -13.8400 C.3    93  SER93       0.2089
     71  OG         3.8460  -21.9480  -14.6800 O.3    93  SER93      -0.2183
     72  N          4.8510  -22.6860  -18.0610 N.3    95  LYS95      -0.1231
     73  CA         3.6730  -22.1860  -18.7690 C.3    95  LYS95       0.1693
     74  C          3.7830  -20.7150  -19.1770 C.2    95  LYS95       0.2592
     75  O          3.2000  -20.3090  -20.1810 O.2    95  LYS95      -0.2718
     76  CB         2.4240  -22.3910  -17.9100 C.3    95  LYS95       0.0285
     77  CG         1.3420  -23.2400  -18.5520 C.3    95  LYS95       0.0035
     78  CD         0.5800  -24.0420  -17.4980 C.3    95  LYS95       0.0206
     79  CE        -0.8160  -23.4740  -17.2710 C.3    95  LYS95       0.1093
     80  NZ        -1.7720  -23.8220  -18.3720 N.3    95  LYS95      -0.1314
     81  N          4.4040  -19.8980  -18.3240 N.am   96  TYR96      -0.1976
     82  CA         4.5000  -18.4560  -18.5600 C.3    96  TYR96       0.1639
     83  C          5.9280  -17.9430  -18.8060 C.2    96  TYR96       0.2290
     84  O          6.4090  -17.9800  -19.9320 O.2    96  TYR96      -0.2864
     85  CB         3.7930  -17.6650  -17.4530 C.3    96  TYR96       0.0560
     86  CG         2.4140  -18.1910  -17.1580 C.ar   96  TYR96      -0.0198
     87  CD1        2.2050  -19.0800  -16.1120 C.ar   96  TYR96      -0.0009
     88  CD2        1.3700  -17.9740  -18.0470 C.ar   96  TYR96      -0.0009
     89  CE1        0.9750  -19.6840  -15.9170 C.ar   96  TYR96       0.0417
     90  CE2        0.1240  -18.5580  -17.8510 C.ar   96  TYR96       0.0417
     91  CZ        -0.0630  -19.4190  -16.7870 C.ar   96  TYR96       0.1957
     92  OH        -1.2940  -20.0100  -16.5870 O.3    96  TYR96      -0.2866
     93  N         -4.2160  -16.7040    0.8810 N.3   125  LYS125     -0.1245
     94  CA        -4.0490  -16.7380   -0.5750 C.3   125  LYS125      0.1561
     95  C         -2.6060  -17.0060   -0.9890 C.2   125  LYS125      0.2260
     96  O         -2.3550  -17.7250   -1.9640 O.2   125  LYS125     -0.2867
     97  CB        -4.5340  -15.4360   -1.2210 C.3   125  LYS125      0.0271
     98  CG        -6.0130  -15.1540   -1.0350 C.3   125  LYS125      0.0035
     99  CD        -6.4300  -13.9460   -1.8420 C.3   125  LYS125      0.0206
    100  CE        -7.9350  -13.7770   -1.8540 C.3   125  LYS125      0.1093
    101  NZ        -8.3440  -12.5650   -2.6270 N.3   125  LYS125     -0.1314
    102  N         -2.4040  -20.6010   -0.7240 N.3   128  GLU128     -0.1231
    103  CA        -3.1110  -21.1810   -1.8570 C.3   128  GLU128      0.1699
    104  C         -2.1990  -21.2100   -3.0740 C.2   128  GLU128      0.2592
    105  O         -2.0550  -22.2450   -3.7360 O.2   128  GLU128     -0.2718
    106  CB        -4.3690  -20.3670   -2.1630 C.3   128  GLU128      0.0402
    107  CG        -5.5980  -21.1840   -2.3800 C.3   128  GLU128      0.1161
    108  CD        -6.7890  -20.3520   -2.8090 C.2   128  GLU128      0.3649
    109  OE1       -7.3350  -19.5920   -1.9660 O.co2 128  GLU128     -0.2457
    110  OE2       -7.2800  -20.5920   -3.9360 O.co2 128  GLU128     -0.2457
    111  N         -1.5460  -20.0810   -3.3320 N.am  129  ALA129     -0.1980
    112  CA        -0.6210  -19.9410   -4.4560 C.3   129  ALA129      0.1597
    113  C          0.5870  -20.8720   -4.3450 C.2   129  ALA129      0.2287
    114  O          0.9300  -21.5600   -5.3020 O.2   129  ALA129     -0.2864
    115  CB        -0.1640  -18.4920   -4.5910 C.3   129  ALA129      0.0319
    116  N         -0.5410  -24.5540   -4.7950 N.3   132  MET132     -0.1245
    117  CA        -0.7980  -24.8070   -6.2140 C.3   132  MET132      0.1570
    118  C          0.4990  -25.0860   -6.9920 C.2   132  MET132      0.2261
    119  O          0.5730  -26.0510   -7.7510 O.2   132  MET132     -0.2867
    120  CB        -1.5860  -23.6720   -6.8670 C.3   132  MET132      0.0387
    121  CG        -1.8670  -23.9210   -8.3310 C.3   132  MET132      0.0595
    122  SD        -1.8390  -22.4610   -9.3690 S.3   132  MET132     -0.1393
    123  CE        -0.1280  -21.9410   -9.2480 C.3   132  MET132      0.0692
    124  N          1.7700  -28.8050   -8.6980 N.3   136  GLN136     -0.1245
    125  CA         2.2840  -28.8860  -10.0710 C.3   136  GLN136      0.1566
    126  C          3.7470  -29.3400  -10.1260 C.2   136  GLN136      0.2260
    127  O          4.3050  -29.5060  -11.2060 O.2   136  GLN136     -0.2867
    128  CB         2.1370  -27.5310  -10.7950 C.3   136  GLN136      0.0367
    129  CG         0.6900  -27.0640  -10.9670 C.3   136  GLN136      0.0905
    130  CD         0.5860  -25.5960  -11.3620 C.2   136  GLN136      0.2608
    131  OE1        1.5020  -24.8030  -11.1120 O.2   136  GLN136     -0.2717
    132  NE2       -0.5290  -25.2310  -11.9940 N.am  136  GLN136     -0.0878
@<TRIPOS>BOND
     1    75    74    2
     2    84    83    2
     3    74    73    1
     4    74    81   am
     5    83    82    1
     6    73    72    1
     7    73    76    1
     8    82    81    1
     9    82    85    1
    10    77    76    1
    11    77    78    1
    12    80    79    1
    13    88    90   ar
    14    88    86   ar
    15    90    91   ar
    16    78    79    1
    17    85    86    1
    18    86    87   ar
    19    91    92    1
    20    91    89   ar
    21    69    68    2
    22    87    89   ar
    23    64    65    1
    24    64    63    1
    25    68    67    1
    26    63    62    1
    27    60    59    2
    28    62    61    1
    29    71    70    1
    30    61    58    1
    31    59    58    1
    32    67    70    1
    33    67    66    1
    34    58    57    1
    35    48    46   ar
    36    47    46   ar
    37    46    45    1
    38    57    51   am
    39    52    51    2
    40   132   130   am
    41    51    50    1
    42    35    34    2
    43    43    42    2
    44    55    53    1
    45   130   131    2
    46   130   129    1
    47   127   126    2
    48    45    44    1
    49    41    44    1
    50    41    42    1
    51    41    40    1
    52   129   128    1
    53    34    40   am
    54    34    33    1
    55   128   125    1
    56    36    37    1
    57    36    33    1
    58    39    37   am
    59    50    53    1
    60    50    49    1
    61    37    38    2
    62    53    54    1
    63   126   125    1
    64   125   124    1
    65    33    32    1
    66   122   123    1
    67   122   121    1
    68    24    23    2
    69    54    56    1
    70    26    27    1
    71    26    25    1
    72    28    27    1
    73    28    29    2
    74   121   120    1
    75    13    12    2
    76    22    23    1
    77    22    25    1
    78    22    21    1
    79    31    29    1
    80   119   118    2
    81    29    30    1
    82    12    21   am
    83    12    11    1
    84   118   117    1
    85    14    11    1
    86    14    15    1
    87   120   117    1
    88    11    10    1
    89   117   116    1
    90    15    17   ar
    91    15    16   ar
    92    17    19   ar
    93    16    18   ar
    94   114   113    2
    95    10     3   am
    96     4     3    2
    97    19    20   ar
    98    18    20   ar
    99   115   112    1
   100     3     2    1
   101   112   113    1
   102   112   111    1
   103   110   108   ar
   104   105   104    2
   105     5     2    1
   106     5     6    1
   107   111   104   am
   108     2     1    1
   109   104   103    1
   110   108   107    1
   111   108   109   ar
   112     7     6    1
   113     7     8    1
   114   101   100    1
   115   107   106    1
   116   106   103    1
   117     9     8    1
   118    96    95    2
   119   103   102    1
   120   100    99    1
   121    99    98    1
   122    97    98    1
   123    97    94    1
   124    95    94    1
   125    94    93    1
