@<TRIPOS>MOLECULE
tmp/3g2vA00.pdb
 126 120 0 0 0
SMALL
GASTEIGER

@<TRIPOS>ATOM
      1  N         -2.2110  -11.5610   -1.5920 N.3    81  LYS81      -0.1231
      2  CA        -3.2800  -11.7030   -2.5710 C.3    81  LYS81       0.1693
      3  C         -2.8120  -12.4030   -3.8490 C.2    81  LYS81       0.2592
      4  O         -1.6320  -12.3070   -4.2230 O.2    81  LYS81      -0.2718
      5  CB        -3.8790  -10.3270   -2.9040 C.3    81  LYS81       0.0285
      6  CG        -4.5520   -9.6580   -1.7130 C.3    81  LYS81       0.0035
      7  CD        -5.2240   -8.3590   -2.1010 C.3    81  LYS81       0.0206
      8  CE        -5.5780   -7.5550   -0.8570 C.3    81  LYS81       0.1093
      9  NZ        -6.5290   -6.4600   -1.1600 N.3    81  LYS81      -0.1314
     10  N         -3.7360  -13.0900   -4.5210 N.am   82  PHE82      -0.1962
     11  CA        -3.4330  -13.7600   -5.8040 C.3    82  PHE82       0.1771
     12  C         -3.0430  -12.7200   -6.8560 C.2    82  PHE82       0.2619
     13  O         -2.2260  -12.9820   -7.7270 O.2    82  PHE82      -0.2715
     14  CB        -4.6080  -14.6560   -6.2840 C.3    82  PHE82       0.0574
     15  CG        -4.8200  -15.8850   -5.4230 C.ar   82  PHE82      -0.0200
     16  CD1       -3.7260  -16.6500   -5.0140 C.ar   82  PHE82      -0.0042
     17  CD2       -6.0730  -16.2010   -4.9230 C.ar   82  PHE82      -0.0042
     18  CE1       -3.8850  -17.7350   -4.1530 C.ar   82  PHE82      -0.0003
     19  CE2       -6.2400  -17.2830   -4.0400 C.ar   82  PHE82      -0.0003
     20  CZ        -5.1390  -18.0340   -3.6440 C.ar   82  PHE82      -0.0000
     21  N         -3.5250  -11.4990   -6.6630 N.am   83  ARG83      -0.1977
     22  CA        -3.2040  -10.3650   -7.5350 C.3    83  ARG83       0.1597
     23  C         -1.6930  -10.1580   -7.6130 C.2    83  ARG83       0.2287
     24  O         -1.1680   -9.8070   -8.6690 O.2    83  ARG83      -0.2864
     25  CB        -3.8470   -9.0970   -6.9720 C.3    83  ARG83       0.0334
     26  CG        -3.8260   -7.9040   -7.9050 C.3    83  ARG83       0.0492
     27  CD        -4.6380   -6.7510   -7.3220 C.3    83  ARG83       0.2205
     28  NE        -6.0740   -6.9750   -7.4520 N.pl3  83  ARG83      -0.0865
     29  CZ        -6.9540   -6.8160   -6.4660 C.cat  83  ARG83       0.5346
     30  NH1       -6.5500   -6.4260   -5.2650 N.pl3  83  ARG83       0.1354
     31  NH2       -8.2490   -7.0140   -6.6950 N.pl3  83  ARG83       0.1354
     32  N          0.1880  -14.2070   -8.1970 N.3    86  ASN86      -0.1225
     33  CA         0.1380  -14.6610   -9.5980 C.3    86  ASN86       0.1785
     34  C          1.3110  -14.1670  -10.4210 C.2    86  ASN86       0.2597
     35  O          1.7490  -14.8260  -11.3600 O.2    86  ASN86      -0.2718
     36  CB        -1.1830  -14.2590  -10.2680 C.3    86  ASN86       0.1169
     37  CG        -2.3410  -15.1040   -9.8080 C.2    86  ASN86       0.2627
     38  OD1       -2.1450  -16.1550   -9.1810 O.2    86  ASN86      -0.2716
     39  ND2       -3.5620  -14.6680  -10.1250 N.am   86  ASN86      -0.0877
     40  N          1.8000  -12.9820  -10.0830 N.am   87  GLU87      -0.1979
     41  CA         2.9250  -12.3970  -10.7960 C.3    87  GLU87       0.1602
     42  C          4.2320  -13.1430  -10.4980 C.2    87  GLU87       0.2287
     43  O          5.0870  -13.2880  -11.3730 O.2    87  GLU87      -0.2864
     44  CB         3.0580  -10.9100  -10.4620 C.3    87  GLU87       0.0415
     45  CG         1.8120  -10.1010  -10.7730 C.3    87  GLU87       0.1163
     46  CD         1.3950  -10.2140  -12.2340 C.2    87  GLU87       0.3649
     47  OE1        0.1870  -10.3630  -12.4930 O.co2  87  GLU87      -0.2457
     48  OE2        2.2740  -10.1830  -13.1220 O.co2  87  GLU87      -0.2457
     49  N          4.1850  -16.4540   -9.6160 N.3    89  ILE89      -0.1231
     50  CA         3.9110  -17.7150  -10.2880 C.3    89  ILE89       0.1692
     51  C          4.2760  -17.6490  -11.7730 C.2    89  ILE89       0.2591
     52  O          4.8440  -18.6020  -12.3260 O.2    89  ILE89      -0.2718
     53  CB         2.4030  -18.1300  -10.1160 C.3    89  ILE89       0.0266
     54  CG1        2.1350  -18.5780   -8.6700 C.3    89  ILE89       0.0019
     55  CG2        2.0250  -19.2370  -11.1050 C.3    89  ILE89       0.0020
     56  CD1        0.6350  -18.6770   -8.2850 C.3    89  ILE89       0.0001
     57  N          4.0020  -16.5060  -12.3990 N.am   90  LYS90      -0.1980
     58  CA         4.4010  -16.2680  -13.7860 C.3    90  LYS90       0.1596
     59  C          5.8790  -16.4510  -14.0300 C.2    90  LYS90       0.2287
     60  O          6.2690  -17.0820  -15.0140 O.2    90  LYS90      -0.2864
     61  CB         3.9660  -14.8810  -14.2650 C.3    90  LYS90       0.0298
     62  CG         2.4710  -14.8030  -14.5420 C.3    90  LYS90       0.0038
     63  CD         2.0450  -13.3870  -14.8580 C.3    90  LYS90       0.0206
     64  CE         0.5400  -13.2290  -14.7770 C.3    90  LYS90       0.1093
     65  NZ         0.1250  -11.8860  -15.2630 N.3    90  LYS90      -0.1314
     66  N          5.1140  -22.7970  -17.8500 N.3    95  LYS95      -0.1231
     67  CA         3.9620  -22.3720  -18.6690 C.3    95  LYS95       0.1693
     68  C          4.0020  -20.8760  -19.0170 C.2    95  LYS95       0.2592
     69  O          3.4720  -20.4550  -20.0500 O.2    95  LYS95      -0.2718
     70  CB         2.6370  -22.6890  -17.9670 C.3    95  LYS95       0.0285
     71  CG         2.3510  -24.1660  -17.7640 C.3    95  LYS95       0.0035
     72  CD         1.1460  -24.3780  -16.8290 C.3    95  LYS95       0.0206
     73  CE        -0.0520  -23.5020  -17.2250 C.3    95  LYS95       0.1093
     74  NZ        -0.9630  -24.1270  -18.2290 N.3    95  LYS95      -0.1314
     75  N          4.5980  -20.0730  -18.1370 N.am   96  TYR96      -0.1976
     76  CA         4.5710  -18.6230  -18.2800 C.3    96  TYR96       0.1639
     77  C          5.9450  -18.0340  -18.5960 C.2    96  TYR96       0.2290
     78  O          6.4150  -18.1470  -19.7380 O.2    96  TYR96      -0.2864
     79  CB         3.8990  -17.9630  -17.0680 C.3    96  TYR96       0.0560
     80  CG         2.5210  -18.5300  -16.8210 C.ar   96  TYR96      -0.0198
     81  CD1        2.2980  -19.4260  -15.7840 C.ar   96  TYR96      -0.0009
     82  CD2        1.4890  -18.3140  -17.7310 C.ar   96  TYR96      -0.0009
     83  CE1        1.0710  -20.0290  -15.6160 C.ar   96  TYR96       0.0417
     84  CE2        0.2540  -18.9240  -17.5780 C.ar   96  TYR96       0.0417
     85  CZ         0.0550  -19.7850  -16.5170 C.ar   96  TYR96       0.1957
     86  OH        -1.1670  -20.3930  -16.3370 O.3    96  TYR96      -0.2866
     87  N         -3.2690  -17.6220    1.2720 N.3   125  LYS125     -0.1245
     88  CA        -3.0990  -17.5940   -0.1920 C.3   125  LYS125      0.1561
     89  C         -1.6380  -17.8040   -0.6170 C.2   125  LYS125      0.2260
     90  O         -1.3550  -18.5530   -1.5660 O.2   125  LYS125     -0.2867
     91  CB        -3.6400  -16.2990   -0.7790 C.3   125  LYS125      0.0271
     92  CG        -5.1430  -16.1280   -0.6030 C.3   125  LYS125      0.0035
     93  CD        -5.6040  -14.8180   -1.2170 C.3   125  LYS125      0.0206
     94  CE        -7.0930  -14.6060   -1.0290 C.3   125  LYS125      0.1093
     95  NZ        -7.5630  -13.3110   -1.6100 N.3   125  LYS125     -0.1314
     96  N         -1.3050  -21.4620   -0.2120 N.3   128  GLU128     -0.1231
     97  CA        -1.9970  -22.1580   -1.2900 C.3   128  GLU128      0.1699
     98  C         -1.1970  -22.0970   -2.5820 C.2   128  GLU128      0.2592
     99  O         -1.1050  -23.0900   -3.3200 O.2   128  GLU128     -0.2718
    100  CB        -3.3850  -21.5720   -1.5060 C.3   128  GLU128      0.0402
    101  CG        -4.2630  -22.4200   -2.3890 C.3   128  GLU128      0.1161
    102  CD        -5.6290  -21.8210   -2.5520 C.2   128  GLU128      0.3649
    103  OE1       -6.0200  -21.0020   -1.6910 O.co2 128  GLU128     -0.2457
    104  OE2       -6.2770  -22.1230   -3.5670 O.co2 128  GLU128     -0.2457
    105  N         -0.6430  -20.9200   -2.8680 N.am  129  ALA129     -0.1980
    106  CA         0.2290  -20.7320   -4.0300 C.3   129  ALA129      0.1597
    107  C          1.4550  -21.6530   -3.9950 C.2   129  ALA129      0.2287
    108  O          1.7950  -22.2960   -4.9820 O.2   129  ALA129     -0.2864
    109  CB         0.6560  -19.2460   -4.1520 C.3   129  ALA129      0.0319
    110  N          0.4610  -25.3940   -4.4950 N.3   132  MET132     -0.1245
    111  CA         0.1750  -25.5370   -5.9190 C.3   132  MET132      0.1570
    112  C          1.4360  -25.7350   -6.7530 C.2   132  MET132      0.2261
    113  O          1.5000  -26.6380   -7.5900 O.2   132  MET132     -0.2867
    114  CB        -0.6320  -24.3710   -6.4870 C.3   132  MET132      0.0387
    115  CG        -0.9750  -24.6120   -7.9410 C.3   132  MET132      0.0595
    116  SD        -1.3350  -23.1320   -8.8760 S.3   132  MET132     -0.1393
    117  CE         0.3090  -22.4680   -9.1440 C.3   132  MET132      0.0692
    118  N          2.6480  -29.1860   -8.6170 N.3   136  GLN136     -0.1245
    119  CA         3.0090  -29.1820  -10.0390 C.3   136  GLN136      0.1566
    120  C          4.4370  -29.6980  -10.2910 C.2   136  GLN136      0.2260
    121  O          4.8350  -29.9370  -11.4340 O.2   136  GLN136     -0.2867
    122  CB         2.8480  -27.7760  -10.6330 C.3   136  GLN136      0.0367
    123  CG         1.3890  -27.2940  -10.7480 C.3   136  GLN136      0.0905
    124  CD         1.2830  -25.8070  -11.0790 C.2   136  GLN136      0.2608
    125  OE1        2.2280  -25.0380  -10.8600 O.2   136  GLN136     -0.2717
    126  NE2        0.1200  -25.3880  -11.5810 N.am  136  GLN136     -0.0878
@<TRIPOS>BOND
     1    69    68    2
     2    78    77    2
     3    68    67    1
     4    68    75   am
     5    67    70    1
     6    67    66    1
     7    77    76    1
     8    76    75    1
     9    76    79    1
    10    74    73    1
    11    70    71    1
    12    71    72    1
    13    82    84   ar
    14    82    80   ar
    15    84    85   ar
    16    73    72    1
    17    79    80    1
    18    80    81   ar
    19    85    86    1
    20    85    83   ar
    21    81    83   ar
    22    65    64    1
    23    60    59    2
    24    63    64    1
    25    63    62    1
    26    62    61    1
    27    61    58    1
    28    59    58    1
    29    58    57    1
    30    48    46   ar
    31    47    46   ar
    32    57    51   am
    33    52    51    2
    34    46    45    1
    35    51    50    1
    36   126   124   am
    37   121   120    2
    38    43    42    2
    39    35    34    2
    40    55    53    1
    41   124   125    2
    42   124   123    1
    43    41    42    1
    44    41    44    1
    45    41    40    1
    46    45    44    1
    47   123   122    1
    48   122   119    1
    49    34    40   am
    50    34    33    1
    51   120   119    1
    52    50    53    1
    53    50    49    1
    54    36    37    1
    55    36    33    1
    56    39    37   am
    57    53    54    1
    58   119   118    1
    59    37    38    2
    60    33    32    1
    61   117   116    1
    62   116   115    1
    63    54    56    1
    64    24    23    2
    65   115   114    1
    66    26    27    1
    67    26    25    1
    68    13    12    2
    69    23    22    1
    70   113   112    2
    71    22    25    1
    72    22    21    1
    73    28    27    1
    74    28    29    2
    75    12    21   am
    76    12    11    1
    77   112   111    1
    78    31    29    1
    79   114   111    1
    80    29    30    1
    81    14    11    1
    82    14    15    1
    83   111   110    1
    84    11    10    1
    85    15    16   ar
    86    15    17   ar
    87    16    18   ar
    88   108   107    2
    89    17    19   ar
    90    10     3   am
    91     4     3    2
    92    18    20   ar
    93   109   106    1
    94    19    20   ar
    95   106   107    1
    96   106   105    1
    97     3     2    1
    98   104   102   ar
    99    99    98    2
   100     5     2    1
   101     5     6    1
   102   105    98   am
   103    98    97    1
   104     2     1    1
   105   102   101    1
   106   102   103   ar
   107   101   100    1
   108     7     6    1
   109     7     8    1
   110    95    94    1
   111    90    89    2
   112   100    97    1
   113    97    96    1
   114    93    94    1
   115    93    92    1
   116     9     8    1
   117    91    92    1
   118    91    88    1
   119    89    88    1
   120    88    87    1
