@<TRIPOS>MOLECULE
tmp/3g2wB00.pdb
 126 120 0 0 0
SMALL
GASTEIGER

@<TRIPOS>ATOM
      1  N          5.9150  -10.7650  -34.4970 N.3    80  LYS80      -0.1231
      2  CA         5.7500  -12.0750  -33.9000 C.3    80  LYS80       0.1693
      3  C          4.8060  -11.8820  -32.7230 C.2    80  LYS80       0.2592
      4  O          4.8870  -10.8690  -32.0090 O.2    80  LYS80      -0.2718
      5  CB         7.1010  -12.5690  -33.3810 C.3    80  LYS80       0.0285
      6  CG         7.9900  -13.1570  -34.4640 C.3    80  LYS80       0.0035
      7  CD         9.4070  -13.3880  -33.9810 C.3    80  LYS80       0.0206
      8  CE        10.1910  -14.1990  -35.0070 C.3    80  LYS80       0.1093
      9  NZ        11.6670  -14.2270  -34.7770 N.3    80  LYS80      -0.1314
     10  N          3.9500  -12.8820  -32.5110 N.am   81  PHE81      -0.1962
     11  CA         3.0240  -12.9210  -31.3820 C.3    81  PHE81       0.1771
     12  C          3.7000  -12.8880  -30.0180 C.2    81  PHE81       0.2619
     13  O          3.1980  -12.2470  -29.1020 O.2    81  PHE81      -0.2715
     14  CB         2.1190  -14.1540  -31.4910 C.3    81  PHE81       0.0574
     15  CG         1.1960  -14.1010  -32.6750 C.ar   81  PHE81      -0.0200
     16  CD1        0.4440  -12.9610  -32.9200 C.ar   81  PHE81      -0.0042
     17  CD2        1.1680  -15.1310  -33.6010 C.ar   81  PHE81      -0.0042
     18  CE1       -0.4120  -12.9050  -34.0040 C.ar   81  PHE81      -0.0003
     19  CE2        0.3180  -15.0800  -34.6940 C.ar   81  PHE81      -0.0003
     20  CZ        -0.4710  -13.9660  -34.8960 C.ar   81  PHE81      -0.0000
     21  N          4.7340  -13.7050  -29.8410 N.am   82  ARG82      -0.1977
     22  CA         5.7700  -13.4550  -28.8380 C.3    82  ARG82       0.1597
     23  C          5.7210  -12.0460  -28.2320 C.2    82  ARG82       0.2287
     24  O          5.5480  -11.8730  -27.0260 O.2    82  ARG82      -0.2864
     25  CB         7.1430  -13.6750  -29.4770 C.3    82  ARG82       0.0334
     26  CG         8.2820  -13.8270  -28.4880 C.3    82  ARG82       0.0492
     27  CD         9.2130  -14.9300  -28.9380 C.3    82  ARG82       0.2205
     28  NE         8.6280  -16.2390  -28.6550 N.pl3  82  ARG82      -0.0865
     29  CZ         9.1920  -17.3980  -28.9790 C.cat  82  ARG82       0.5346
     30  NH1       10.3340  -17.4180  -29.6540 N.pl3  82  ARG82       0.1354
     31  NH2        8.6040  -18.5410  -28.6390 N.pl3  82  ARG82       0.1354
     32  N          1.5410  -10.1300  -28.3110 N.3    85  ASN85      -0.1240
     33  CA         0.7110  -10.4950  -27.1570 C.3    85  ASN85       0.1653
     34  C          0.8920   -9.5410  -25.9790 C.2    85  ASN85       0.2266
     35  O         -0.0200   -9.3070  -25.1840 O.2    85  ASN85      -0.2867
     36  CB         1.0580  -11.9140  -26.7040 C.3    85  ASN85       0.1155
     37  CG         0.5840  -12.9820  -27.6820 C.2    85  ASN85       0.2627
     38  OD1       -0.0550  -12.6830  -28.6950 O.2    85  ASN85      -0.2716
     39  ND2        0.8730  -14.2410  -27.3650 N.am   85  ASN85      -0.0877
     40  N         -0.9140   -6.4520  -26.5490 N.3    88  ILE88      -0.1231
     41  CA        -2.3210   -6.8140  -26.3700 C.3    88  ILE88       0.1692
     42  C         -2.7160   -6.9070  -24.9010 C.2    88  ILE88       0.2591
     43  O         -3.7990   -6.4830  -24.4950 O.2    88  ILE88      -0.2718
     44  CB        -2.6530   -8.1370  -27.0830 C.3    88  ILE88       0.0266
     45  CG1       -2.5240   -7.9510  -28.5930 C.3    88  ILE88       0.0019
     46  CG2       -4.0610   -8.6230  -26.7200 C.3    88  ILE88       0.0020
     47  CD1       -2.5280   -9.2390  -29.3700 C.3    88  ILE88       0.0001
     48  N         -1.8130   -7.4320  -24.0880 N.am   89  LYS89      -0.1980
     49  CA        -2.0290   -7.3670  -22.6570 C.3    89  LYS89       0.1596
     50  C         -2.2900   -5.9400  -22.1820 C.2    89  LYS89       0.2287
     51  O         -3.1290   -5.7340  -21.3140 O.2    89  LYS89      -0.2864
     52  CB        -0.8570   -8.0030  -21.9170 C.3    89  LYS89       0.0298
     53  CG        -1.0040   -9.5080  -21.7630 C.3    89  LYS89       0.0038
     54  CD         0.2450  -10.0850  -21.1220 C.3    89  LYS89       0.0206
     55  CE         0.5300  -11.5020  -21.5980 C.3    89  LYS89       0.1093
     56  NZ         1.9980  -11.6200  -21.8350 N.3    89  LYS89      -0.1314
     57  N         -9.4880   -7.1180  -19.7760 N.3    94  LYS94      -0.1231
     58  CA        -9.2070   -8.4370  -19.2120 C.3    94  LYS94       0.1693
     59  C         -7.7950   -8.5800  -18.6360 C.2    94  LYS94       0.2592
     60  O         -7.6030   -9.2280  -17.6070 O.2    94  LYS94      -0.2718
     61  CB        -9.4630   -9.5320  -20.2500 C.3    94  LYS94       0.0285
     62  CG        -9.2810  -10.9450  -19.7060 C.3    94  LYS94       0.0035
     63  CD       -10.0710  -11.9840  -20.4960 C.3    94  LYS94       0.0206
     64  CE        -9.2800  -12.5240  -21.6820 C.3    94  LYS94       0.1093
     65  NZ        -9.5960  -13.9560  -21.9420 N.3    94  LYS94      -0.1314
     66  N         -6.8080   -7.9910  -19.3070 N.am   95  TYR95      -0.1976
     67  CA        -5.4230   -8.0450  -18.8430 C.3    95  TYR95       0.1639
     68  C         -4.9950   -6.7830  -18.0960 C.2    95  TYR95       0.2290
     69  O         -5.4510   -6.5310  -16.9820 O.2    95  TYR95      -0.2864
     70  CB        -4.4750   -8.4120  -19.9920 C.3    95  TYR95       0.0560
     71  CG        -4.5950   -9.8710  -20.3730 C.ar   95  TYR95      -0.0198
     72  CD1       -5.5500  -10.2900  -21.2980 C.ar   95  TYR95      -0.0009
     73  CD2       -3.9150  -10.8530  -19.6500 C.ar   95  TYR95      -0.0009
     74  CE1       -5.7670  -11.6400  -21.5460 C.ar   95  TYR95       0.0417
     75  CE2       -4.0990  -12.1990  -19.9160 C.ar   95  TYR95       0.0417
     76  CZ        -5.0300  -12.5870  -20.8610 C.ar   95  TYR95       0.1957
     77  OH        -5.2260  -13.9270  -21.1200 O.3    95  TYR95      -0.2866
     78  N          1.1350  -10.9540  -39.2800 N.3   124  LYS124     -0.1245
     79  CA         0.6620  -11.2690  -37.9370 C.3   124  LYS124      0.1561
     80  C          0.2850  -10.0050  -37.1840 C.2   124  LYS124      0.2260
     81  O         -0.5220  -10.0450  -36.2500 O.2   124  LYS124     -0.2867
     82  CB         1.7480  -12.0020  -37.1490 C.3   124  LYS124      0.0271
     83  CG         1.9470  -13.4490  -37.5740 C.3   124  LYS124      0.0035
     84  CD         3.2280  -13.9990  -36.9820 C.3   124  LYS124      0.0206
     85  CE         3.3880  -15.4840  -37.2660 C.3   124  LYS124      0.1093
     86  NZ         4.4740  -16.0390  -36.4100 N.3   124  LYS124     -0.1314
     87  N         -2.9530   -9.4560  -38.0820 N.3   127  GLU127     -0.1231
     88  CA        -3.7940  -10.4560  -37.4320 C.3   127  GLU127      0.1699
     89  C         -4.1380  -10.0240  -36.0080 C.2   127  GLU127      0.2592
     90  O         -5.2760  -10.1660  -35.5640 O.2   127  GLU127     -0.2718
     91  CB        -3.0800  -11.8050  -37.4090 C.3   127  GLU127      0.0402
     92  CG        -3.9420  -12.9650  -37.8710 C.3   127  GLU127      0.1161
     93  CD        -3.5450  -14.2810  -37.2230 C.2   127  GLU127      0.3649
     94  OE1       -2.4710  -14.8170  -37.5840 O.co2 127  GLU127     -0.2457
     95  OE2       -4.3220  -14.7910  -36.3850 O.co2 127  GLU127     -0.2457
     96  N         -3.1500   -9.4810  -35.3000 N.am  128  ALA128     -0.1980
     97  CA        -3.3960   -8.8950  -33.9890 C.3   128  ALA128      0.1597
     98  C         -4.4620   -7.8120  -34.1010 C.2   128  ALA128      0.2287
     99  O         -5.4790   -7.8570  -33.4050 O.2   128  ALA128     -0.2864
    100  CB        -2.1150   -8.3210  -33.4110 C.3   128  ALA128      0.0319
    101  N         -6.7550   -7.0640  -36.4790 N.3   130  GLN130     -0.1231
    102  CA        -8.0960   -7.4680  -36.8870 C.3   130  GLN130      0.1698
    103  C         -8.8570   -8.0510  -35.6980 C.2   130  GLN130      0.2592
    104  O        -10.0730   -7.8860  -35.5810 O.2   130  GLN130     -0.2718
    105  CB        -8.0580   -8.4490  -38.0690 C.3   130  GLN130      0.0381
    106  CG        -7.2470   -9.7230  -37.8360 C.3   130  GLN130      0.0905
    107  CD        -8.0740  -11.0070  -37.9130 C.2   130  GLN130      0.2608
    108  OE1       -8.3910  -11.4920  -39.0020 O.2   130  GLN130     -0.2717
    109  NE2       -8.3460  -11.6100  -36.7580 N.am  130  GLN130     -0.0878
    110  N         -8.1230   -8.6780  -34.7850 N.am  131  MET131     -0.1979
    111  CA        -8.7310   -9.4500  -33.7100 C.3   131  MET131      0.1605
    112  C         -9.1190   -8.5560  -32.5310 C.2   131  MET131      0.2287
    113  O        -10.0370   -8.8780  -31.7750 O.2   131  MET131     -0.2864
    114  CB        -7.7810  -10.5770  -33.2750 C.3   131  MET131      0.0413
    115  CG        -8.2160  -11.3110  -31.9830 C.3   131  MET131      0.0598
    116  SD        -6.9580  -11.1170  -30.6650 S.3   131  MET131     -0.1393
    117  CE        -7.8510   -9.7270  -29.6570 C.3   131  MET131      0.0692
    118  N        -13.1420   -7.1350  -31.4510 N.3   135  GLN135     -0.1245
    119  CA       -13.6070   -7.0850  -30.0690 C.3   135  GLN135      0.1566
    120  C        -14.1290   -5.7120  -29.6620 C.2   135  GLN135      0.2260
    121  O        -14.6760   -5.5480  -28.5710 O.2   135  GLN135     -0.2867
    122  CB       -12.5040   -7.5490  -29.1160 C.3   135  GLN135      0.0367
    123  CG       -11.9010   -8.8880  -29.5120 C.3   135  GLN135      0.0905
    124  CD       -11.5360   -9.7440  -28.2970 C.2   135  GLN135      0.2608
    125  OE1      -12.3730  -10.5250  -27.7950 O.2   135  GLN135     -0.2717
    126  NE2      -10.2970   -9.5720  -27.7920 N.am  135  GLN135     -0.0878
@<TRIPOS>BOND
     1    78    79    1
     2   108   107    2
     3    87    88    1
     4   105   106    1
     5   105   102    1
     6    79    80    1
     7    79    82    1
     8   107   106    1
     9   107   109   am
    10    92    91    1
    11    92    93    1
    12    94    93   ar
    13    83    82    1
    14    83    84    1
    15    88    91    1
    16    88    89    1
    17    85    84    1
    18    85    86    1
    19    93    95   ar
    20    80    81    2
    21   102   101    1
    22   102   103    1
    23    89    90    2
    24    89    96   am
    25   103   104    2
    26   103   110   am
    27    96    97    1
    28     8     9    1
    29     8     7    1
    30    20    19   ar
    31    20    18   ar
    32   110   111    1
    33    19    17   ar
    34     1     2    1
    35     6     7    1
    36     6     5    1
    37    98    97    1
    38    98    99    2
    39    18    16   ar
    40    97   100    1
    41     2     5    1
    42     2     3    1
    43   111   114    1
    44   111   112    1
    45    17    15   ar
    46   114   115    1
    47    16    15   ar
    48     3    10   am
    49     3     4    2
    50    15    14    1
    51   112   113    2
    52    10    11    1
    53   115   116    1
    54    14    11    1
    55   118   119    1
    56    11    12    1
    57   116   117    1
    58   119   120    1
    59   119   122    1
    60    12    21   am
    61    12    13    2
    62    21    22    1
    63   120   121    2
    64    30    29    1
    65   123   122    1
    66   123   124    1
    67    25    22    1
    68    25    26    1
    69    47    45    1
    70    29    28    2
    71    29    31    1
    72    27    28    1
    73    27    26    1
    74    22    23    1
    75    38    37    2
    76    45    44    1
    77    32    33    1
    78   124   125    2
    79   124   126   am
    80    23    24    2
    81    37    39   am
    82    37    36    1
    83    33    36    1
    84    33    34    1
    85    44    46    1
    86    44    41    1
    87    40    41    1
    88    41    42    1
    89    34    35    2
    90    42    43    2
    91    42    48   am
    92    48    49    1
    93    49    50    1
    94    49    52    1
    95    50    51    2
    96    65    64    1
    97    52    53    1
    98    56    55    1
    99    53    54    1
   100    64    63    1
   101    55    54    1
   102    74    72   ar
   103    74    76   ar
   104    72    71   ar
   105    77    76    1
   106    76    75   ar
   107    63    62    1
   108    71    70    1
   109    71    73   ar
   110    61    62    1
   111    61    58    1
   112    70    67    1
   113    75    73   ar
   114    57    58    1
   115    66    67    1
   116    66    59   am
   117    58    59    1
   118    67    68    1
   119    59    60    2
   120    68    69    2
