@<TRIPOS>MOLECULE
tmp/3g2yB00.pdb
 96 89 0 0 0
SMALL
GASTEIGER

@<TRIPOS>ATOM
      1  N         31.1150   85.8470   -7.6330 N.3    43  SER43      -0.1217
      2  CA        31.5450   86.0390   -9.0260 C.3    43  SER43       0.1889
      3  C         32.9290   85.5020   -9.3800 C.2    43  SER43       0.2288
      4  O         33.2800   85.4630  -10.5570 O.2    43  SER43      -0.2866
      5  CB        31.4230   87.4960   -9.4650 C.3    43  SER43       0.2089
      6  OG        30.1080   87.7500   -9.9200 O.3    43  SER43      -0.2183
      7  N         20.2020   90.3420  -12.6350 N.3    77  ASN77      -0.1225
      8  CA        20.3100   91.5060  -11.7570 C.3    77  ASN77       0.1785
      9  C         21.4660   92.4520  -12.0530 C.2    77  ASN77       0.2597
     10  O         21.5490   93.5220  -11.4600 O.2    77  ASN77      -0.2718
     11  CB        20.3830   91.0570  -10.2960 C.3    77  ASN77       0.1169
     12  CG        21.6140   90.2210  -10.0050 C.2    77  ASN77       0.2627
     13  OD1       22.0830   89.4710  -10.8600 O.2    77  ASN77      -0.2716
     14  ND2       22.1470   90.3510   -8.8000 N.am   77  ASN77      -0.0877
     15  N         22.3690   92.0540  -12.9430 N.am   78  TYR78      -0.1976
     16  CA        23.5200   92.8880  -13.2750 C.3    78  TYR78       0.1639
     17  C         24.0400   92.5120  -14.6470 C.2    78  TYR78       0.2290
     18  O         24.7260   91.5060  -14.8170 O.2    78  TYR78      -0.2864
     19  CB        24.6290   92.7630  -12.2280 C.3    78  TYR78       0.0560
     20  CG        25.7410   93.7610  -12.4320 C.ar   78  TYR78      -0.0198
     21  CD1       27.0310   93.3460  -12.7790 C.ar   78  TYR78      -0.0009
     22  CD2       25.4990   95.1270  -12.2920 C.ar   78  TYR78      -0.0009
     23  CE1       28.0520   94.2780  -12.9780 C.ar   78  TYR78       0.0417
     24  CE2       26.5020   96.0560  -12.4810 C.ar   78  TYR78       0.0417
     25  CZ        27.7720   95.6310  -12.8230 C.ar   78  TYR78       0.1957
     26  OH        28.7490   96.5770  -13.0060 O.3    78  TYR78      -0.2866
     27  N         31.9650   91.3940  -14.9080 N.3   103  SER103     -0.1217
     28  CA        31.1640   90.6030  -13.9670 C.3   103  SER103      0.1889
     29  C         29.6830   90.5440  -14.3830 C.2   103  SER103      0.2288
     30  O         28.7870   90.5050  -13.5410 O.2   103  SER103     -0.2866
     31  CB        31.3300   91.1000  -12.5210 C.3   103  SER103      0.2089
     32  OG        31.3250   90.0070  -11.6180 O.3   103  SER103     -0.2183
     33  N         26.3170   89.1280  -15.1840 N.3   105  ASN105     -0.1240
     34  CA        25.6450   87.9260  -14.7000 C.3   105  ASN105      0.1653
     35  C         24.8450   87.2020  -15.7680 C.2   105  ASN105      0.2266
     36  O         24.7350   85.9830  -15.7240 O.2   105  ASN105     -0.2867
     37  CB        24.7520   88.2580  -13.4980 C.3   105  ASN105      0.1155
     38  CG        25.5420   88.4080  -12.2100 C.2   105  ASN105      0.2627
     39  OD1       26.7280   88.0860  -12.1600 O.2   105  ASN105     -0.2716
     40  ND2       24.8870   88.8960  -11.1560 N.am  105  ASN105     -0.0877
     41  N         24.9600   83.5530   -5.0830 N.3   143  ASN143     -0.1240
     42  CA        25.5430   84.5580   -4.1860 C.3   143  ASN143      0.1653
     43  C         24.9270   84.6610   -2.7970 C.2   143  ASN143      0.2266
     44  O         25.2320   85.6010   -2.0600 O.2   143  ASN143     -0.2867
     45  CB        25.4900   85.9450   -4.8300 C.3   143  ASN143      0.1155
     46  CG        26.2010   85.9940   -6.1470 C.2   143  ASN143      0.2627
     47  OD1       27.4250   85.9240   -6.2030 O.2   143  ASN143     -0.2716
     48  ND2       25.4390   86.1100   -7.2230 N.am  143  ASN143     -0.0877
     49  N         37.1910   95.6750  -12.7990 N.3   189  THR189     -0.1218
     50  CA        36.5870   95.7830  -11.4700 C.3   189  THR189      0.1862
     51  C         37.5480   95.6500  -10.2980 C.2   189  THR189      0.2287
     52  O         37.0970   95.6770   -9.1490 O.2   189  THR189     -0.2866
     53  CB        35.4880   94.7160  -11.2580 C.3   189  THR189      0.1770
     54  OG1       36.0930   93.4180  -11.1930 O.3   189  THR189     -0.2211
     55  CG2       34.4570   94.7500  -12.3810 C.3   189  THR189      0.0375
     56  N         39.9540   88.4390  -10.8140 N.3   207  LYS207     -0.1231
     57  CA        38.4960   88.4120  -10.8730 C.3   207  LYS207      0.1693
     58  C         37.9540   88.6260   -9.4690 C.2   207  LYS207      0.2593
     59  O         38.2440   87.8470   -8.5560 O.2   207  LYS207     -0.2718
     60  CB        37.9660   87.0800  -11.4120 C.3   207  LYS207      0.0285
     61  CG        36.4250   87.0240  -11.4760 C.3   207  LYS207      0.0035
     62  CD        35.8730   87.8810  -12.6230 C.3   207  LYS207      0.0206
     63  CE        34.3720   88.1410  -12.5140 C.3   207  LYS207      0.1093
     64  NZ        34.0580   89.2190  -11.5170 N.3   207  LYS207     -0.1314
     65  N         37.1460   89.6710   -9.3160 N.am  208  THR208     -0.1939
     66  CA        36.4980   89.9950   -8.0570 C.3   208  THR208      0.2028
     67  C         35.1960   89.2100   -7.8920 C.2   208  THR208      0.2643
     68  O         34.6720   88.6260   -8.8460 O.2   208  THR208     -0.2714
     69  CB        36.1680   91.4970   -8.0010 C.3   208  THR208      0.1808
     70  OG1       35.3980   91.8380   -9.1630 O.3   208  THR208     -0.2208
     71  CG2       37.4490   92.3450   -7.9430 C.3   208  THR208      0.0379
     72  N         34.6810   89.1940   -6.6700 N.am  209  GLY209     -0.1939
     73  CA        33.3340   88.6930   -6.4320 C.3   209  GLY209      0.2014
     74  C         32.7330   89.3150   -5.1980 C.2   209  GLY209      0.2640
     75  O         33.4540   89.7370   -4.2990 O.2   209  GLY209     -0.2714
     76  N         31.4100   89.3950   -5.1540 N.am  210  SER210     -0.1935
     77  CA        30.7450   89.8050   -3.9280 C.3   210  SER210      0.2055
     78  C         29.3620   89.1940   -3.8700 C.2   210  SER210      0.2643
     79  O         28.8350   88.7270   -4.8790 O.2   210  SER210     -0.2714
     80  CB        30.6850   91.3300   -3.7780 C.3   210  SER210      0.2130
     81  OG        29.7630   91.9030   -4.6740 O.3   210  SER210     -0.2179
     82  N         28.7880   89.1920   -2.6720 N.am  211  GLY211     -0.1954
     83  CA        27.4690   88.6160   -2.4640 C.3   211  GLY211      0.1869
     84  C         26.9100   88.9760   -1.1090 C.2   211  GLY211      0.2309
     85  O         27.3760   89.9140   -0.4570 O.2   211  GLY211     -0.2863
     86  N         36.2180   95.6890    0.3340 N.3   247  ARG247     -0.1245
     87  CA        37.3340   95.4620   -0.5790 C.3   247  ARG247      0.1563
     88  C         38.6670   95.8860    0.0400 C.2   247  ARG247      0.2260
     89  O         39.7140   95.3260   -0.2870 O.2   247  ARG247     -0.2867
     90  CB        37.0880   96.1390   -1.9300 C.3   247  ARG247      0.0307
     91  CG        35.9150   95.5170   -2.6970 C.3   247  ARG247      0.0489
     92  CD        35.6850   96.1810   -4.0360 C.3   247  ARG247      0.2205
     93  NE        35.2740   97.5740   -3.8800 N.pl3 247  ARG247     -0.0865
     94  CZ        34.9680   98.3840   -4.8880 C.cat 247  ARG247      0.5346
     95  NH1       35.0230   97.9510   -6.1370 N.pl3 247  ARG247      0.1354
     96  NH2       34.6130   99.6350   -4.6440 N.pl3 247  ARG247      0.1354
@<TRIPOS>BOND
     1    35    36    2
     2    35    34    1
     3    33    34    1
     4    27    28    1
     5    18    17    2
     6    34    37    1
     7    17    16    1
     8    29    28    1
     9    29    30    2
    10    28    31    1
    11    37    38    1
    12    16    15    1
    13    16    19    1
    14    26    25    1
    15    23    25   ar
    16    23    21   ar
    17    15     9   am
    18    25    24   ar
    19    49    50    1
    20    21    20   ar
    21     7     8    1
    22    62    63    1
    23    62    61    1
    24    31    32    1
    25    63    64    1
    26    24    22   ar
    27    20    22   ar
    28    20    19    1
    29    55    53    1
    30    38    39    2
    31    38    40   am
    32     9     8    1
    33     9    10    2
    34     8    11    1
    35    61    60    1
    36    50    53    1
    37    50    51    1
    38    60    57    1
    39    53    54    1
    40    57    56    1
    41    57    58    1
    42    13    12    2
    43     4     3    2
    44    51    52    2
    45    11    12    1
    46    12    14   am
    47     6     5    1
    48    58    65   am
    49    58    59    2
    50     5     2    1
    51     3     2    1
    52    65    66    1
    53    70    69    1
    54     2     1    1
    55    68    67    2
    56    66    69    1
    57    66    67    1
    58    69    71    1
    59    67    72   am
    60    48    46   am
    61    72    73    1
    62    73    74    1
    63    47    46    2
    64    46    45    1
    65    95    94    1
    66    74    76   am
    67    74    75    2
    68    76    77    1
    69    41    42    1
    70    94    96    1
    71    94    93    2
    72    79    78    2
    73    45    42    1
    74    81    80    1
    75    42    43    1
    76    92    93    1
    77    92    91    1
    78    77    78    1
    79    77    80    1
    80    78    82   am
    81    43    44    2
    82    91    90    1
    83    82    83    1
    84    83    84    1
    85    90    87    1
    86    84    85    2
    87    87    88    1
    88    87    86    1
    89    89    88    2
