@<TRIPOS>MOLECULE
tmp/3g2zB00.pdb
 75 69 0 0 0
SMALL
GASTEIGER

@<TRIPOS>ATOM
      1  N         31.1840   86.1340   -7.5740 N.3    43  SER43      -0.1217
      2  CA        31.6280   86.2610   -8.9710 C.3    43  SER43       0.1889
      3  C         33.0160   85.7160   -9.2950 C.2    43  SER43       0.2288
      4  O         33.3670   85.6360  -10.4770 O.2    43  SER43      -0.2866
      5  CB        31.5130   87.6930   -9.4660 C.3    43  SER43       0.2089
      6  OG        30.1880   87.9390   -9.8870 O.3    43  SER43      -0.2183
      7  N         20.4110   90.6300  -12.1280 N.3    77  ASN77      -0.1225
      8  CA        20.5730   91.8040  -11.2750 C.3    77  ASN77       0.1785
      9  C         21.7470   92.7310  -11.5960 C.2    77  ASN77       0.2597
     10  O         21.8900   93.7790  -10.9630 O.2    77  ASN77      -0.2718
     11  CB        20.7160   91.3550   -9.8250 C.3    77  ASN77       0.1169
     12  CG        21.9230   90.4730   -9.6170 C.2    77  ASN77       0.2627
     13  OD1       22.3000   89.6950  -10.5000 O.2    77  ASN77      -0.2716
     14  ND2       22.5350   90.5820   -8.4460 N.am   77  ASN77      -0.0877
     15  N         22.6090   92.3420  -12.5290 N.am   78  TYR78      -0.1976
     16  CA        23.8040   93.1280  -12.8170 C.3    78  TYR78       0.1639
     17  C         24.2990   92.7590  -14.2020 C.2    78  TYR78       0.2290
     18  O         24.9760   91.7430  -14.3790 O.2    78  TYR78      -0.2864
     19  CB        24.9040   92.8930  -11.7600 C.3    78  TYR78       0.0560
     20  CG        26.0430   93.8660  -11.9150 C.ar   78  TYR78      -0.0198
     21  CD1       27.2470   93.4780  -12.4940 C.ar   78  TYR78      -0.0009
     22  CD2       25.8950   95.1890  -11.5250 C.ar   78  TYR78      -0.0009
     23  CE1       28.2930   94.3910  -12.6710 C.ar   78  TYR78       0.0417
     24  CE2       26.9180   96.1010  -11.6900 C.ar   78  TYR78       0.0417
     25  CZ        28.1180   95.7070  -12.2600 C.ar   78  TYR78       0.1957
     26  OH        29.1230   96.6540  -12.4240 O.3    78  TYR78      -0.2866
     27  N         32.1360   91.6100  -14.7860 N.3   103  SER103     -0.1217
     28  CA        31.3630   90.8640  -13.7800 C.3   103  SER103      0.1889
     29  C         29.8700   90.8030  -14.1350 C.2   103  SER103      0.2288
     30  O         29.0030   90.8050  -13.2610 O.2   103  SER103     -0.2866
     31  CB        31.5940   91.4240  -12.3660 C.3   103  SER103      0.2089
     32  OG        31.6950   90.3540  -11.4340 O.3   103  SER103     -0.2183
     33  N         26.4530   89.3790  -14.8720 N.3   105  ASN105     -0.1240
     34  CA        25.7740   88.1720  -14.3860 C.3   105  ASN105      0.1653
     35  C         24.9510   87.4640  -15.4480 C.2   105  ASN105      0.2266
     36  O         24.7970   86.2500  -15.3910 O.2   105  ASN105     -0.2867
     37  CB        24.8990   88.4800  -13.1610 C.3   105  ASN105      0.1155
     38  CG        25.7140   88.6780  -11.8930 C.2   105  ASN105      0.2627
     39  OD1       26.8990   88.3280  -11.8330 O.2   105  ASN105     -0.2716
     40  ND2       25.0810   89.2370  -10.8630 N.am  105  ASN105     -0.0877
     41  N         37.2540   95.8530  -12.7360 N.3   189  THR189     -0.1218
     42  CA        36.6630   95.9560  -11.3950 C.3   189  THR189      0.1862
     43  C         37.6340   95.8550  -10.2130 C.2   189  THR189      0.2287
     44  O         37.1910   95.8550   -9.0590 O.2   189  THR189     -0.2866
     45  CB        35.5980   94.8670  -11.1910 C.3   189  THR189      0.1770
     46  OG1       36.2630   93.5990  -11.1160 O.3   189  THR189     -0.2211
     47  CG2       34.5720   94.8760  -12.3410 C.3   189  THR189      0.0375
     48  N         37.2230   89.8590   -9.2220 N.3   208  THR208     -0.1203
     49  CA        36.5700   90.1830   -7.9550 C.3   208  THR208      0.1994
     50  C         35.2550   89.4160   -7.8060 C.2   208  THR208      0.2618
     51  O         34.7390   88.8410   -8.7610 O.2   208  THR208     -0.2717
     52  CB        36.2440   91.6830   -7.8840 C.3   208  THR208      0.1784
     53  OG1       35.4480   92.0250   -9.0270 O.3   208  THR208     -0.2211
     54  CG2       37.5220   92.5310   -7.8820 C.3   208  THR208      0.0376
     55  N         34.6950   89.4430   -6.6030 N.am  209  GLY209     -0.1942
     56  CA        33.3190   88.9860   -6.3950 C.3   209  GLY209      0.2014
     57  C         32.7540   89.6070   -5.1400 C.2   209  GLY209      0.2639
     58  O         33.4970   90.0140   -4.2490 O.2   209  GLY209     -0.2714
     59  N         31.4300   89.6960   -5.0620 N.am  210  SER210     -0.1949
     60  CA        30.7980   90.0960   -3.8110 C.3   210  SER210      0.1924
     61  C         29.4130   89.5000   -3.7510 C.2   210  SER210      0.2314
     62  O         28.8720   89.0680   -4.7670 O.2   210  SER210     -0.2863
     63  CB        30.7380   91.6200   -3.6500 C.3   210  SER210      0.2116
     64  OG        29.8760   92.2100   -4.5970 O.3   210  SER210     -0.2180
     65  N         36.3290   95.9070    0.3080 N.3   247  ARG247     -0.1245
     66  CA        37.4570   95.6930   -0.6010 C.3   247  ARG247      0.1563
     67  C         38.7850   96.0900    0.0400 C.2   247  ARG247      0.2260
     68  O         39.8260   95.5190   -0.2860 O.2   247  ARG247     -0.2867
     69  CB        37.2420   96.4040   -1.9450 C.3   247  ARG247      0.0307
     70  CG        36.0330   95.8430   -2.7150 C.3   247  ARG247      0.0489
     71  CD        35.7580   96.5380   -4.0400 C.3   247  ARG247      0.2205
     72  NE        35.6100   97.9810   -3.8850 N.pl3 247  ARG247     -0.0865
     73  CZ        35.3380   98.8160   -4.8810 C.cat 247  ARG247      0.5346
     74  NH1       35.1480   98.3540   -6.1160 N.pl3 247  ARG247      0.1354
     75  NH2       35.2540  100.1190   -4.6410 N.pl3 247  ARG247      0.1354
@<TRIPOS>BOND
     1    35    36    2
     2    35    34    1
     3    33    34    1
     4    27    28    1
     5    34    37    1
     6    18    17    2
     7    17    16    1
     8    29    28    1
     9    29    30    2
    10    28    31    1
    11    37    38    1
    12    16    15    1
    13    16    19    1
    14    41    42    1
    15    23    21   ar
    16    23    25   ar
    17    15     9   am
    18    21    20   ar
    19    26    25    1
    20    31    32    1
    21    47    45    1
    22    25    24   ar
    23     7     8    1
    24    20    19    1
    25    20    22   ar
    26    38    39    2
    27    38    40   am
    28    24    22   ar
    29     9     8    1
    30     9    10    2
    31    42    45    1
    32    42    43    1
    33     8    11    1
    34    45    46    1
    35    13    12    2
    36     4     3    2
    37    43    44    2
    38     6     5    1
    39    11    12    1
    40    12    14   am
    41     5     2    1
    42     3     2    1
    43    48    49    1
    44    53    52    1
    45     2     1    1
    46    51    50    2
    47    49    52    1
    48    49    50    1
    49    52    54    1
    50    50    55   am
    51    55    56    1
    52    56    57    1
    53    74    73    1
    54    57    59   am
    55    57    58    2
    56    59    60    1
    57    73    75    1
    58    73    72    2
    59    62    61    2
    60    64    63    1
    61    71    72    1
    62    71    70    1
    63    60    61    1
    64    60    63    1
    65    70    69    1
    66    69    66    1
    67    66    67    1
    68    66    65    1
    69    68    67    2
