@<TRIPOS>MOLECULE
tmp/3g30A00.pdb
 100 95 0 0 0
SMALL
GASTEIGER

@<TRIPOS>ATOM
      1  N         21.4710   36.1610   97.1830 N.3    44  SER44      -0.1217
      2  CA        20.1130   36.6730   97.4780 C.3    44  SER44       0.1889
      3  C         19.0110   35.6270   97.4650 C.2    44  SER44       0.2288
      4  O         17.8750   35.9570   97.8190 O.2    44  SER44      -0.2866
      5  CB        19.7070   37.8870   96.6140 C.3    44  SER44       0.2089
      6  OG        20.4130   39.0480   97.0850 O.3    44  SER44      -0.2183
      7  N         24.6820   48.1760  100.6080 N.3    78  ASN78      -0.1225
      8  CA        25.2680   48.4180   99.2630 C.3    78  ASN78       0.1785
      9  C         24.2470   48.5250   98.1330 C.2    78  ASN78       0.2597
     10  O         24.5610   49.0150   97.0480 O.2    78  ASN78      -0.2718
     11  CB        26.2810   47.3140   98.9250 C.3    78  ASN78       0.1169
     12  CG        25.6210   45.9440   98.7870 C.2    78  ASN78       0.2627
     13  OD1       24.7400   45.5800   99.5840 O.2    78  ASN78      -0.2716
     14  ND2       26.0480   45.1740   97.7790 N.am   78  ASN78      -0.0877
     15  N         23.0240   48.0430   98.3450 N.am   79  TYR79      -0.1976
     16  CA        22.0480   47.9330   97.2820 C.3    79  TYR79       0.1639
     17  C         20.6290   47.9700   97.8460 C.2    79  TYR79       0.2290
     18  O         20.0710   46.9520   98.3280 O.2    79  TYR79      -0.2864
     19  CB        22.2670   46.6770   96.3970 C.3    79  TYR79       0.0560
     20  CG        21.3220   46.6430   95.2100 C.ar   79  TYR79      -0.0198
     21  CD1       20.2620   45.7470   95.1630 C.ar   79  TYR79      -0.0009
     22  CD2       21.4610   47.5490   94.1570 C.ar   79  TYR79      -0.0009
     23  CE1       19.3750   45.7260   94.0760 C.ar   79  TYR79       0.0417
     24  CE2       20.5750   47.5420   93.0590 C.ar   79  TYR79       0.0417
     25  CZ        19.5290   46.6350   93.0350 C.ar   79  TYR79       0.1957
     26  OH        18.6560   46.6080   91.9580 O.3    79  TYR79      -0.2866
     27  N         15.3410   42.4850   95.1460 N.3   104  SER104     -0.1217
     28  CA        16.5600   42.0070   95.7870 C.3   104  SER104      0.1889
     29  C         17.2380   43.0600   96.6980 C.2   104  SER104      0.2288
     30  O         18.4630   43.1840   96.7300 O.2   104  SER104     -0.2866
     31  CB        17.5420   41.4650   94.7250 C.3   104  SER104      0.2089
     32  OG        18.3620   40.4730   95.3310 O.3   104  SER104     -0.2183
     33  N         18.8330   44.7140   99.7220 N.3   106  ASN106     -0.1240
     34  CA        19.6460   44.1790  100.8150 C.3   106  ASN106      0.1653
     35  C         19.3200   44.7890  102.1700 C.2   106  ASN106      0.2266
     36  O         19.4670   44.1330  103.2050 O.2   106  ASN106     -0.2867
     37  CB        21.1420   44.3310  100.5040 C.3   106  ASN106      0.1155
     38  CG        21.6180   43.3630   99.4280 C.2   106  ASN106      0.2627
     39  OD1       20.9040   42.3980   99.0630 O.2   106  ASN106     -0.2716
     40  ND2       22.8550   43.5950   98.9230 N.am  106  ASN106     -0.0877
     41  N         25.8780   43.0980  103.3610 N.3   141  PRO141     -0.2116
     42  CA        26.1490   42.4310  102.1070 C.3   141  PRO141      0.1372
     43  C         27.2070   41.2920  102.2370 C.2   141  PRO141      0.2244
     44  O         27.4650   40.6040  101.2370 O.2   141  PRO141     -0.2868
     45  CB        26.7120   43.5760  101.2470 C.3   141  PRO141      0.0268
     46  CG        27.5780   44.3270  102.1890 C.3   141  PRO141      0.0207
     47  CD        26.8510   44.1940  103.5880 C.3   141  PRO141      0.0892
     48  N         27.4600   37.5420  100.7100 N.3   144  ASN144     -0.1225
     49  CA        27.6460   37.3420   99.2590 C.3   144  ASN144      0.1785
     50  C         29.1050   37.1750   98.8390 C.2   144  ASN144      0.2597
     51  O         29.3950   37.1930   97.6460 O.2   144  ASN144     -0.2718
     52  CB        27.1060   38.5640   98.5140 C.3   144  ASN144      0.1169
     53  CG        25.6420   38.7380   98.6990 C.2   144  ASN144      0.2627
     54  OD1       24.8660   37.8770   98.3190 O.2   144  ASN144     -0.2716
     55  ND2       25.2490   39.8520   99.3090 N.am  144  ASN144     -0.0877
     56  N         30.0140   37.0210   99.8040 N.am  145  THR145     -0.1953
     57  CA        31.4590   36.8920   99.5080 C.3   145  THR145      0.1897
     58  C         31.7730   35.6590   98.6900 C.2   145  THR145      0.2313
     59  O         32.7480   35.6830   97.8980 O.2   145  THR145     -0.2863
     60  CB        32.3180   36.8520  100.7620 C.3   145  THR145      0.1794
     61  OG1       31.8240   35.8730  101.6590 O.3   145  THR145     -0.2208
     62  CG2       32.3380   38.2110  101.4300 C.3   145  THR145      0.0378
     63  N         13.4210   33.7840   92.4940 N.3   208  LYS208     -0.1231
     64  CA        14.2720   34.7070   93.1950 C.3   208  LYS208      0.1693
     65  C         15.6830   34.4310   92.6860 C.2   208  LYS208      0.2593
     66  O         16.1530   33.3130   92.7390 O.2   208  LYS208     -0.2718
     67  CB        14.2570   34.4240   94.6840 C.3   208  LYS208      0.0285
     68  CG        15.2030   35.2950   95.4750 C.3   208  LYS208      0.0035
     69  CD        14.7330   36.7800   95.5040 C.3   208  LYS208      0.0206
     70  CE        15.8080   37.7800   95.9660 C.3   208  LYS208      0.1093
     71  NZ        16.6650   38.2160   94.7780 N.3   208  LYS208     -0.1314
     72  N         16.3280   35.4860   92.2120 N.am  209  THR209     -0.1939
     73  CA        17.7230   35.4260   91.7340 C.3   209  THR209      0.2028
     74  C         18.6940   35.7270   92.8630 C.2   209  THR209      0.2643
     75  O         18.3090   36.1510   93.9590 O.2   209  THR209     -0.2714
     76  CB        17.9900   36.5060   90.6550 C.3   209  THR209      0.1808
     77  OG1       17.6890   37.8220   91.1910 O.3   209  THR209     -0.2208
     78  CG2       17.1730   36.2130   89.4030 C.3   209  THR209      0.0379
     79  N         19.9850   35.5260   92.5780 N.am  210  GLY210     -0.1939
     80  CA        20.9980   36.0280   93.4910 C.3   210  GLY210      0.2014
     81  C         22.3240   36.1300   92.7600 C.2   210  GLY210      0.2640
     82  O         22.6290   35.3610   91.8270 O.2   210  GLY210     -0.2714
     83  N         23.0930   37.1300   93.1340 N.am  211  SER211     -0.1935
     84  CA        24.4230   37.2850   92.5700 C.3   211  SER211      0.2055
     85  C         25.4070   37.6360   93.6880 C.2   211  SER211      0.2644
     86  O         25.0100   38.1360   94.7630 O.2   211  SER211     -0.2714
     87  CB        24.4010   38.3710   91.4960 C.3   211  SER211      0.2130
     88  OG        24.1770   39.6280   92.0960 O.3   211  SER211     -0.2179
     89  N         26.6890   37.3340   93.4710 N.am  212  GLY212     -0.1939
     90  CA        27.7100   37.6380   94.4790 C.3   212  GLY212      0.2014
     91  C         29.1010   37.6510   93.8590 C.2   212  GLY212      0.2638
     92  O         29.2380   37.6410   92.6470 O.2   212  GLY212     -0.2714
     93  N         30.1180   37.6630   94.7060 N.am  213  ASP213     -0.1971
     94  CA        31.4910   37.6220   94.2140 C.3   213  ASP213      0.1709
     95  C         31.7550   36.2340   93.5900 C.2   213  ASP213      0.2293
     96  O         30.8520   35.3520   93.5950 O.2   213  ASP213     -0.2864
     97  CB        32.4130   37.9160   95.3900 C.3   213  ASP213      0.1436
     98  CG        32.4540   39.4160   95.7450 C.2   213  ASP213      0.3671
     99  OD1       31.8620   40.2600   95.0130 O.co2 213  ASP213     -0.2456
    100  OD2       33.0880   39.7310   96.7690 O.co2 213  ASP213     -0.2456
@<TRIPOS>BOND
     1    78    76    1
     2    76    77    1
     3    76    73    1
     4    87    88    1
     5    87    84    1
     6    73    72    1
     7    73    74    1
     8    82    81    2
     9    26    25    1
    10    72    65   am
    11    63    64    1
    12    84    83    1
    13    84    85    1
    14    79    74   am
    15    79    80    1
    16    92    91    2
    17    65    66    2
    18    65    64    1
    19    81    83   am
    20    81    80    1
    21    74    75    2
    22    25    24   ar
    23    25    23   ar
    24    24    22   ar
    25    64    67    1
    26    89    85   am
    27    89    90    1
    28    95    96    2
    29    95    94    1
    30    85    86    2
    31    91    90    1
    32    91    93   am
    33    23    21   ar
    34    22    20   ar
    35    94    93    1
    36    94    97    1
    37    67    68    1
    38    31    32    1
    39    31    28    1
    40    71    70    1
    41    99    98   ar
    42    27    28    1
    43    21    20   ar
    44    20    19    1
    45    97    98    1
    46    68    69    1
    47    69    70    1
    48    98   100   ar
    49    28    29    1
    50    19    16    1
    51     5     6    1
    52     5     2    1
    53    29    30    2
    54    10     9    2
    55     1     2    1
    56    16    17    1
    57    16    15    1
    58     3     2    1
    59     3     4    2
    60    51    50    2
    61    14    12   am
    62    17    18    2
    63    59    58    2
    64     9    15   am
    65     9     8    1
    66    54    53    2
    67    52    53    1
    68    52    49    1
    69    58    57    1
    70    53    55   am
    71    12    11    1
    72    12    13    2
    73    50    49    1
    74    50    56   am
    75    40    38   am
    76    11     8    1
    77    39    38    2
    78    49    48    1
    79     8     7    1
    80    38    37    1
    81    57    56    1
    82    57    60    1
    83    33    34    1
    84    37    34    1
    85    60    62    1
    86    60    61    1
    87    34    35    1
    88    44    43    2
    89    45    42    1
    90    45    46    1
    91    42    43    1
    92    42    41    1
    93    35    36    2
    94    46    47    1
    95    41    47    1
