@<TRIPOS>MOLECULE
tmp/3g31A02.pdb
 78 73 0 0 0
SMALL
GASTEIGER

@<TRIPOS>ATOM
      1  N         -2.4990   58.3040   15.1300 N.3    44  SER44      -0.1217
      2  CA        -2.0570   57.4290   16.2430 C.3    44  SER44       0.1889
      3  C         -0.6690   57.7090   16.8130 C.2    44  SER44       0.2288
      4  O         -0.3150   57.1680   17.8760 O.2    44  SER44      -0.2866
      5  CB        -2.1630   55.9410   15.8960 C.3    44  SER44       0.2089
      6  OG        -3.5190   55.5220   16.0330 O.3    44  SER44      -0.2183
      7  N        -13.3780   52.0210   16.7240 N.3    78  ASN78      -0.1225
      8  CA       -13.2410   51.5430   15.3430 C.3    78  ASN78       0.1785
      9  C        -12.0510   50.6140   15.0770 C.2    78  ASN78       0.2597
     10  O        -11.8660   50.1810   13.9440 O.2    78  ASN78      -0.2718
     11  CB       -13.1720   52.7300   14.3900 C.3    78  ASN78       0.1169
     12  CG       -11.9180   53.5520   14.5910 C.2    78  ASN78       0.2627
     13  OD1      -11.4440   53.7020   15.7190 O.2    78  ASN78      -0.2716
     14  ND2      -11.3890   54.1030   13.5130 N.am   78  ASN78      -0.0877
     15  N        -11.2500   50.3350   16.1020 N.am   79  TYR79      -0.1976
     16  CA       -10.0590   49.5030   15.9320 C.3    79  TYR79       0.1639
     17  C         -9.5610   49.0820   17.3050 C.2    79  TYR79       0.2290
     18  O         -8.8580   49.8440   18.0050 O.2    79  TYR79      -0.2864
     19  CB        -8.9580   50.2450   15.1600 C.3    79  TYR79       0.0560
     20  CG        -7.8400   49.3070   14.7770 C.ar   79  TYR79      -0.0198
     21  CD1       -6.6180   49.3260   15.4510 C.ar   79  TYR79      -0.0009
     22  CD2       -8.0320   48.3480   13.7810 C.ar   79  TYR79      -0.0009
     23  CE1       -5.5910   48.4410   15.1170 C.ar   79  TYR79       0.0417
     24  CE2       -7.0130   47.4520   13.4360 C.ar   79  TYR79       0.0417
     25  CZ        -5.7990   47.5060   14.1090 C.ar   79  TYR79       0.1957
     26  OH        -4.8160   46.6040   13.7520 O.3    79  TYR79      -0.2866
     27  N         -1.7750   49.6620   18.3160 N.3   104  SER104     -0.1217
     28  CA        -2.4980   50.8800   17.9060 C.3   104  SER104      0.1889
     29  C         -3.9920   50.7720   18.2540 C.2   104  SER104      0.2288
     30  O         -4.8430   51.2260   17.4890 O.2   104  SER104     -0.2866
     31  CB        -2.2860   51.2060   16.4050 C.3   104  SER104      0.2089
     32  OG        -2.2500   52.6400   16.2040 O.3   104  SER104     -0.2183
     33  N         -7.3830   51.6260   19.4920 N.3   106  ASN106     -0.1240
     34  CA        -8.0390   52.9260   19.7050 C.3   106  ASN106      0.1653
     35  C         -8.8560   53.0390   21.0050 C.2   106  ASN106      0.2266
     36  O         -8.9300   54.1050   21.6000 O.2   106  ASN106     -0.2867
     37  CB        -8.8890   53.3050   18.4860 C.3   106  ASN106      0.1155
     38  CG        -8.0410   53.8040   17.3140 C.2   106  ASN106      0.2627
     39  OD1       -6.8440   54.1010   17.4680 O.2   106  ASN106     -0.2716
     40  ND2       -8.6610   53.9140   16.1390 N.am  106  ASN106     -0.0877
     41  N         -8.7350   61.5540   14.2060 N.3   144  ASN144     -0.1240
     42  CA        -8.1590   61.1430   12.9110 C.3   144  ASN144      0.1653
     43  C         -8.8220   61.7770   11.6850 C.2   144  ASN144      0.2266
     44  O         -8.5540   61.3620   10.5600 O.2   144  ASN144     -0.2867
     45  CB        -8.1830   59.6130   12.7810 C.3   144  ASN144      0.1155
     46  CG        -7.4410   58.9380   13.8950 C.2   144  ASN144      0.2627
     47  OD1       -6.2160   58.9430   13.9130 O.2   144  ASN144     -0.2716
     48  ND2       -8.1710   58.3420   14.8250 N.am  144  ASN144     -0.0877
     49  N          6.2420   54.3610   16.3810 N.3   208  LYS208     -0.1231
     50  CA         4.7750   54.3950   16.4660 C.3   208  LYS208      0.1693
     51  C          4.2040   54.9800   15.1820 C.2   208  LYS208      0.2593
     52  O          4.5400   56.1150   14.8230 O.2   208  LYS208     -0.2718
     53  CB         4.3300   55.2570   17.6490 C.3   208  LYS208      0.0285
     54  CG         2.7700   55.2900   17.7440 C.3   208  LYS208      0.0035
     55  CD         2.2510   53.9250   18.1910 C.3   208  LYS208      0.0206
     56  CE         0.7250   53.7700   17.9880 C.3   208  LYS208      0.1093
     57  NZ         0.3960   53.3670   16.5690 N.3   208  LYS208     -0.1314
     58  N          3.3470   54.2160   14.5010 N.am  209  THR209     -0.1939
     59  CA         2.7340   54.6310   13.2470 C.3   209  THR209      0.2028
     60  C          1.4040   55.3320   13.5330 C.2   209  THR209      0.2643
     61  O          0.8990   55.2980   14.6540 O.2   209  THR209     -0.2714
     62  CB         2.4540   53.4230   12.3700 C.3   209  THR209      0.1808
     63  OG1        1.5960   52.5170   13.0910 O.3   209  THR209     -0.2208
     64  CG2        3.7850   52.6820   11.9670 C.3   209  THR209      0.0379
     65  N          0.8670   55.9970   12.5170 N.am  210  GLY210     -0.1939
     66  CA        -0.4700   56.5600   12.6000 C.3   210  GLY210      0.2014
     67  C         -1.0400   56.6360   11.2010 C.2   210  GLY210      0.2640
     68  O         -0.3020   56.8320   10.2360 O.2   210  GLY210     -0.2714
     69  N         -2.3580   56.4650   11.0860 N.am  211  SER211     -0.1935
     70  CA        -3.0160   56.7160    9.8140 C.3   211  SER211      0.2055
     71  C         -4.4130   57.2780   10.0630 C.2   211  SER211      0.2643
     72  O         -5.0070   57.0980   11.1590 O.2   211  SER211     -0.2714
     73  CB        -3.1020   55.4590    8.9710 C.3   211  SER211      0.2130
     74  OG        -3.9580   54.5230    9.5840 O.3   211  SER211     -0.2179
     75  N         -4.9310   57.9640    9.0580 N.am  212  GLY212     -0.1954
     76  CA        -6.2210   58.6190    9.2080 C.3   212  GLY212      0.1869
     77  C         -6.8070   59.0230    7.8880 C.2   212  GLY212      0.2309
     78  O         -6.3430   58.5820    6.8180 O.2   212  GLY212     -0.2863
@<TRIPOS>BOND
     1    78    77    2
     2    77    76    1
     3    73    74    1
     4    73    70    1
     5    75    76    1
     6    75    71   am
     7    70    71    1
     8    70    69    1
     9    71    72    2
    10    68    67    2
    11    44    43    2
    12    69    67   am
    13    67    66    1
    14    43    42    1
    15    64    62    1
    16    62    63    1
    17    62    59    1
    18    65    66    1
    19    65    60   am
    20    45    42    1
    21    45    46    1
    22    42    41    1
    23    59    60    1
    24    59    58    1
    25    24    22   ar
    26    24    25   ar
    27    14    12   am
    28    60    61    2
    29    26    25    1
    30    22    20   ar
    31    46    47    2
    32    46    48   am
    33    10     9    2
    34    25    23   ar
    35    11    12    1
    36    11     8    1
    37    58    51   am
    38    12    13    2
    39    20    19    1
    40    20    21   ar
    41    52    51    2
    42     9     8    1
    43     9    15   am
    44    23    21   ar
    45     1     2    1
    46    19    16    1
    47    51    50    1
    48     8     7    1
    49     5     6    1
    50     5     2    1
    51    16    15    1
    52    16    17    1
    53    40    38   am
    54    32    31    1
    55     2     3    1
    56    49    50    1
    57    31    28    1
    58    50    53    1
    59    57    56    1
    60     3     4    2
    61    17    18    2
    62    38    39    2
    63    38    37    1
    64    30    29    2
    65    53    54    1
    66    54    55    1
    67    28    29    1
    68    28    27    1
    69    56    55    1
    70    37    34    1
    71    33    34    1
    72    34    35    1
    73    35    36    2
