@<TRIPOS>MOLECULE
tmp/3g32B00.pdb
 87 80 0 0 0
SMALL
GASTEIGER

@<TRIPOS>ATOM
      1  N         31.0890   85.9330   -7.6950 N.3    44  SER44      -0.1217
      2  CA        31.5240   86.0630   -9.0870 C.3    44  SER44       0.1889
      3  C         32.9280   85.5460   -9.3920 C.2    44  SER44       0.2288
      4  O         33.3060   85.4770  -10.5640 O.2    44  SER44      -0.2866
      5  CB        31.3730   87.4920   -9.5890 C.3    44  SER44       0.2089
      6  OG        30.0320   87.7500   -9.9590 O.3    44  SER44      -0.2183
      7  N         20.4240   90.5430  -12.2010 N.3    78  ASN78      -0.1225
      8  CA        20.5600   91.6950  -11.3120 C.3    78  ASN78       0.1785
      9  C         21.7430   92.6230  -11.5780 C.2    78  ASN78       0.2597
     10  O         21.8730   93.6520  -10.9180 O.2    78  ASN78      -0.2718
     11  CB        20.5850   91.2350   -9.8520 C.3    78  ASN78       0.1169
     12  CG        21.7690   90.3450   -9.5440 C.2    78  ASN78       0.2627
     13  OD1       22.3020   89.6650  -10.4260 O.2    78  ASN78      -0.2716
     14  ND2       22.1890   90.3410   -8.2840 N.am   78  ASN78      -0.0877
     15  N         22.6050   92.2630  -12.5240 N.am   79  TYR79      -0.1976
     16  CA        23.7840   93.0670  -12.8280 C.3    79  TYR79       0.1639
     17  C         24.2580   92.7280  -14.2380 C.2    79  TYR79       0.2290
     18  O         24.9450   91.7220  -14.4460 O.2    79  TYR79      -0.2864
     19  CB        24.8980   92.8220  -11.8050 C.3    79  TYR79       0.0560
     20  CG        26.0240   93.8090  -11.9420 C.ar   79  TYR79      -0.0198
     21  CD1       27.2140   93.4590  -12.5810 C.ar   79  TYR79      -0.0009
     22  CD2       25.8930   95.1040  -11.4560 C.ar   79  TYR79      -0.0009
     23  CE1       28.2430   94.3810  -12.7260 C.ar   79  TYR79       0.0417
     24  CE2       26.9080   96.0210  -11.5920 C.ar   79  TYR79       0.0417
     25  CZ        28.0810   95.6600  -12.2250 C.ar   79  TYR79       0.1957
     26  OH        29.0870   96.5910  -12.3510 O.3    79  TYR79      -0.2866
     27  N         32.0620   91.5780  -14.8370 N.3   104  SER104     -0.1217
     28  CA        31.2960   90.8010  -13.8650 C.3   104  SER104      0.1889
     29  C         29.8020   90.7720  -14.2020 C.2   104  SER104      0.2288
     30  O         28.9520   90.8120  -13.3100 O.2   104  SER104     -0.2866
     31  CB        31.5500   91.2920  -12.4370 C.3   104  SER104      0.2089
     32  OG        31.5260   90.1900  -11.5520 O.3   104  SER104     -0.2183
     33  N         26.4060   89.3240  -14.8570 N.3   106  ASN106     -0.1240
     34  CA        25.7480   88.1150  -14.3630 C.3   106  ASN106      0.1653
     35  C         24.9110   87.3990  -15.4170 C.2   106  ASN106      0.2266
     36  O         24.7760   86.1790  -15.3800 O.2   106  ASN106     -0.2867
     37  CB        24.8930   88.4330  -13.1320 C.3   106  ASN106      0.1155
     38  CG        25.7270   88.6690  -11.8780 C.2   106  ASN106      0.2627
     39  OD1       26.9270   88.3800  -11.8430 O.2   106  ASN106     -0.2716
     40  ND2       25.0860   89.1860  -10.8320 N.am  106  ASN106     -0.0877
     41  N         24.9200   83.7700   -5.1330 N.3   144  ASN144     -0.1240
     42  CA        25.5080   84.7760   -4.2390 C.3   144  ASN144      0.1653
     43  C         24.8720   84.9070   -2.8560 C.2   144  ASN144      0.2266
     44  O         25.1800   85.8590   -2.1400 O.2   144  ASN144     -0.2867
     45  CB        25.5020   86.1570   -4.9060 C.3   144  ASN144      0.1155
     46  CG        26.1620   86.1500   -6.2570 C.2   144  ASN144      0.2627
     47  OD1       27.3800   86.0190   -6.3650 O.2   144  ASN144     -0.2716
     48  ND2       25.3620   86.2980   -7.3050 N.am  144  ASN144     -0.0877
     49  N         37.1670   95.7220  -12.7470 N.3   190  THR190     -0.1218
     50  CA        36.5430   95.8180  -11.4220 C.3   190  THR190      0.1862
     51  C         37.5050   95.7150  -10.2350 C.2   190  THR190      0.2287
     52  O         37.0540   95.7270   -9.0850 O.2   190  THR190     -0.2866
     53  CB        35.4690   94.7260  -11.2120 C.3   190  THR190      0.1770
     54  OG1       36.1150   93.4550  -11.0760 O.3   190  THR190     -0.2211
     55  CG2       34.4480   94.6860  -12.3590 C.3   190  THR190      0.0375
     56  N         37.0830   89.7270   -9.2900 N.3   209  THR209     -0.1203
     57  CA        36.4220   90.0280   -8.0270 C.3   209  THR209      0.1994
     58  C         35.1110   89.2450   -7.8720 C.2   209  THR209      0.2618
     59  O         34.5990   88.6510   -8.8210 O.2   209  THR209     -0.2717
     60  CB        36.0950   91.5240   -7.9410 C.3   209  THR209      0.1784
     61  OG1       35.2750   91.8870   -9.0630 O.3   209  THR209     -0.2211
     62  CG2       37.3590   92.3700   -7.9280 C.3   209  THR209      0.0376
     63  N         34.5650   89.2750   -6.6620 N.am  210  GLY210     -0.1942
     64  CA        33.2140   88.7830   -6.4230 C.3   210  GLY210      0.2014
     65  C         32.6350   89.4570   -5.2020 C.2   210  GLY210      0.2640
     66  O         33.3700   89.9030   -4.3260 O.2   210  GLY210     -0.2714
     67  N         31.3150   89.5530   -5.1570 N.am  211  SER211     -0.1935
     68  CA        30.6370   90.0350   -3.9670 C.3   211  SER211      0.2055
     69  C         29.2610   89.4000   -3.8760 C.2   211  SER211      0.2643
     70  O         28.7190   88.9100   -4.8630 O.2   211  SER211     -0.2714
     71  CB        30.5370   91.5650   -3.9430 C.3   211  SER211      0.2130
     72  OG        29.6530   92.0390   -4.9320 O.3   211  SER211     -0.2179
     73  N         28.7050   89.4090   -2.6750 N.am  212  GLY212     -0.1954
     74  CA        27.3960   88.8190   -2.4530 C.3   212  GLY212      0.1869
     75  C         26.8350   89.2250   -1.1150 C.2   212  GLY212      0.2309
     76  O         27.3250   90.1590   -0.4820 O.2   212  GLY212     -0.2863
     77  N         36.1960   95.8010    0.3020 N.3   248  ARG248     -0.1245
     78  CA        37.3190   95.5840   -0.6170 C.3   248  ARG248      0.1563
     79  C         38.6560   95.9630    0.0300 C.2   248  ARG248      0.2260
     80  O         39.6890   95.3720   -0.2840 O.2   248  ARG248     -0.2867
     81  CB        37.0900   96.2860   -1.9610 C.3   248  ARG248      0.0307
     82  CG        35.8950   95.6900   -2.7270 C.3   248  ARG248      0.0489
     83  CD        35.6120   96.3600   -4.0550 C.3   248  ARG248      0.2205
     84  NE        35.4300   97.8040   -3.9470 N.pl3 248  ARG248     -0.0865
     85  CZ        35.1640   98.5930   -4.9820 C.cat 248  ARG248      0.5346
     86  NH1       35.0120   98.0810   -6.1970 N.pl3 248  ARG248      0.1354
     87  NH2       35.0410   99.8960   -4.8000 N.pl3 248  ARG248      0.1354
@<TRIPOS>BOND
     1    35    36    2
     2    35    34    1
     3    33    34    1
     4    27    28    1
     5    18    17    2
     6    34    37    1
     7    17    16    1
     8    29    28    1
     9    29    30    2
    10    28    31    1
    11    37    38    1
    12    16    15    1
    13    16    19    1
    14    49    50    1
    15    23    21   ar
    16    23    25   ar
    17    21    20   ar
    18    15     9   am
    19    31    32    1
    20    55    53    1
    21    26    25    1
    22    25    24   ar
    23     7     8    1
    24    20    19    1
    25    20    22   ar
    26    38    39    2
    27    38    40   am
    28    24    22   ar
    29     9     8    1
    30     9    10    2
    31    50    53    1
    32    50    51    1
    33     8    11    1
    34    53    54    1
    35     4     3    2
    36    13    12    2
    37    51    52    2
    38     6     5    1
    39    11    12    1
    40     5     2    1
    41    12    14   am
    42     3     2    1
    43    56    57    1
    44     2     1    1
    45    61    60    1
    46    59    58    2
    47    57    60    1
    48    57    58    1
    49    60    62    1
    50    58    63   am
    51    48    46   am
    52    63    64    1
    53    64    65    1
    54    47    46    2
    55    46    45    1
    56    86    85    1
    57    65    67   am
    58    65    66    2
    59    67    68    1
    60    41    42    1
    61    85    87    1
    62    85    84    2
    63    72    71    1
    64    45    42    1
    65    70    69    2
    66    42    43    1
    67    83    84    1
    68    83    82    1
    69    68    71    1
    70    68    69    1
    71    69    73   am
    72    43    44    2
    73    82    81    1
    74    73    74    1
    75    74    75    1
    76    81    78    1
    77    75    76    2
    78    78    79    1
    79    78    77    1
    80    80    79    2
