@<TRIPOS>MOLECULE
tmp/3g34B00.pdb
 99 92 0 0 0
SMALL
GASTEIGER

@<TRIPOS>ATOM
      1  N         31.1280   85.8830   -7.7100 N.3    43  SER43      -0.1217
      2  CA        31.5670   85.9930   -9.0980 C.3    43  SER43       0.1889
      3  C         32.9680   85.4570   -9.3810 C.2    43  SER43       0.2288
      4  O         33.3610   85.3820  -10.5420 O.2    43  SER43      -0.2866
      5  CB        31.4460   87.4170   -9.6130 C.3    43  SER43       0.2089
      6  OG        30.1150   87.7130   -9.9970 O.3    43  SER43      -0.2183
      7  N         20.4050   90.3380  -12.2390 N.3    77  ASN77      -0.1225
      8  CA        20.5350   91.4890  -11.3430 C.3    77  ASN77       0.1785
      9  C         21.7230   92.4130  -11.5990 C.2    77  ASN77       0.2597
     10  O         21.8700   93.4250  -10.9230 O.2    77  ASN77      -0.2718
     11  CB        20.5720   91.0200   -9.8880 C.3    77  ASN77       0.1169
     12  CG        21.7790   90.1550   -9.5890 C.2    77  ASN77       0.2627
     13  OD1       22.3180   89.4910  -10.4780 O.2    77  ASN77      -0.2716
     14  ND2       22.2080   90.1540   -8.3320 N.am   77  ASN77      -0.0877
     15  N         22.5750   92.0620  -12.5540 N.am   78  TYR78      -0.1976
     16  CA        23.7670   92.8540  -12.8380 C.3    78  TYR78       0.1639
     17  C         24.2430   92.4970  -14.2380 C.2    78  TYR78       0.2290
     18  O         24.9340   91.4930  -14.4320 O.2    78  TYR78      -0.2864
     19  CB        24.8610   92.5830  -11.7930 C.3    78  TYR78       0.0560
     20  CG        26.0190   93.5480  -11.8560 C.ar   78  TYR78      -0.0198
     21  CD1       27.1830   93.2250  -12.5480 C.ar   78  TYR78      -0.0009
     22  CD2       25.9530   94.7820  -11.2210 C.ar   78  TYR78      -0.0009
     23  CE1       28.2480   94.1140  -12.6220 C.ar   78  TYR78       0.0417
     24  CE2       27.0150   95.6690  -11.2770 C.ar   78  TYR78       0.0417
     25  CZ        28.1570   95.3320  -11.9830 C.ar   78  TYR78       0.1957
     26  OH        29.2150   96.2100  -12.0420 O.3    78  TYR78      -0.2866
     27  N         32.0440   91.4160  -14.7910 N.3   103  SER103     -0.1217
     28  CA        31.2700   90.6290  -13.8270 C.3   103  SER103      0.1889
     29  C         29.7860   90.5830  -14.1990 C.2   103  SER103      0.2288
     30  O         28.9120   90.6100  -13.3330 O.2   103  SER103     -0.2866
     31  CB        31.4760   91.1280  -12.3960 C.3   103  SER103      0.2089
     32  OG        31.4430   90.0220  -11.5150 O.3   103  SER103     -0.2183
     33  N         26.4190   89.1380  -14.8810 N.3   105  ASN105     -0.1240
     34  CA        25.7660   87.9240  -14.3870 C.3   105  ASN105      0.1653
     35  C         24.9280   87.2020  -15.4390 C.2   105  ASN105      0.2266
     36  O         24.8040   85.9820  -15.4010 O.2   105  ASN105     -0.2867
     37  CB        24.9210   88.2300  -13.1470 C.3   105  ASN105      0.1155
     38  CG        25.7650   88.4690  -11.9080 C.2   105  ASN105      0.2627
     39  OD1       26.9690   88.1960  -11.8960 O.2   105  ASN105     -0.2716
     40  ND2       25.1330   88.9730  -10.8490 N.am  105  ASN105     -0.0877
     41  N         24.9280   83.6060   -5.1170 N.3   143  ASN143     -0.1240
     42  CA        25.5250   84.6200   -4.2420 C.3   143  ASN143      0.1653
     43  C         24.9100   84.7430   -2.8550 C.2   143  ASN143      0.2266
     44  O         25.2260   85.6870   -2.1290 O.2   143  ASN143     -0.2867
     45  CB        25.4570   86.0010   -4.8990 C.3   143  ASN143      0.1155
     46  CG        26.1360   86.0390   -6.2300 C.2   143  ASN143      0.2627
     47  OD1       27.3660   85.9860   -6.3190 O.2   143  ASN143     -0.2716
     48  ND2       25.3420   86.1220   -7.2860 N.am  143  ASN143     -0.0877
     49  N         37.1760   95.6030  -12.6650 N.3   189  THR189     -0.1218
     50  CA        36.5720   95.7070  -11.3320 C.3   189  THR189      0.1862
     51  C         37.5330   95.5990  -10.1460 C.2   189  THR189      0.2287
     52  O         37.0840   95.6140   -9.0000 O.2   189  THR189     -0.2866
     53  CB        35.4980   94.6230  -11.1140 C.3   189  THR189      0.1770
     54  OG1       36.1350   93.3420  -11.0440 O.3   189  THR189     -0.2211
     55  CG2       34.4530   94.6230  -12.2280 C.3   189  THR189      0.0375
     56  N         37.1100   89.5900   -9.2080 N.3   208  THR208     -0.1203
     57  CA        36.4610   89.9010   -7.9450 C.3   208  THR208      0.1994
     58  C         35.1650   89.1070   -7.7710 C.2   208  THR208      0.2618
     59  O         34.6350   88.5160   -8.7110 O.2   208  THR208     -0.2717
     60  CB        36.1180   91.3950   -7.8760 C.3   208  THR208      0.1784
     61  OG1       35.3800   91.7590   -9.0480 O.3   208  THR208     -0.2211
     62  CG2       37.3820   92.2410   -7.7870 C.3   208  THR208      0.0376
     63  N         34.6590   89.1010   -6.5450 N.am  209  GLY209     -0.1942
     64  CA        33.3320   88.5810   -6.2600 C.3   209  GLY209      0.2014
     65  C         32.7180   89.3550   -5.1140 C.2   209  GLY209      0.2640
     66  O         33.4270   89.8390   -4.2360 O.2   209  GLY209     -0.2714
     67  N         31.3970   89.4970   -5.1680 N.am  210  SER210     -0.1935
     68  CA        30.6310   90.1220   -4.0970 C.3   210  SER210      0.2055
     69  C         29.2830   89.4260   -3.9640 C.2   210  SER210      0.2644
     70  O         28.7230   88.9340   -4.9400 O.2   210  SER210     -0.2714
     71  CB        30.4370   91.6180   -4.3560 C.3   210  SER210      0.2130
     72  OG        29.5830   91.8410   -5.4610 O.3   210  SER210     -0.2179
     73  N         28.7720   89.3680   -2.7390 N.am  211  GLY211     -0.1939
     74  CA        27.4810   88.7350   -2.5020 C.3   211  GLY211      0.2014
     75  C         26.8970   89.1240   -1.1660 C.2   211  GLY211      0.2638
     76  O         27.3720   90.0530   -0.5100 O.2   211  GLY211     -0.2714
     77  N         25.8600   88.3990   -0.7610 N.am  212  ASP212     -0.1971
     78  CA        25.2420   88.6160    0.5460 C.3   212  ASP212      0.1709
     79  C         26.2310   88.2960    1.6580 C.2   212  ASP212      0.2293
     80  O         27.3160   87.7690    1.4020 O.2   212  ASP212     -0.2864
     81  CB        23.9650   87.7820    0.7000 C.3   212  ASP212      0.1436
     82  CG        22.8500   88.2280   -0.2300 C.2   212  ASP212      0.3671
     83  OD1       22.9240   89.3460   -0.7760 O.co2 212  ASP212     -0.2456
     84  OD2       21.8850   87.4540   -0.3990 O.co2 212  ASP212     -0.2456
     85  N         28.1190   95.3870    4.7140 N.3   244  GLU244     -0.1231
     86  CA        28.7430   96.2060    3.6750 C.3   244  GLU244      0.1699
     87  C         29.8880   95.4740    2.9770 C.2   244  GLU244      0.2592
     88  O         30.5140   94.5900    3.5590 O.2   244  GLU244     -0.2718
     89  CB        29.2880   97.5070    4.2920 C.3   244  GLU244      0.0402
     90  CG        30.5670   97.3060    5.1260 C.3   244  GLU244      0.1161
     91  CD        30.9000   98.4480    6.0730 C.2   244  GLU244      0.3649
     92  OE1       31.4600   98.1570    7.1520 O.co2 244  GLU244     -0.2457
     93  OE2       30.6220   99.6230    5.7480 O.co2 244  GLU244     -0.2457
     94  N         30.1550   95.8710    1.7360 N.am  245  SER245     -0.1952
     95  CA        31.3210   95.3900    1.0050 C.3   245  SER245      0.1924
     96  C         32.5900   95.8780    1.6880 C.2   245  SER245      0.2314
     97  O         32.6410   96.9980    2.1920 O.2   245  SER245     -0.2863
     98  CB        31.2800   95.8850   -0.4400 C.3   245  SER245      0.2116
     99  OG        30.1850   95.3190   -1.1340 O.3   245  SER245     -0.2180
@<TRIPOS>BOND
     1    35    36    2
     2    35    34    1
     3    33    34    1
     4    27    28    1
     5    18    17    2
     6    34    37    1
     7    17    16    1
     8    29    28    1
     9    29    30    2
    10    28    31    1
    11    37    38    1
    12    16    15    1
    13    16    19    1
    14    49    50    1
    15    23    21   ar
    16    23    25   ar
    17    15     9   am
    18    21    20   ar
    19    31    32    1
    20     7     8    1
    21    55    53    1
    22    26    25    1
    23    25    24   ar
    24    38    39    2
    25    38    40   am
    26    20    19    1
    27    20    22   ar
    28     9     8    1
    29     9    10    2
    30     8    11    1
    31    50    53    1
    32    50    51    1
    33    24    22   ar
    34    53    54    1
    35     4     3    2
    36    13    12    2
    37    51    52    2
    38     6     5    1
    39    11    12    1
    40     5     2    1
    41    12    14   am
    42     3     2    1
    43    56    57    1
    44     2     1    1
    45    61    60    1
    46    59    58    2
    47    57    60    1
    48    57    58    1
    49    60    62    1
    50    58    63   am
    51    48    46   am
    52    63    64    1
    53    47    46    2
    54    64    65    1
    55    46    45    1
    56    72    71    1
    57    67    65   am
    58    67    68    1
    59    41    42    1
    60    65    66    2
    61    70    69    2
    62    45    42    1
    63    71    68    1
    64    42    43    1
    65    68    69    1
    66    69    73   am
    67    43    44    2
    68    73    74    1
    69    74    75    1
    70    75    77   am
    71    75    76    2
    72    99    98    1
    73    83    82   ar
    74    77    78    1
    75    98    95    1
    76    84    82   ar
    77    82    81    1
    78    78    81    1
    79    78    79    1
    80    95    96    1
    81    95    94    1
    82    80    79    2
    83    96    97    2
    84    94    87   am
    85    87    88    2
    86    87    86    1
    87    86    89    1
    88    86    85    1
    89    89    90    1
    90    90    91    1
    91    93    91   ar
    92    91    92   ar
