@<TRIPOS>MOLECULE
tmp/3g34B01.pdb
 73 70 0 0 0
SMALL
GASTEIGER

@<TRIPOS>ATOM
      1  N         37.7890   67.6110  -13.9690 N.3   127  ALA127     -0.1231
      2  CA        38.6290   67.2030  -15.0970 C.3   127  ALA127      0.1694
      3  C         40.0400   67.7780  -15.0240 C.2   127  ALA127      0.2592
      4  O         40.9620   67.2250  -15.6250 O.2   127  ALA127     -0.2718
      5  CB        37.9700   67.5800  -16.4230 C.3   127  ALA127      0.0304
      6  N         40.2090   68.8900  -14.3110 N.am  128  ILE128     -0.1966
      7  CA        41.5390   69.4760  -14.1400 C.3   128  ILE128      0.1727
      8  C         42.1320   69.2230  -12.7540 C.2   128  ILE128      0.2616
      9  O         43.1590   69.7970  -12.3950 O.2   128  ILE128     -0.2715
     10  CB        41.5760   70.9760  -14.5370 C.3   128  ILE128      0.0290
     11  CG1       40.7190   71.8210  -13.5860 C.3   128  ILE128      0.0022
     12  CG2       41.1350   71.1270  -15.9970 C.3   128  ILE128      0.0023
     13  CD1       40.9200   73.3200  -13.7450 C.3   128  ILE128      0.0001
     14  N         41.4890   68.3450  -11.9930 N.am  129  GLY129     -0.1955
     15  CA        42.0530   67.8640  -10.7370 C.3   129  GLY129      0.1869
     16  C         41.6310   68.6410   -9.5060 C.2   129  GLY129      0.2309
     17  O         42.1980   68.4480   -8.4370 O.2   129  GLY129     -0.2863
     18  N         45.4590   76.8570   -6.1680 N.3   161  GLN161     -0.1245
     19  CA        46.0690   75.7970   -6.9590 C.3   161  GLN161      0.1566
     20  C         45.4640   75.7420   -8.3590 C.2   161  GLN161      0.2260
     21  O         46.1810   75.6650   -9.3530 O.2   161  GLN161     -0.2867
     22  CB        45.9490   74.4480   -6.2440 C.3   161  GLN161      0.0367
     23  CG        46.6080   73.2770   -6.9830 C.3   161  GLN161      0.0905
     24  CD        48.0540   73.5400   -7.3810 C.2   161  GLN161      0.2608
     25  OE1       48.7950   74.2420   -6.6880 O.2   161  GLN161     -0.2717
     26  NE2       48.4630   72.9690   -8.5060 N.am  161  GLN161     -0.0878
     27  N         46.4690   78.8150  -10.4420 N.3   164  ARG164     -0.1231
     28  CA        47.8280   78.6070  -10.9330 C.3   164  ARG164      0.1694
     29  C         47.8560   77.6930  -12.1520 C.2   164  ARG164      0.2591
     30  O         48.4570   78.0280  -13.1690 O.2   164  ARG164     -0.2718
     31  CB        48.7290   78.0330   -9.8410 C.3   164  ARG164      0.0321
     32  CG        50.1840   77.9690  -10.2810 C.3   164  ARG164      0.0489
     33  CD        51.0580   77.1910   -9.3270 C.3   164  ARG164      0.2205
     34  NE        52.4250   77.1480   -9.8410 N.pl3 164  ARG164     -0.0865
     35  CZ        53.4810   76.7290   -9.1540 C.cat 164  ARG164      0.5346
     36  NH1       53.3360   76.2880   -7.9130 N.pl3 164  ARG164      0.1354
     37  NH2       54.6800   76.7420   -9.7240 N.pl3 164  ARG164      0.1354
     38  N         47.1960   76.5430  -12.0500 N.am  165  GLN165     -0.1979
     39  CA        47.1910   75.5810  -13.1510 C.3   165  GLN165      0.1601
     40  C         46.5500   76.1620  -14.4020 C.2   165  GLN165      0.2287
     41  O         46.9970   75.8890  -15.5070 O.2   165  GLN165     -0.2864
     42  CB        46.4660   74.2970  -12.7600 C.3   165  GLN165      0.0394
     43  CG        47.1410   73.5030  -11.6660 C.3   165  GLN165      0.0908
     44  CD        46.3610   72.2600  -11.2980 C.2   165  GLN165      0.2608
     45  OE1       45.7760   72.1770  -10.2170 O.2   165  GLN165     -0.2717
     46  NE2       46.3460   71.2840  -12.1990 N.am  165  GLN165     -0.0878
     47  N         49.0710   79.6300  -15.3850 N.3   168  LEU168     -0.1231
     48  CA        50.5290   79.4550  -15.4730 C.3   168  LEU168      0.1693
     49  C         50.9270   78.0310  -15.8120 C.2   168  LEU168      0.2593
     50  O         52.0520   77.7850  -16.2350 O.2   168  LEU168     -0.2718
     51  CB        51.2120   79.8800  -14.1650 C.3   168  LEU168      0.0284
     52  CG        50.9430   81.3110  -13.6990 C.3   168  LEU168      0.0019
     53  CD1       51.5190   81.5310  -12.3190 C.3   168  LEU168      0.0001
     54  CD2       51.5000   82.3300  -14.6830 C.3   168  LEU168      0.0001
     55  N         50.0020   77.0930  -15.6320 N.am  169  GLY169     -0.1942
     56  CA        50.2570   75.6840  -15.8910 C.3   169  GLY169      0.2014
     57  C         49.5570   75.2270  -17.1500 C.2   169  GLY169      0.2639
     58  O         49.3910   76.0060  -18.0880 O.2   169  GLY169     -0.2714
     59  N         49.1230   73.9690  -17.1570 N.am  170  HIS170     -0.1959
     60  CA        48.6940   73.3120  -18.3870 C.3   170  HIS170      0.1787
     61  C         47.3110   72.7030  -18.3070 C.2   170  HIS170      0.2620
     62  O         47.0080   71.7190  -18.9780 O.2   170  HIS170     -0.2715
     63  CB        49.7780   72.3280  -18.8320 C.3   170  HIS170      0.0785
     64  CG        51.0490   73.0280  -19.1760 C.ar  170  HIS170      0.0821
     65  ND1       51.1990   73.7340  -20.3490 N.ar  170  HIS170     -0.2267
     66  CD2       52.1780   73.2370  -18.4610 C.ar  170  HIS170      0.1154
     67  CE1       52.3900   74.3040  -20.3650 C.ar  170  HIS170      0.1986
     68  NE2       53.0010   74.0230  -19.2290 N.ar  170  HIS170     -0.2212
     69  N         46.4540   73.3130  -17.4980 N.am  171  ALA171     -0.1977
     70  CA        45.0590   72.8920  -17.4680 C.3   171  ALA171      0.1597
     71  C         44.3810   73.2220  -18.7970 C.2   171  ALA171      0.2287
     72  O         43.4470   72.5340  -19.2100 O.2   171  ALA171     -0.2864
     73  CB        44.3290   73.5400  -16.3270 C.3   171  ALA171      0.0319
@<TRIPOS>BOND
     1    67    65   ar
     2    67    68   ar
     3    65    64   ar
     4    68    66   ar
     5    72    71    2
     6    64    63    1
     7    64    66   ar
     8    62    61    2
     9    63    60    1
    10    71    70    1
    11    60    61    1
    12    60    59    1
    13    61    69   am
    14    58    57    2
    15    69    70    1
    16    70    73    1
    17    59    57   am
    18    57    56    1
    19     5     2    1
    20    50    49    2
    21    12    10    1
    22    56    55    1
    23    49    55   am
    24    49    48    1
    25     4     3    2
    26    41    40    2
    27    48    47    1
    28    48    51    1
    29     2     3    1
    30     2     1    1
    31     3     6   am
    32    54    52    1
    33    10     7    1
    34    10    11    1
    35    40    39    1
    36     6     7    1
    37    51    52    1
    38     7     8    1
    39    13    11    1
    40    52    53    1
    41    30    29    2
    42    39    42    1
    43    39    38    1
    44    42    43    1
    45     8     9    2
    46     8    14   am
    47    46    44   am
    48    29    38   am
    49    29    28    1
    50    14    15    1
    51    43    44    1
    52    44    45    2
    53    28    27    1
    54    28    31    1
    55    15    16    1
    56    32    31    1
    57    32    33    1
    58    34    33    1
    59    34    35    2
    60    37    35    1
    61    16    17    2
    62    21    20    2
    63    35    36    1
    64    26    24   am
    65    20    19    1
    66    24    23    1
    67    24    25    2
    68    23    22    1
    69    19    22    1
    70    19    18    1
