@<TRIPOS>MOLECULE
tmp/3g35B01.pdb
 69 64 0 0 0
SMALL
GASTEIGER

@<TRIPOS>ATOM
      1  N         35.8580   77.1500  -18.4470 N.3    52  ALA52      -0.1245
      2  CA        35.1930   75.9480  -18.9500 C.3    52  ALA52       0.1562
      3  C         34.7900   76.1270  -20.4130 C.2    52  ALA52       0.2260
      4  O         34.9040   75.1950  -21.2100 O.2    52  ALA52      -0.2867
      5  CB        33.9780   75.5920  -18.0770 C.3    52  ALA52       0.0290
      6  N         37.8630   75.7900  -22.4690 N.3    55  LYS55      -0.1231
      7  CA        38.1710   74.3780  -22.6700 C.3    55  LYS55       0.1693
      8  C         37.3130   73.7740  -23.7830 C.2    55  LYS55       0.2591
      9  O         37.8260   73.0320  -24.6330 O.2    55  LYS55      -0.2718
     10  CB        37.9950   73.6000  -21.3620 C.3    55  LYS55       0.0285
     11  CG        38.2020   72.0670  -21.4530 C.3    55  LYS55       0.0035
     12  CD        39.5670   71.6510  -22.0340 C.3    55  LYS55       0.0206
     13  CE        40.7370   71.9710  -21.1050 C.3    55  LYS55       0.1093
     14  NZ        42.0680   71.5640  -21.6980 N.3    55  LYS55      -0.1314
     15  N         36.0140   74.0760  -23.7850 N.am   56  GLN56      -0.1979
     16  CA        35.1500   73.5680  -24.8490 C.3    56  GLN56       0.1601
     17  C         35.6650   74.0280  -26.2070 C.2    56  GLN56       0.2287
     18  O         35.6080   73.2740  -27.1830 O.2    56  GLN56      -0.2864
     19  CB        33.7180   74.0650  -24.6730 C.3    56  GLN56       0.0394
     20  CG        32.9290   73.4940  -23.5000 C.3    56  GLN56       0.0908
     21  CD        31.5270   74.1020  -23.4360 C.2    56  GLN56       0.2608
     22  OE1       31.3460   75.2790  -23.7360 O.2    56  GLN56      -0.2717
     23  NE2       30.5340   73.2980  -23.0490 N.am   56  GLN56      -0.0878
     24  N         25.6970   77.3540  -21.3290 N.3   114  GLN114     -0.1231
     25  CA        26.5730   76.7380  -22.3330 C.3   114  GLN114      0.1698
     26  C         27.2840   75.4880  -21.7900 C.2   114  GLN114      0.2592
     27  O         27.6520   74.5950  -22.5550 O.2   114  GLN114     -0.2718
     28  CB        27.5830   77.7800  -22.8340 C.3   114  GLN114      0.0381
     29  CG        28.7120   77.2410  -23.7130 C.3   114  GLN114      0.0905
     30  CD        28.2340   76.5560  -24.9820 C.2   114  GLN114      0.2608
     31  OE1       27.1740   76.8730  -25.5240 O.2   114  GLN114     -0.2717
     32  NE2       29.0300   75.6090  -25.4660 N.am  114  GLN114     -0.0878
     33  N         27.4510   75.4220  -20.4730 N.am  115  LEU115     -0.1966
     34  CA        28.0930   74.2770  -19.8360 C.3   115  LEU115      0.1728
     35  C         27.0850   73.2610  -19.2920 C.2   115  LEU115      0.2616
     36  O         27.4570   72.2970  -18.6150 O.2   115  LEU115     -0.2715
     37  CB        29.0440   74.7640  -18.7360 C.3   115  LEU115      0.0311
     38  CG        30.0340   75.8260  -19.2480 C.3   115  LEU115      0.0022
     39  CD1       30.6440   76.6350  -18.1020 C.3   115  LEU115      0.0001
     40  CD2       31.1080   75.2220  -20.1040 C.3   115  LEU115      0.0001
     41  N         25.8050   73.4820  -19.5940 N.am  116  GLY116     -0.1955
     42  CA        24.7510   72.5450  -19.2180 C.3   116  GLY116      0.1869
     43  C         24.2600   72.7520  -17.7980 C.2   116  GLY116      0.2309
     44  O         23.6440   71.8550  -17.2180 O.2   116  GLY116     -0.2863
     45  N         27.8000   71.5140  -14.8400 N.3   120  GLY120     -0.1225
     46  CA        28.8160   71.4800  -15.8860 C.3   120  GLY120      0.1811
     47  C         30.0610   72.2820  -15.5450 C.2   120  GLY120      0.2280
     48  O         31.1880   71.9000  -15.9040 O.2   120  GLY120     -0.2866
     49  N         31.7730   70.0600  -13.1490 N.3   123  ALA123     -0.1231
     50  CA        32.4150   68.9700  -13.8820 C.3   123  ALA123      0.1694
     51  C         33.7370   69.4010  -14.4970 C.2   123  ALA123      0.2592
     52  O         34.7070   68.6450  -14.4800 O.2   123  ALA123     -0.2718
     53  CB        31.4790   68.3980  -14.9600 C.3   123  ALA123      0.0304
     54  N         33.7780   70.6110  -15.0530 N.am  124  PHE124     -0.1976
     55  CA        35.0350   71.1440  -15.5640 C.3   124  PHE124      0.1639
     56  C         36.0770   71.2350  -14.4400 C.2   124  PHE124      0.2290
     57  O         37.2370   70.8690  -14.6310 O.2   124  PHE124     -0.2864
     58  CB        34.8460   72.5020  -16.2520 C.3   124  PHE124      0.0560
     59  CG        36.1400   73.1960  -16.5570 C.ar  124  PHE124     -0.0200
     60  CD1       36.9770   72.7300  -17.5620 C.ar  124  PHE124     -0.0042
     61  CD2       36.5330   74.3040  -15.8220 C.ar  124  PHE124     -0.0042
     62  CE1       38.1870   73.3620  -17.8330 C.ar  124  PHE124     -0.0003
     63  CE2       37.7390   74.9390  -16.0870 C.ar  124  PHE124     -0.0003
     64  CZ        38.5630   74.4690  -17.0940 C.ar  124  PHE124     -0.0000
     65  N         37.4510   67.9430  -13.8540 N.3   127  ALA127     -0.1245
     66  CA        38.2840   67.5170  -14.9800 C.3   127  ALA127      0.1562
     67  C         39.7110   68.0580  -14.9270 C.2   127  ALA127      0.2260
     68  O         40.6380   67.4190  -15.4320 O.2   127  ALA127     -0.2867
     69  CB        37.6250   67.8760  -16.3030 C.3   127  ALA127      0.0290
@<TRIPOS>BOND
     1    18    17    2
     2    17    16    1
     3    31    30    2
     4    32    30   am
     5    30    29    1
     6    16    19    1
     7    16    15    1
     8    19    20    1
     9     9     8    2
    10    15     8   am
    11     8     7    1
    12    22    21    2
    13    29    28    1
    14    20    21    1
    15    21    23   am
    16    28    25    1
    17     7     6    1
    18     7    10    1
    19    27    26    2
    20    25    26    1
    21    25    24    1
    22    12    11    1
    23    12    13    1
    24    26    33   am
    25    14    13    1
    26    11    10    1
    27     4     3    2
    28    33    34    1
    29     3     2    1
    30    40    38    1
    31    34    35    1
    32    34    37    1
    33    41    35   am
    34    41    42    1
    35    35    36    2
    36    38    37    1
    37    38    39    1
    38    42    43    1
    39     2     1    1
    40     2     5    1
    41    62    60   ar
    42    62    64   ar
    43    43    44    2
    44    60    59   ar
    45    64    63   ar
    46    59    58    1
    47    59    61   ar
    48    69    66    1
    49    58    55    1
    50    63    61   ar
    51    48    47    2
    52    46    47    1
    53    46    45    1
    54    55    54    1
    55    55    56    1
    56    68    67    2
    57    54    51   am
    58    66    67    1
    59    66    65    1
    60    53    50    1
    61    57    56    2
    62    51    52    2
    63    51    50    1
    64    50    49    1
