@<TRIPOS>MOLECULE
tmp/3g35B00.pdb
 105 99 0 0 0
SMALL
GASTEIGER

@<TRIPOS>ATOM
      1  N         31.1220   86.1350   -7.3980 N.3    43  SER43      -0.1217
      2  CA        31.5320   86.2820   -8.8000 C.3    43  SER43       0.1889
      3  C         32.9400   85.7920   -9.1370 C.2    43  SER43       0.2288
      4  O         33.3100   85.7500  -10.3090 O.2    43  SER43      -0.2866
      5  CB        31.3350   87.7140   -9.2720 C.3    43  SER43       0.2089
      6  OG        29.9540   87.9810   -9.4250 O.3    43  SER43      -0.2183
      7  N         20.0790   90.9320  -12.3670 N.3    77  ASN77      -0.1225
      8  CA        20.1940   92.0950  -11.4840 C.3    77  ASN77       0.1785
      9  C         21.3950   93.0010  -11.7340 C.2    77  ASN77       0.2597
     10  O         21.5460   94.0270  -11.0790 O.2    77  ASN77      -0.2718
     11  CB        20.2170   91.6320  -10.0250 C.3    77  ASN77       0.1169
     12  CG        21.4160   90.7440   -9.7190 C.2    77  ASN77       0.2627
     13  OD1       21.9050   90.0280  -10.5950 O.2    77  ASN77      -0.2716
     14  ND2       21.8870   90.7810   -8.4770 N.am   77  ASN77      -0.0877
     15  N         22.2630   92.6130  -12.6620 N.am   78  TYR78      -0.1976
     16  CA        23.4340   93.4240  -12.9990 C.3    78  TYR78       0.1639
     17  C         23.9160   93.0400  -14.3820 C.2    78  TYR78       0.2290
     18  O         24.5730   92.0170  -14.5520 O.2    78  TYR78      -0.2864
     19  CB        24.5540   93.2470  -11.9670 C.3    78  TYR78       0.0560
     20  CG        25.6830   94.2370  -12.1370 C.ar   78  TYR78      -0.0198
     21  CD1       26.9450   93.8240  -12.5740 C.ar   78  TYR78      -0.0009
     22  CD2       25.4890   95.5950  -11.8770 C.ar   78  TYR78      -0.0009
     23  CE1       27.9850   94.7410  -12.7350 C.ar   78  TYR78       0.0417
     24  CE2       26.5220   96.5150  -12.0400 C.ar   78  TYR78       0.0417
     25  CZ        27.7630   96.0820  -12.4640 C.ar   78  TYR78       0.1957
     26  OH        28.7840   96.9940  -12.6160 O.3    78  TYR78      -0.2866
     27  N         31.8670   91.8400  -14.7950 N.3   103  SER103     -0.1217
     28  CA        31.1040   91.0950  -13.7950 C.3   103  SER103      0.1889
     29  C         29.6030   91.0540  -14.1160 C.2   103  SER103      0.2288
     30  O         28.7550   91.0620  -13.2230 O.2   103  SER103     -0.2866
     31  CB        31.3770   91.6090  -12.3820 C.3   103  SER103      0.2089
     32  OG        31.3950   90.5150  -11.4870 O.3   103  SER103     -0.2183
     33  N         26.1620   89.6370  -14.7840 N.3   105  ASN105     -0.1240
     34  CA        25.4850   88.4250  -14.3070 C.3   105  ASN105      0.1653
     35  C         24.6680   87.7160  -15.3920 C.2   105  ASN105      0.2266
     36  O         24.5180   86.4910  -15.3630 O.2   105  ASN105     -0.2867
     37  CB        24.5780   88.7340  -13.1080 C.3   105  ASN105      0.1155
     38  CG        25.3010   88.6270  -11.7770 C.2   105  ASN105      0.2627
     39  OD1       26.4800   88.2450  -11.7120 O.2   105  ASN105     -0.2716
     40  ND2       24.5970   88.9610  -10.6990 N.am  105  ASN105     -0.0877
     41  N         21.0360   85.3950   -9.9090 N.3   140  PRO140     -0.2102
     42  CA        21.8380   85.9910   -8.8460 C.3   140  PRO140      0.1504
     43  C         21.9620   85.1700   -7.5600 C.2   140  PRO140      0.2576
     44  O         22.6890   85.5930   -6.6520 O.2   140  PRO140     -0.2718
     45  CB        21.0630   87.2690   -8.5330 C.3   140  PRO140      0.0282
     46  CG        19.6220   86.8590   -8.7410 C.3   140  PRO140      0.0208
     47  CD        19.6210   85.8170   -9.8330 C.3   140  PRO140      0.0893
     48  N         21.2690   84.0350   -7.4590 N.am  141  THR141     -0.1953
     49  CA        21.1520   83.3810   -6.1460 C.3   141  THR141      0.1897
     50  C         22.4340   82.7240   -5.6640 C.2   141  THR141      0.2313
     51  O         22.5670   82.4320   -4.4750 O.2   141  THR141     -0.2863
     52  CB        19.9710   82.3720   -6.0540 C.3   141  THR141      0.1794
     53  OG1       20.1660   81.2950   -6.9770 O.3   141  THR141     -0.2208
     54  CG2       18.6200   83.0680   -6.3300 C.3   141  THR141      0.0378
     55  N         24.9660   84.0650   -4.9810 N.3   143  ASN143     -0.1225
     56  CA        25.6350   85.0480   -4.1100 C.3   143  ASN143      0.1785
     57  C         24.9740   85.2470   -2.7390 C.2   143  ASN143      0.2597
     58  O         25.2840   86.2190   -2.0410 O.2   143  ASN143     -0.2718
     59  CB        25.7440   86.4100   -4.8050 C.3   143  ASN143      0.1169
     60  CG        26.3730   86.3220   -6.1740 C.2   143  ASN143      0.2627
     61  OD1       27.5770   86.0990   -6.3070 O.2   143  ASN143     -0.2716
     62  ND2       25.5600   86.5020   -7.2060 N.am  143  ASN143     -0.0877
     63  N         24.0710   84.3450   -2.3530 N.am  144  THR144     -0.1953
     64  CA        23.3600   84.5010   -1.0720 C.3   144  THR144      0.1897
     65  C         24.3070   84.4410    0.1280 C.2   144  THR144      0.2313
     66  O         24.0510   85.0650    1.1680 O.2   144  THR144     -0.2863
     67  CB        22.2130   83.4790   -0.8890 C.3   144  THR144      0.1794
     68  OG1       22.7030   82.1540   -1.1160 O.3   144  THR144     -0.2208
     69  CG2       21.0690   83.7710   -1.8420 C.3   144  THR144      0.0378
     70  N         37.0580   95.9730  -12.5300 N.3   189  THR189     -0.1218
     71  CA        36.4670   96.0840  -11.1950 C.3   189  THR189      0.1862
     72  C         37.4340   95.9430  -10.0160 C.2   189  THR189      0.2287
     73  O         36.9850   95.9130   -8.8710 O.2   189  THR189     -0.2866
     74  CB        35.3790   95.0180  -10.9830 C.3   189  THR189      0.1770
     75  OG1       36.0060   93.7300  -10.9040 O.3   189  THR189     -0.2211
     76  CG2       34.3370   95.0370  -12.1130 C.3   189  THR189      0.0375
     77  N         36.9320   89.9320   -9.1240 N.3   208  THR208     -0.1203
     78  CA        36.2910   90.2590   -7.8540 C.3   208  THR208      0.1994
     79  C         34.9850   89.4910   -7.6720 C.2   208  THR208      0.2618
     80  O         34.4320   88.9250   -8.6190 O.2   208  THR208     -0.2717
     81  CB        35.9560   91.7650   -7.7900 C.3   208  THR208      0.1784
     82  OG1       35.1900   92.1260   -8.9510 O.3   208  THR208     -0.2211
     83  CG2       37.2360   92.6230   -7.7360 C.3   208  THR208      0.0376
     84  N         34.4900   89.4920   -6.4420 N.am  209  GLY209     -0.1942
     85  CA        33.1490   88.9950   -6.1710 C.3   209  GLY209      0.2014
     86  C         32.5890   89.6340   -4.9200 C.2   209  GLY209      0.2640
     87  O         33.3400   90.0810   -4.0540 O.2   209  GLY209     -0.2714
     88  N         31.2630   89.7060   -4.8460 N.am  210  SER210     -0.1935
     89  CA        30.6070   90.1490   -3.6130 C.3   210  SER210      0.2055
     90  C         29.2070   89.5830   -3.5250 C.2   210  SER210      0.2644
     91  O         28.6500   89.1330   -4.5230 O.2   210  SER210     -0.2714
     92  CB        30.5930   91.6870   -3.4790 C.3   210  SER210      0.2130
     93  OG        29.7500   92.3160   -4.4400 O.3   210  SER210     -0.2179
     94  N         28.6350   89.6160   -2.3270 N.am  211  GLY211     -0.1939
     95  CA        27.2810   89.1110   -2.1390 C.3   211  GLY211      0.2014
     96  C         26.7050   89.5420   -0.8120 C.2   211  GLY211      0.2638
     97  O         27.1900   90.4900   -0.1910 O.2   211  GLY211     -0.2714
     98  N         25.6620   88.8430   -0.3790 N.am  212  ASP212     -0.1971
     99  CA        25.1030   89.0840    0.9540 C.3   212  ASP212      0.1709
    100  C         26.1250   88.7410    2.0430 C.2   212  ASP212      0.2293
    101  O         27.2090   88.2020    1.7710 O.2   212  ASP212     -0.2864
    102  CB        23.7940   88.3090    1.1570 C.3   212  ASP212      0.1436
    103  CG        22.5680   89.0490    0.6270 C.2   212  ASP212      0.3671
    104  OD1       22.6610   90.2420    0.2520 O.co2 212  ASP212     -0.2456
    105  OD2       21.4900   88.4230    0.6020 O.co2 212  ASP212     -0.2456
@<TRIPOS>BOND
     1    35    36    2
     2    35    34    1
     3    27    28    1
     4    33    34    1
     5    18    17    2
     6    17    16    1
     7    34    37    1
     8    29    28    1
     9    29    30    2
    10    28    31    1
    11    37    38    1
    12    16    15    1
    13    16    19    1
    14    23    21   ar
    15    23    25   ar
    16    15     9   am
    17    26    25    1
    18    21    20   ar
    19    70    71    1
    20    25    24   ar
    21    31    32    1
    22     7     8    1
    23    20    19    1
    24    20    22   ar
    25    76    74    1
    26    24    22   ar
    27    38    39    2
    28    38    40   am
    29     9     8    1
    30     9    10    2
    31     8    11    1
    32    71    74    1
    33    71    72    1
    34    74    75    1
    35    13    12    2
    36     4     3    2
    37    11    12    1
    38    72    73    2
    39    41    47    1
    40    41    42    1
    41    47    46    1
    42    12    14   am
    43     6     5    1
    44     5     2    1
    45     3     2    1
    46    77    78    1
    47    82    81    1
    48    42    45    1
    49    42    43    1
    50     2     1    1
    51    46    45    1
    52    80    79    2
    53    78    81    1
    54    78    79    1
    55    81    83    1
    56    79    84   am
    57    43    48   am
    58    43    44    2
    59    48    49    1
    60    62    60   am
    61    53    52    1
    62    84    85    1
    63    54    52    1
    64    61    60    2
    65    60    59    1
    66    85    86    1
    67    49    52    1
    68    49    50    1
    69    50    51    2
    70    55    56    1
    71    86    88   am
    72    86    87    2
    73    88    89    1
    74    59    56    1
    75    91    90    2
    76    93    92    1
    77    56    57    1
    78    89    90    1
    79    89    92    1
    80    90    94   am
    81    57    63   am
    82    57    58    2
    83    63    64    1
    84    94    95    1
    85    95    96    1
    86    69    67    1
    87    68    67    1
    88    64    67    1
    89    64    65    1
    90    96    98   am
    91    96    97    2
    92    98    99    1
    93    65    66    2
    94   104   103   ar
    95   105   103   ar
    96   103   102    1
    97    99   102    1
    98    99   100    1
    99   101   100    2
