@<TRIPOS>MOLECULE
tmp/3g35B03.pdb
 89 84 0 0 0
SMALL
GASTEIGER

@<TRIPOS>ATOM
      1  N         20.0790   90.9320  -12.3670 N.3    77  ASN77      -0.1225
      2  CA        20.1940   92.0950  -11.4840 C.3    77  ASN77       0.1785
      3  C         21.3950   93.0010  -11.7340 C.2    77  ASN77       0.2597
      4  O         21.5460   94.0270  -11.0790 O.2    77  ASN77      -0.2718
      5  CB        20.2170   91.6320  -10.0250 C.3    77  ASN77       0.1169
      6  CG        21.4160   90.7440   -9.7190 C.2    77  ASN77       0.2627
      7  OD1       21.9050   90.0280  -10.5950 O.2    77  ASN77      -0.2716
      8  ND2       21.8870   90.7810   -8.4770 N.am   77  ASN77      -0.0877
      9  N         22.2630   92.6130  -12.6620 N.am   78  TYR78      -0.1976
     10  CA        23.4340   93.4240  -12.9990 C.3    78  TYR78       0.1639
     11  C         23.9160   93.0400  -14.3820 C.2    78  TYR78       0.2290
     12  O         24.5730   92.0170  -14.5520 O.2    78  TYR78      -0.2864
     13  CB        24.5540   93.2470  -11.9670 C.3    78  TYR78       0.0560
     14  CG        25.6830   94.2370  -12.1370 C.ar   78  TYR78      -0.0198
     15  CD1       26.9450   93.8240  -12.5740 C.ar   78  TYR78      -0.0009
     16  CD2       25.4890   95.5950  -11.8770 C.ar   78  TYR78      -0.0009
     17  CE1       27.9850   94.7410  -12.7350 C.ar   78  TYR78       0.0417
     18  CE2       26.5220   96.5150  -12.0400 C.ar   78  TYR78       0.0417
     19  CZ        27.7630   96.0820  -12.4640 C.ar   78  TYR78       0.1957
     20  OH        28.7840   96.9940  -12.6160 O.3    78  TYR78      -0.2866
     21  N         33.5890   92.9000  -16.5500 N.3   102  TYR102     -0.1227
     22  CA        32.5280   93.7890  -16.0870 C.3   102  TYR102      0.1736
     23  C         31.6550   93.1350  -15.0260 C.2   102  TYR102      0.2596
     24  O         30.8110   93.7970  -14.4240 O.2   102  TYR102     -0.2718
     25  CB        31.6730   94.2510  -17.2740 C.3   102  TYR102      0.0548
     26  CG        32.4830   95.0630  -18.2490 C.ar  102  TYR102     -0.0200
     27  CD1       33.2250   94.4390  -19.2500 C.ar  102  TYR102     -0.0009
     28  CD2       32.5620   96.4510  -18.1340 C.ar  102  TYR102     -0.0009
     29  CE1       34.0040   95.1700  -20.1340 C.ar  102  TYR102      0.0417
     30  CE2       33.3360   97.1900  -19.0180 C.ar  102  TYR102      0.0417
     31  CZ        34.0560   96.5460  -20.0110 C.ar  102  TYR102      0.1957
     32  OH        34.8310   97.2790  -20.8830 O.3   102  TYR102     -0.2866
     33  N         31.8670   91.8400  -14.7950 N.am  103  SER103     -0.1952
     34  CA        31.1040   91.0950  -13.7950 C.3   103  SER103      0.1924
     35  C         29.6030   91.0540  -14.1160 C.2   103  SER103      0.2314
     36  O         28.7550   91.0620  -13.2230 O.2   103  SER103     -0.2863
     37  CB        31.3770   91.6090  -12.3820 C.3   103  SER103      0.2116
     38  OG        31.3950   90.5150  -11.4870 O.3   103  SER103     -0.2180
     39  N         26.1620   89.6370  -14.7840 N.3   105  ASN105     -0.1240
     40  CA        25.4850   88.4250  -14.3070 C.3   105  ASN105      0.1653
     41  C         24.6680   87.7160  -15.3920 C.2   105  ASN105      0.2266
     42  O         24.5180   86.4910  -15.3630 O.2   105  ASN105     -0.2867
     43  CB        24.5780   88.7340  -13.1080 C.3   105  ASN105      0.1155
     44  CG        25.3010   88.6270  -11.7770 C.2   105  ASN105      0.2627
     45  OD1       26.4800   88.2450  -11.7120 O.2   105  ASN105     -0.2716
     46  ND2       24.5970   88.9610  -10.6990 N.am  105  ASN105     -0.0877
     47  N         37.0580   95.9730  -12.5300 N.3   189  THR189     -0.1218
     48  CA        36.4670   96.0840  -11.1950 C.3   189  THR189      0.1862
     49  C         37.4340   95.9430  -10.0160 C.2   189  THR189      0.2287
     50  O         36.9850   95.9130   -8.8710 O.2   189  THR189     -0.2866
     51  CB        35.3790   95.0180  -10.9830 C.3   189  THR189      0.1770
     52  OG1       36.0060   93.7300  -10.9040 O.3   189  THR189     -0.2211
     53  CG2       34.3370   95.0370  -12.1130 C.3   189  THR189      0.0375
     54  N         36.9320   89.9320   -9.1240 N.3   208  THR208     -0.1218
     55  CA        36.2910   90.2590   -7.8540 C.3   208  THR208      0.1862
     56  C         34.9850   89.4910   -7.6720 C.2   208  THR208      0.2287
     57  O         34.4320   88.9250   -8.6190 O.2   208  THR208     -0.2866
     58  CB        35.9560   91.7650   -7.7900 C.3   208  THR208      0.1770
     59  OG1       35.1900   92.1260   -8.9510 O.3   208  THR208     -0.2211
     60  CG2       37.2360   92.6230   -7.7360 C.3   208  THR208      0.0375
     61  N         31.2630   89.7060   -4.8460 N.3   210  SER210     -0.1202
     62  CA        30.6070   90.1490   -3.6130 C.3   210  SER210      0.2020
     63  C         29.2070   89.5830   -3.5250 C.2   210  SER210      0.2619
     64  O         28.6500   89.1330   -4.5230 O.2   210  SER210     -0.2717
     65  CB        30.5930   91.6870   -3.4790 C.3   210  SER210      0.2103
     66  OG        29.7500   92.3160   -4.4400 O.3   210  SER210     -0.2182
     67  N         28.6350   89.6160   -2.3270 N.am  211  GLY211     -0.1942
     68  CA        27.2810   89.1110   -2.1390 C.3   211  GLY211      0.2014
     69  C         26.7050   89.5420   -0.8120 C.2   211  GLY211      0.2638
     70  O         27.1900   90.4900   -0.1910 O.2   211  GLY211     -0.2714
     71  N         25.6620   88.8430   -0.3790 N.am  212  ASP212     -0.1971
     72  CA        25.1030   89.0840    0.9540 C.3   212  ASP212      0.1709
     73  C         26.1250   88.7410    2.0430 C.2   212  ASP212      0.2293
     74  O         27.2090   88.2020    1.7710 O.2   212  ASP212     -0.2864
     75  CB        23.7940   88.3090    1.1570 C.3   212  ASP212      0.1436
     76  CG        22.5680   89.0490    0.6270 C.2   212  ASP212      0.3671
     77  OD1       22.6610   90.2420    0.2520 O.co2 212  ASP212     -0.2456
     78  OD2       21.4900   88.4230    0.6020 O.co2 212  ASP212     -0.2456
     79  N         36.1830   95.9750    0.5610 N.3   247  ARG247     -0.1245
     80  CA        37.3040   95.7800   -0.3540 C.3   247  ARG247      0.1563
     81  C         38.6400   96.1750    0.2830 C.2   247  ARG247      0.2260
     82  O         39.6850   95.6240   -0.0650 O.2   247  ARG247     -0.2867
     83  CB        37.0580   96.5050   -1.6820 C.3   247  ARG247      0.0307
     84  CG        35.9050   95.8810   -2.4880 C.3   247  ARG247      0.0489
     85  CD        35.6280   96.5850   -3.8090 C.3   247  ARG247      0.2205
     86  NE        35.3660   98.0140   -3.6460 N.pl3 247  ARG247     -0.0865
     87  CZ        35.0690   98.8340   -4.6490 C.cat 247  ARG247      0.5346
     88  NH1       34.9630   98.3690   -5.8910 N.pl3 247  ARG247      0.1354
     89  NH2       34.8740  100.1240   -4.4070 N.pl3 247  ARG247      0.1354
@<TRIPOS>BOND
     1    32    31    1
     2    29    31   ar
     3    29    27   ar
     4    31    30   ar
     5    27    26   ar
     6    30    28   ar
     7    26    28   ar
     8    26    25    1
     9    25    22    1
    10    21    22    1
    11    22    23    1
    12    41    42    2
    13    41    40    1
    14    23    33   am
    15    23    24    2
    16    33    34    1
    17    39    40    1
    18    12    11    2
    19    11    10    1
    20    40    43    1
    21    35    34    1
    22    35    36    2
    23    34    37    1
    24    43    44    1
    25    10     9    1
    26    10    13    1
    27    17    15   ar
    28    17    19   ar
    29     9     3   am
    30    20    19    1
    31    15    14   ar
    32    47    48    1
    33    19    18   ar
    34    37    38    1
    35     1     2    1
    36    14    13    1
    37    14    16   ar
    38    53    51    1
    39    18    16   ar
    40    44    45    2
    41    44    46   am
    42     3     2    1
    43     3     4    2
    44     2     5    1
    45    48    51    1
    46    48    49    1
    47    51    52    1
    48     7     6    2
    49     5     6    1
    50    49    50    2
    51     6     8   am
    52    54    55    1
    53    59    58    1
    54    57    56    2
    55    55    58    1
    56    55    56    1
    57    58    60    1
    58    88    87    1
    59    61    62    1
    60    87    89    1
    61    87    86    2
    62    64    63    2
    63    66    65    1
    64    85    86    1
    65    85    84    1
    66    62    63    1
    67    62    65    1
    68    63    67   am
    69    84    83    1
    70    67    68    1
    71    68    69    1
    72    83    80    1
    73    69    71   am
    74    69    70    2
    75    71    72    1
    76    80    81    1
    77    80    79    1
    78    82    81    2
    79    77    76   ar
    80    78    76   ar
    81    76    75    1
    82    72    75    1
    83    72    73    1
    84    74    73    2
