@<TRIPOS>MOLECULE
tmp/3g3eD01.pdb
 84 76 0 0 0
SMALL
GASTEIGER

@<TRIPOS>ATOM
      1  N          7.7850  -68.9690   30.8680 N.3    49  ALA49      -0.1245
      2  CA         7.9340  -69.2930   32.2900 C.3    49  ALA49       0.1562
      3  C          9.3330  -69.8890   32.5090 C.2    49  ALA49       0.2260
      4  O         10.0770  -69.4800   33.4110 O.2    49  ALA49      -0.2867
      5  CB         6.8930  -70.1820   32.7450 C.3    49  ALA49       0.0290
      6  N          9.9920  -73.4320   32.1200 N.3    51  LEU51      -0.1245
      7  CA         9.9440  -74.7940   32.6760 C.3    51  LEU51       0.1561
      8  C         10.5020  -75.7860   31.6870 C.2    51  LEU51       0.2260
      9  O         10.1370  -75.8210   30.5190 O.2    51  LEU51      -0.2867
     10  CB         8.5010  -75.2000   33.0830 C.3    51  LEU51       0.0270
     11  CG         8.3780  -76.5550   33.8030 C.3    51  LEU51       0.0019
     12  CD1        9.3820  -76.6840   34.9590 C.3    51  LEU51       0.0001
     13  CD2        6.9610  -76.8080   34.3150 C.3    51  LEU51       0.0001
     14  N         10.2770  -78.9100   30.0030 N.3    53  GLN53      -0.1245
     15  CA         9.4560  -80.0730   29.6400 C.3    53  GLN53       0.1566
     16  C          9.2250  -80.1990   28.1420 C.2    53  GLN53       0.2260
     17  O          8.5920  -79.3380   27.5510 O.2    53  GLN53      -0.2867
     18  CB         8.1090  -79.9740   30.3150 C.3    53  GLN53       0.0367
     19  CG         7.2850  -81.2270   30.1470 C.3    53  GLN53       0.0905
     20  CD         6.2470  -81.4010   31.1910 C.2    53  GLN53       0.2608
     21  OE1        6.5210  -81.2910   32.4000 O.2    53  GLN53      -0.2717
     22  NE2        5.0190  -81.6670   30.7470 N.am   53  GLN53      -0.0878
     23  N          0.5940  -78.7620   35.4410 N.3   215  LEU215     -0.1245
     24  CA         0.2650  -78.7440   34.0340 C.3   215  LEU215      0.1561
     25  C         -0.8680  -79.7250   33.7600 C.2   215  LEU215      0.2260
     26  O         -0.7770  -80.8820   34.1190 O.2   215  LEU215     -0.2867
     27  CB         1.4820  -79.2230   33.2090 C.3   215  LEU215      0.0270
     28  CG         2.8320  -78.5780   33.4580 C.3   215  LEU215      0.0019
     29  CD1        3.6190  -78.7190   32.2120 C.3   215  LEU215      0.0001
     30  CD2        2.6420  -77.1320   33.8730 C.3   215  LEU215      0.0001
     31  N         -0.4180  -76.9730   25.2220 N.3   224  TYR224     -0.1241
     32  CA        -0.2990  -75.5540   25.7200 C.3   224  TYR224      0.1605
     33  C         -1.6150  -74.8290   25.8620 C.2   224  TYR224      0.2264
     34  O         -1.6230  -73.6060   26.0570 O.2   224  TYR224     -0.2867
     35  CB         0.5910  -74.7160   24.8120 C.3   224  TYR224      0.0534
     36  CG         1.9380  -75.3340   24.5250 C.ar  224  TYR224     -0.0201
     37  CD1        2.3450  -75.5560   23.2300 C.ar  224  TYR224     -0.0009
     38  CD2        2.7840  -75.7010   25.5510 C.ar  224  TYR224     -0.0009
     39  CE1        3.5880  -76.1460   22.9440 C.ar  224  TYR224      0.0417
     40  CE2        4.0070  -76.2360   25.3000 C.ar  224  TYR224      0.0417
     41  CZ         4.4190  -76.4520   24.0080 C.ar  224  TYR224      0.1957
     42  OH         5.6560  -77.0000   23.8190 O.3   224  TYR224     -0.2866
     43  N         -2.3650  -74.0680   33.1170 N.3   228  TYR228     -0.1241
     44  CA        -1.1260  -74.3120   33.8060 C.3   228  TYR228      0.1605
     45  C         -0.7730  -73.1750   34.8280 C.2   228  TYR228      0.2264
     46  O         -1.2560  -72.0580   34.7750 O.2   228  TYR228     -0.2867
     47  CB         0.0190  -74.7260   32.8120 C.3   228  TYR228      0.0534
     48  CG         0.4650  -73.6950   31.7930 C.ar  228  TYR228     -0.0201
     49  CD1        1.1790  -72.5470   32.1930 C.ar  228  TYR228     -0.0009
     50  CD2        0.1570  -73.8130   30.4660 C.ar  228  TYR228     -0.0009
     51  CE1        1.5890  -71.5750   31.2890 C.ar  228  TYR228      0.0417
     52  CE2        0.5770  -72.8280   29.5300 C.ar  228  TYR228      0.0417
     53  CZ         1.2890  -71.7170   29.9630 C.ar  228  TYR228      0.1957
     54  OH         1.6900  -70.7280   29.0870 O.3   228  TYR228     -0.2866
     55  N          2.7840  -72.1720   36.9890 N.3   230  ILE230     -0.1245
     56  CA         4.2160  -72.4410   37.0730 C.3   230  ILE230      0.1561
     57  C          4.8090  -71.3640   37.9840 C.2   230  ILE230      0.2260
     58  O          4.9200  -70.2450   37.6090 O.2   230  ILE230     -0.2867
     59  CB         4.9010  -72.4240   35.6580 C.3   230  ILE230      0.0252
     60  CG1        4.2320  -73.4610   34.7270 C.3   230  ILE230      0.0019
     61  CG2        6.4590  -72.6400   35.7620 C.3   230  ILE230      0.0019
     62  CD1        4.7300  -73.4720   33.2110 C.3   230  ILE230      0.0001
     63  N          4.8640  -68.3640   20.1280 N.3   283  ARG283     -0.1245
     64  CA         5.6250  -69.5800   19.9650 C.3   283  ARG283      0.1563
     65  C          5.9700  -69.7550   18.4720 C.2   283  ARG283      0.2260
     66  O          5.0730  -69.6770   17.6050 O.2   283  ARG283     -0.2867
     67  CB         4.8890  -70.8230   20.5220 C.3   283  ARG283      0.0307
     68  CG         4.5720  -70.7490   22.0360 C.3   283  ARG283      0.0489
     69  CD         3.5310  -71.7710   22.4270 C.3   283  ARG283      0.2205
     70  NE         3.0150  -71.6760   23.7780 N.pl3 283  ARG283     -0.0865
     71  CZ         1.7830  -71.2440   24.0750 C.cat 283  ARG283      0.5346
     72  NH1        0.9840  -70.8380   23.1210 N.pl3 283  ARG283      0.1354
     73  NH2        1.3450  -71.1750   25.3440 N.pl3 283  ARG283      0.1354
     74  N          7.0140  -74.2240   21.7130 N.3   313  GLY313     -0.1225
     75  CA         6.9070  -73.9630   23.1550 C.3   313  GLY313      0.1811
     76  C          7.9400  -74.7170   24.0090 C.2   313  GLY313      0.2280
     77  O          7.6940  -75.0270   25.1660 O.2   313  GLY313     -0.2866
     78  N         13.5980  -75.2340   27.0470 N.3   317  THR317     -0.1218
     79  CA        13.8190  -76.7170   27.2340 C.3   317  THR317      0.1862
     80  C         14.9190  -77.3300   26.3340 C.2   317  THR317      0.2287
     81  O         15.5670  -78.3340   26.6750 O.2   317  THR317     -0.2866
     82  CB        12.4950  -77.4880   26.9590 C.3   317  THR317      0.1770
     83  OG1       11.4730  -76.9040   27.7830 O.3   317  THR317     -0.2211
     84  CG2       12.6040  -78.9750   27.2540 C.3   317  THR317      0.0375
@<TRIPOS>BOND
     1    66    65    2
     2    65    64    1
     3    64    63    1
     4    64    67    1
     5    67    68    1
     6    74    75    1
     7    68    69    1
     8    69    70    1
     9    39    37   ar
    10    39    41   ar
    11    72    71    1
    12    75    76    1
    13    37    36   ar
    14    70    71    2
    15    42    41    1
    16    41    40   ar
    17    76    77    2
    18    71    73    1
    19    36    35    1
    20    36    38   ar
    21    35    32    1
    22    31    32    1
    23    40    38   ar
    24    32    33    1
    25    33    34    2
    26    80    81    2
    27    80    79    1
    28    82    79    1
    29    82    84    1
    30    82    83    1
    31    78    79    1
    32    17    16    2
    33    16    15    1
    34    54    53    1
    35    52    53   ar
    36    52    50   ar
    37    15    14    1
    38    15    18    1
    39    53    51   ar
    40    19    18    1
    41    19    20    1
    42    50    48   ar
    43     9     8    2
    44    22    20   am
    45     1     2    1
    46    20    21    2
    47    51    49   ar
    48     8     7    1
    49    48    49   ar
    50    48    47    1
    51     6     7    1
    52    29    28    1
    53     2     3    1
    54     2     5    1
    55     3     4    2
    56     7    10    1
    57    47    44    1
    58    10    11    1
    59    43    44    1
    60    27    28    1
    61    27    24    1
    62    62    60    1
    63    28    30    1
    64    25    24    1
    65    25    26    2
    66    11    13    1
    67    11    12    1
    68    44    45    1
    69    24    23    1
    70    60    59    1
    71    46    45    2
    72    59    61    1
    73    59    56    1
    74    55    56    1
    75    56    57    1
    76    58    57    2
