@<TRIPOS>MOLECULE
tmp/3g3nA00.pdb
 135 127 0 0 0
SMALL
GASTEIGER

@<TRIPOS>ATOM
      1  N        -44.2200  -19.9140   18.7700 N.3    73  TYR73      -0.1227
      2  CA       -43.6280  -19.8210   17.4380 C.3    73  TYR73       0.1736
      3  C        -43.9230  -18.5120   16.7040 C.2    73  TYR73       0.2595
      4  O        -43.0030  -17.8080   16.3010 O.2    73  TYR73      -0.2718
      5  CB       -44.0750  -20.9910   16.5560 C.3    73  TYR73       0.0548
      6  CG       -43.4040  -20.9930   15.1990 C.ar   73  TYR73      -0.0200
      7  CD1      -42.1090  -21.4970   15.0360 C.ar   73  TYR73      -0.0009
      8  CD2      -44.0500  -20.4610   14.0780 C.ar   73  TYR73      -0.0009
      9  CE1      -41.4740  -21.4740   13.7900 C.ar   73  TYR73       0.0417
     10  CE2      -43.4250  -20.4270   12.8310 C.ar   73  TYR73       0.0417
     11  CZ       -42.1410  -20.9350   12.6910 C.ar   73  TYR73       0.1957
     12  OH       -41.5280  -20.9030   11.4570 O.3    73  TYR73      -0.2866
     13  N        -45.1980  -18.1880   16.5160 N.am   74  HIS74      -0.1975
     14  CA       -45.5480  -16.9610   15.8080 C.3    74  HIS74       0.1656
     15  C        -45.4500  -15.6920   16.6500 C.2    74  HIS74       0.2291
     16  O        -46.4490  -15.1600   17.1320 O.2    74  HIS74      -0.2864
     17  CB       -46.9440  -17.0810   15.1810 C.3    74  HIS74       0.0771
     18  CG       -47.0150  -18.0820   14.0690 C.ar   74  HIS74       0.0820
     19  ND1      -47.5320  -19.3510   14.2350 N.ar   74  HIS74      -0.2267
     20  CD2      -46.6030  -18.0090   12.7800 C.ar   74  HIS74       0.1154
     21  CE1      -47.4360  -20.0170   13.0980 C.ar   74  HIS74       0.1986
     22  NE2      -46.8750  -19.2250   12.1990 N.ar   74  HIS74      -0.2212
     23  N        -54.6150  -21.8620   14.0040 N.3   122  ASN122     -0.1240
     24  CA       -54.7510  -21.7720   12.5530 C.3   122  ASN122      0.1653
     25  C        -56.1220  -21.3420   12.0330 C.2   122  ASN122      0.2266
     26  O        -57.0440  -21.0800   12.8040 O.2   122  ASN122     -0.2867
     27  CB       -54.3380  -23.1010   11.9060 C.3   122  ASN122      0.1155
     28  CG       -55.2570  -24.2410   12.2790 C.2   122  ASN122      0.2627
     29  OD1      -56.3800  -24.0210   12.7330 O.2   122  ASN122     -0.2716
     30  ND2      -54.7970  -25.4670   12.0680 N.am  122  ASN122     -0.0877
     31  N        -48.0380  -16.0520    1.4500 N.3   183  THR183     -0.1218
     32  CA       -47.5460  -16.9160    2.5260 C.3   183  THR183      0.1862
     33  C        -48.6180  -17.8190    3.1220 C.2   183  THR183      0.2287
     34  O        -48.3640  -18.5230    4.0940 O.2   183  THR183     -0.2866
     35  CB       -46.8900  -16.1200    3.6880 C.3   183  THR183      0.1770
     36  OG1      -47.8640  -15.2850    4.3230 O.3   183  THR183     -0.2211
     37  CG2      -45.7470  -15.2630    3.1690 C.3   183  THR183      0.0375
     38  N        -49.9610  -20.8540    3.4680 N.3   185  ILE185     -0.1245
     39  CA       -49.5090  -22.1940    3.1010 C.3   185  ILE185      0.1561
     40  C        -50.6020  -22.9530    2.3650 C.2   185  ILE185      0.2260
     41  O        -50.3270  -23.6820    1.4120 O.2   185  ILE185     -0.2867
     42  CB       -49.0510  -23.0250    4.3400 C.3   185  ILE185      0.0252
     43  CG1      -48.1000  -24.1330    3.8860 C.3   185  ILE185      0.0019
     44  CG2      -50.2430  -23.6530    5.0470 C.3   185  ILE185      0.0019
     45  CD1      -46.8530  -23.6150    3.2110 C.3   185  ILE185      0.0001
     46  N        -40.4110  -17.8510    4.8590 N.3   224  ASP224     -0.1225
     47  CA       -41.3720  -18.2360    5.8750 C.3   224  ASP224      0.1805
     48  C        -41.2860  -19.6870    6.3280 C.2   224  ASP224      0.2597
     49  O        -41.6980  -20.0150    7.4410 O.2   224  ASP224     -0.2718
     50  CB       -42.8000  -17.9380    5.4050 C.3   224  ASP224      0.1424
     51  CG       -43.8000  -17.9970    6.5460 C.2   224  ASP224      0.3668
     52  OD1      -43.4260  -17.5770    7.6580 O.co2 224  ASP224     -0.2456
     53  OD2      -44.9470  -18.4450    6.3460 O.co2 224  ASP224     -0.2456
     54  N        -40.7610  -20.5650    5.4840 N.am  225  ILE225     -0.1980
     55  CA       -40.6730  -21.9630    5.8760 C.3   225  ILE225      0.1595
     56  C        -39.2770  -22.5390    5.6860 C.2   225  ILE225      0.2287
     57  O        -39.1200  -23.7310    5.4200 O.2   225  ILE225     -0.2864
     58  CB       -41.7020  -22.8260    5.1000 C.3   225  ILE225      0.0276
     59  CG1      -41.3550  -22.8760    3.6150 C.3   225  ILE225      0.0022
     60  CG2      -43.0920  -22.2320    5.2700 C.3   225  ILE225      0.0022
     61  CD1      -42.1790  -23.8890    2.8460 C.3   225  ILE225      0.0001
     62  N        -37.0250  -22.7810    8.0420 N.3   227  ASN227     -0.1240
     63  CA       -36.5130  -23.3160    9.3150 C.3   227  ASN227      0.1653
     64  C        -35.7410  -24.6190    9.1080 C.2   227  ASN227      0.2266
     65  O        -34.6520  -24.7880    9.6410 O.2   227  ASN227     -0.2867
     66  CB       -37.6550  -23.5820   10.3010 C.3   227  ASN227      0.1155
     67  CG       -38.2030  -22.3180   10.9290 C.2   227  ASN227      0.2627
     68  OD1      -39.3090  -22.3190   11.4810 O.2   227  ASN227     -0.2716
     69  ND2      -37.4290  -21.2350   10.8680 N.am  227  ASN227     -0.0877
     70  N        -42.6890  -24.6570   17.0530 N.3   242  VAL242     -0.1245
     71  CA       -43.8590  -24.7360   16.1940 C.3   242  VAL242      0.1561
     72  C        -44.7310  -25.8870   16.6740 C.2   242  VAL242      0.2260
     73  O        -45.9560  -25.7900   16.6560 O.2   242  VAL242     -0.2867
     74  CB       -43.4820  -24.9680   14.7100 C.3   242  VAL242      0.0252
     75  CG1      -42.8040  -26.3170   14.5360 C.3   242  VAL242      0.0019
     76  CG2      -44.7330  -24.8940   13.8480 C.3   242  VAL242      0.0019
     77  N        -48.5960  -25.8860   18.0700 N.3   246  PHE246     -0.1241
     78  CA       -49.6010  -26.7860   17.4860 C.3   246  PHE246      0.1605
     79  C        -50.3130  -27.5860   18.5790 C.2   246  PHE246      0.2264
     80  O        -51.5430  -27.6500   18.6290 O.2   246  PHE246     -0.2867
     81  CB       -48.9600  -27.7920   16.5230 C.3   246  PHE246      0.0534
     82  CG       -48.5660  -27.2140   15.1930 C.ar  246  PHE246     -0.0203
     83  CD1      -48.9850  -25.9530   14.8060 C.ar  246  PHE246     -0.0042
     84  CD2      -47.8050  -27.9670   14.3070 C.ar  246  PHE246     -0.0042
     85  CE1      -48.6560  -25.4520   13.5580 C.ar  246  PHE246     -0.0003
     86  CE2      -47.4700  -27.4770   13.0560 C.ar  246  PHE246     -0.0003
     87  CZ       -47.8960  -26.2170   12.6790 C.ar  246  PHE246     -0.0000
     88  N        -52.0460  -32.5430   13.1760 N.3   263  LEU263     -0.1245
     89  CA       -50.7710  -32.0190   13.6660 C.3   263  LEU263      0.1561
     90  C        -50.8340  -31.4220   15.0680 C.2   263  LEU263      0.2260
     91  O        -49.7950  -31.0680   15.6260 O.2   263  LEU263     -0.2867
     92  CB       -50.2440  -30.9260   12.7260 C.3   263  LEU263      0.0270
     93  CG       -49.5580  -31.2060   11.3890 C.3   263  LEU263      0.0019
     94  CD1      -49.9570  -32.5480   10.8120 C.3   263  LEU263      0.0001
     95  CD2      -49.9200  -30.0600   10.4530 C.3   263  LEU263      0.0001
     96  N        -43.9680  -34.9630   12.2570 N.3   274  ILE274     -0.1231
     97  CA       -44.4470  -33.6730   11.7860 C.3   274  ILE274      0.1692
     98  C        -43.3780  -32.9890   10.9400 C.2   274  ILE274      0.2591
     99  O        -43.6430  -32.5840    9.8050 O.2   274  ILE274     -0.2718
    100  CB       -44.8290  -32.7580   12.9760 C.3   274  ILE274      0.0266
    101  CG1      -46.2410  -33.1080   13.4540 C.3   274  ILE274      0.0019
    102  CG2      -44.7050  -31.2860   12.5850 C.3   274  ILE274      0.0020
    103  CD1      -46.6580  -32.3780   14.7060 C.3   274  ILE274      0.0001
    104  N        -42.1750  -32.8660   11.4890 N.am  275  GLN275     -0.1979
    105  CA       -41.0830  -32.2350   10.7660 C.3   275  GLN275      0.1601
    106  C        -40.7310  -32.9870    9.4860 C.2   275  GLN275      0.2287
    107  O        -40.5510  -32.3730    8.4320 O.2   275  GLN275     -0.2864
    108  CB       -39.8470  -32.1400   11.6520 C.3   275  GLN275      0.0394
    109  CG       -40.0590  -31.3110   12.8950 C.3   275  GLN275      0.0908
    110  CD       -40.6130  -29.9420   12.5760 C.2   275  GLN275      0.2608
    111  OE1      -40.0010  -29.1650   11.8370 O.2   275  GLN275     -0.2717
    112  NE2      -41.7840  -29.6370   13.1330 N.am  275  GLN275     -0.0878
    113  N        -42.5680  -35.0030    7.5670 N.3   277  GLY277     -0.1210
    114  CA       -43.5900  -34.7800    6.5540 C.3   277  GLY277      0.1956
    115  C        -43.5550  -33.3740    5.9830 C.2   277  GLY277      0.2611
    116  O        -43.6690  -33.1720    4.7700 O.2   277  GLY277     -0.2717
    117  N        -43.3920  -32.3990    6.8670 N.am  278  PHE278     -0.1976
    118  CA       -43.3280  -30.9970    6.4820 C.3   278  PHE278      0.1639
    119  C        -42.1810  -30.7850    5.4910 C.2   278  PHE278      0.2290
    120  O        -42.3540  -30.1580    4.4510 O.2   278  PHE278     -0.2864
    121  CB       -43.1260  -30.1440    7.7410 C.3   278  PHE278      0.0560
    122  CG       -42.9050  -28.6840    7.4700 C.ar  278  PHE278     -0.0200
    123  CD1      -43.8170  -27.9570    6.7210 C.ar  278  PHE278     -0.0042
    124  CD2      -41.7950  -28.0270    8.0000 C.ar  278  PHE278     -0.0042
    125  CE1      -43.6290  -26.5970    6.5030 C.ar  278  PHE278     -0.0003
    126  CE2      -41.5980  -26.6610    7.7880 C.ar  278  PHE278     -0.0003
    127  CZ       -42.5180  -25.9450    7.0380 C.ar  278  PHE278     -0.0000
    128  N        -43.6250  -30.0790    1.7850 N.3   282  LEU282     -0.1245
    129  CA       -43.7530  -28.6370    1.6310 C.3   282  LEU282      0.1561
    130  C        -42.4230  -27.9060    1.4490 C.2   282  LEU282      0.2260
    131  O        -42.2800  -27.0840    0.5370 O.2   282  LEU282     -0.2867
    132  CB       -44.5140  -28.0600    2.8290 C.3   282  LEU282      0.0270
    133  CG       -46.0110  -28.3940    2.7870 C.3   282  LEU282      0.0019
    134  CD1      -46.6410  -28.2270    4.1460 C.3   282  LEU282      0.0001
    135  CD2      -46.6900  -27.4950    1.7470 C.3   282  LEU282      0.0001
@<TRIPOS>BOND
     1   131   130    2
     2    41    40    2
     3   130   129    1
     4    31    32    1
     5   129   128    1
     6   129   132    1
     7   135   133    1
     8    40    39    1
     9    32    33    1
    10    32    35    1
    11   133   132    1
    12   133   134    1
    13    61    59    1
    14    39    38    1
    15    39    42    1
    16    33    34    2
    17    37    35    1
    18    45    43    1
    19    59    58    1
    20    35    36    1
    21    43    42    1
    22    42    44    1
    23   120   119    2
    24   116   115    2
    25    46    47    1
    26    58    60    1
    27    58    55    1
    28    50    47    1
    29    50    51    1
    30    57    56    2
    31    54    55    1
    32    54    48   am
    33   119   118    1
    34    56    55    1
    35    47    48    1
    36   115   114    1
    37   115   117   am
    38    48    49    2
    39    53    51   ar
    40   118   117    1
    41   118   121    1
    42   125   123   ar
    43   125   127   ar
    44    51    52   ar
    45   114   113    1
    46   123   122   ar
    47   127   126   ar
    48   122   121    1
    49   122   124   ar
    50   126   124   ar
    51    62    63    1
    52   107   106    2
    53    64    63    1
    54    64    65    2
    55    63    66    1
    56   106   105    1
    57    99    98    2
    58    66    67    1
    59    95    93    1
    60   105   104    1
    61   105   108    1
    62    94    93    1
    63    69    67   am
    64    67    68    2
    65    98   104   am
    66    98    97    1
    67    93    92    1
    68    12    11    1
    69   108   109    1
    70    97    96    1
    71    97   100    1
    72   111   110    2
    73    27    28    1
    74    27    24    1
    75    25    24    1
    76    25    26    2
    77    30    28   am
    78    22    20   ar
    79    22    21   ar
    80    28    29    2
    81    24    23    1
    82   110   109    1
    83   110   112   am
    84   102   100    1
    85    87    86   ar
    86    87    85   ar
    87    11    10   ar
    88    11     9   ar
    89    92    89    1
    90    20    18   ar
    91    10     8   ar
    92   100   101    1
    93    86    84   ar
    94    21    19   ar
    95    88    89    1
    96   101   103    1
    97    85    83   ar
    98    89    90    1
    99     9     7   ar
   100    76    74    1
   101    18    19   ar
   102    18    17    1
   103     8     6   ar
   104    84    82   ar
   105    75    74    1
   106    74    71    1
   107    83    82   ar
   108     7     6   ar
   109    90    91    2
   110    17    14    1
   111    82    81    1
   112     6     5    1
   113    14    13    1
   114    14    15    1
   115    71    72    1
   116    71    70    1
   117     4     3    2
   118    13     3   am
   119    81    78    1
   120     5     2    1
   121    15    16    2
   122    73    72    2
   123     3     2    1
   124     2     1    1
   125    78    77    1
   126    78    79    1
   127    79    80    2
