@<TRIPOS>MOLECULE
tmp/3g3pB00.pdb
 111 109 0 0 0
SMALL
GASTEIGER

@<TRIPOS>ATOM
      1  N          7.4840  -12.8510   13.9020 N.3     8  ILE8       -0.1231
      2  CA         8.9110  -12.9400   13.6270 C.3     8  ILE8        0.1692
      3  C          9.6620  -12.1410   14.6840 C.2     8  ILE8        0.2592
      4  O          9.1910  -11.0950   15.1460 O.2     8  ILE8       -0.2718
      5  CB         9.2960  -12.4830   12.2080 C.3     8  ILE8        0.0266
      6  CG1        8.7410  -11.0960   11.9120 C.3     8  ILE8        0.0019
      7  CG2        8.8090  -13.4970   11.1780 C.3     8  ILE8        0.0020
      8  CD1        9.2170  -10.5420   10.5820 C.3     8  ILE8        0.0001
      9  N         10.8160  -12.6600   15.0790 N.am    9  LEU9       -0.1966
     10  CA        11.6480  -12.0400   16.1000 C.3     9  LEU9        0.1728
     11  C         12.8140  -11.3260   15.4520 C.2     9  LEU9        0.2616
     12  O         13.3240  -11.7540   14.4160 O.2     9  LEU9       -0.2715
     13  CB        12.2060  -13.0940   17.0570 C.3     9  LEU9        0.0311
     14  CG        11.2660  -13.7450   18.0740 C.3     9  LEU9        0.0022
     15  CD1       10.7540  -12.7080   19.0650 C.3     9  LEU9        0.0001
     16  CD2       10.1150  -14.4680   17.3990 C.3     9  LEU9        0.0001
     17  N         13.2500  -10.2400   16.0760 N.am   10  ASN10      -0.1958
     18  CA        14.4320   -9.5480   15.6140 C.3    10  ASN10       0.1819
     19  C         15.6980  -10.3340   15.9100 C.2    10  ASN10       0.2621
     20  O         15.7680  -11.0850   16.8840 O.2    10  ASN10      -0.2715
     21  CB        14.5380   -8.1820   16.2810 C.3    10  ASN10       0.1195
     22  CG        15.5750   -7.3130   15.6290 C.2    10  ASN10       0.2630
     23  OD1       15.6270   -7.2140   14.4080 O.2    10  ASN10      -0.2716
     24  ND2       16.4240   -6.6900   16.4330 N.am   10  ASN10      -0.0877
     25  N         16.6940  -10.1550   15.0530 N.am   11  ASP11      -0.1957
     26  CA        18.0490  -10.5980   15.3400 C.3    11  ASP11       0.1840
     27  C         19.0250   -9.6630   14.6150 C.2    11  ASP11       0.2622
     28  O         18.6080   -8.8410   13.7970 O.2    11  ASP11      -0.2715
     29  CB        18.2350  -12.0740   14.9570 C.3    11  ASP11       0.1450
     30  CG        18.2020  -12.3020   13.4630 C.2    11  ASP11       0.3671
     31  OD1       19.1440  -11.8580   12.7930 O.co2  11  ASP11      -0.2456
     32  OD2       17.2560  -12.9410   12.9550 O.co2  11  ASP11      -0.2456
     33  N         20.3120   -9.7660   14.9320 N.am   12  ASP12      -0.1957
     34  CA        21.2960   -8.8220   14.4070 C.3    12  ASP12       0.1840
     35  C         21.9610   -9.3010   13.1140 C.2    12  ASP12       0.2622
     36  O         22.8980   -8.6680   12.6230 O.2    12  ASP12      -0.2715
     37  CB        22.3790   -8.5560   15.4580 C.3    12  ASP12       0.1450
     38  CG        21.8420   -7.8690   16.7080 C.2    12  ASP12       0.3671
     39  OD1       20.7950   -7.1870   16.6330 O.co2  12  ASP12      -0.2456
     40  OD2       22.4810   -8.0050   17.7730 O.co2  12  ASP12      -0.2456
     41  N         21.4670  -10.4040   12.5580 N.am   13  TYR13      -0.1960
     42  CA        22.1020  -11.0370   11.4050 C.3    13  TYR13       0.1771
     43  C         21.2640  -11.0160   10.1230 C.2    13  TYR13       0.2620
     44  O         21.7930  -10.8190    9.0290 O.2    13  TYR13      -0.2715
     45  CB        22.4290  -12.4930   11.7400 C.3    13  TYR13       0.0574
     46  CG        23.1750  -12.6870   13.0430 C.ar   13  TYR13      -0.0198
     47  CD1       24.5220  -12.3640   13.1460 C.ar   13  TYR13      -0.0009
     48  CD2       22.5330  -13.2030   14.1640 C.ar   13  TYR13      -0.0009
     49  CE1       25.2100  -12.5430   14.3320 C.ar   13  TYR13       0.0417
     50  CE2       23.2100  -13.3880   15.3550 C.ar   13  TYR13       0.0417
     51  CZ        24.5490  -13.0580   15.4340 C.ar   13  TYR13       0.1957
     52  OH        25.2200  -13.2490   16.6230 O.3    13  TYR13      -0.2866
     53  N         19.9640  -11.2520   10.2540 N.am   14  THR14      -0.1937
     54  CA        19.1010  -11.3930    9.0920 C.3    14  THR14       0.2013
     55  C         18.9310  -10.0410    8.4140 C.2    14  THR14       0.2484
     56  O         18.5210   -9.0770    9.0570 O.2    14  THR14      -0.2729
     57  CB        17.7140  -11.9210    9.4960 C.3    14  THR14       0.1807
     58  OG1       17.8490  -13.1840   10.1630 O.3    14  THR14      -0.2208
     59  CG2       16.8240  -12.0780    8.2660 C.3    14  THR14       0.0379
     60  N         19.2430   -9.9630    7.1100 N.am   15  PRO15      -0.2715
     61  CA        19.1010   -8.6820    6.4060 C.3    15  PRO15       0.1536
     62  C         17.6580   -8.1780    6.3670 C.2    15  PRO15       0.2598
     63  O         16.7240   -8.9620    6.2110 O.2    15  PRO15      -0.2715
     64  CB        19.5860   -8.9970    4.9880 C.3    15  PRO15       0.0310
     65  CG        20.4060  -10.2350    5.1100 C.3    15  PRO15       0.0237
     66  CD        19.8320  -11.0080    6.2550 C.3    15  PRO15       0.0939
     67  N         17.4940   -6.8670    6.5040 N.am   16  ALA16      -0.1978
     68  CA        16.1880   -6.2330    6.4450 C.3    16  ALA16       0.1597
     69  C         15.4290   -6.6350    5.1860 C.2    16  ALA16       0.2287
     70  O         14.2390   -6.9300    5.2390 O.2    16  ALA16      -0.2864
     71  CB        16.3530   -4.7180    6.4860 C.3    16  ALA16       0.0319
     72  N         13.7150   -9.9840    5.3390 N.3    19  VAL19      -0.1245
     73  CA        12.4920   -9.9540    6.1290 C.3    19  VAL19       0.1561
     74  C         11.3390   -9.3840    5.2970 C.2    19  VAL19       0.2260
     75  O         10.2320   -9.9170    5.3190 O.2    19  VAL19      -0.2867
     76  CB        12.6760   -9.1490    7.4350 C.3    19  VAL19       0.0252
     77  CG1       11.3700   -9.0700    8.2030 C.3    19  VAL19       0.0019
     78  CG2       13.7630   -9.7860    8.2970 C.3    19  VAL19       0.0019
     79  N          8.6440   -4.9900    9.0820 N.3    38  MET38      -0.1245
     80  CA        10.0720   -5.2340    9.2380 C.3    38  MET38       0.1570
     81  C         10.6760   -4.2060   10.1900 C.2    38  MET38       0.2261
     82  O         11.4520   -4.5490   11.0810 O.2    38  MET38      -0.2867
     83  CB        10.7750   -5.1900    7.8810 C.3    38  MET38       0.0387
     84  CG        12.2900   -5.3450    7.9570 C.3    38  MET38       0.0595
     85  SD        13.1780   -3.8090    8.2910 S.3    38  MET38      -0.1393
     86  CE        12.9020   -2.9280    6.7590 C.3    38  MET38       0.0692
     87  N          9.6610   -4.8600   13.7610 N.3    41  VAL41      -0.1231
     88  CA        10.4000   -5.9640   14.3540 C.3    41  VAL41       0.1692
     89  C         11.7680   -5.4640   14.7950 C.2    41  VAL41       0.2592
     90  O         12.2420   -5.7890   15.8830 O.2    41  VAL41      -0.2718
     91  CB        10.5680   -7.1350   13.3610 C.3    41  VAL41       0.0266
     92  CG1       11.4750   -8.2100   13.9480 C.3    41  VAL41       0.0020
     93  CG2        9.2140   -7.7220   12.9930 C.3    41  VAL41       0.0020
     94  N         12.3940   -4.6590   13.9460 N.am   42  HIS42      -0.1976
     95  CA        13.7010   -4.0980   14.2350 C.3    42  HIS42       0.1656
     96  C         13.6640   -3.2250   15.4910 C.2    42  HIS42       0.2291
     97  O         14.5700   -3.2790   16.3230 O.2    42  HIS42      -0.2864
     98  CB        14.1690   -3.2840   13.0290 C.3    42  HIS42       0.0771
     99  CG        15.5230   -2.6690   13.1910 C.ar   42  HIS42       0.0820
    100  ND1       16.6890   -3.3830   13.0220 N.ar   42  HIS42      -0.2267
    101  CD2       15.8970   -1.3990   13.4700 C.ar   42  HIS42       0.1154
    102  CE1       17.7240   -2.5840   13.2070 C.ar   42  HIS42       0.1986
    103  NE2       17.2710   -1.3730   13.4810 N.ar   42  HIS42      -0.2212
    104  N         16.8490  -16.1820   11.2010 N.3    75  LEU75      -0.1245
    105  CA        15.5340  -15.6170   11.5020 C.3    75  LEU75       0.1561
    106  C         14.6390  -16.5760   12.2900 C.2    75  LEU75       0.2260
    107  O         14.4210  -17.7140   11.8730 O.2    75  LEU75      -0.2867
    108  CB        14.8400  -15.2230   10.1990 C.3    75  LEU75       0.0270
    109  CG        13.5180  -14.4690   10.3340 C.3    75  LEU75       0.0019
    110  CD1       13.7340  -13.1400   11.0330 C.3    75  LEU75       0.0001
    111  CD2       12.8920  -14.2530    8.9670 C.3    75  LEU75       0.0001
@<TRIPOS>BOND
     1    64    65    1
     2    64    61    1
     3    65    66    1
     4    69    70    2
     5    69    68    1
     6    74    75    2
     7    74    73    1
     8    72    73    1
     9    73    76    1
    10    63    62    2
    11    66    60    1
    12    62    61    1
    13    62    67   am
    14    61    60    1
    15    68    71    1
    16    68    67    1
    17    86    85    1
    18    60    55   am
    19    76    77    1
    20    76    78    1
    21    83    84    1
    22    83    80    1
    23    84    85    1
    24    59    57    1
    25    55    56    2
    26    55    54    1
    27   111   109    1
    28    44    43    2
    29    79    80    1
    30    54    57    1
    31    54    53    1
    32    80    81    1
    33    57    58    1
    34    43    53   am
    35    43    42    1
    36    81    82    2
    37   108   109    1
    38   108   105    1
    39   109   110    1
    40     8     6    1
    41     7     5    1
    42   104   105    1
    43    42    45    1
    44    42    41    1
    45   105   106    1
    46    45    46    1
    47   107   106    2
    48     6     5    1
    49     5     2    1
    50    41    35   am
    51    36    35    2
    52    31    30   ar
    53    32    30   ar
    54    93    91    1
    55   100    99   ar
    56   100   102   ar
    57    98    99    1
    58    98    95    1
    59    46    47   ar
    60    46    48   ar
    61    35    34    1
    62    47    49   ar
    63    99   101   ar
    64   102   103   ar
    65    91    92    1
    66    91    88    1
    67    30    29    1
    68   101   103   ar
    69     2     1    1
    70     2     3    1
    71    87    88    1
    72    28    27    2
    73    94    95    1
    74    94    89   am
    75    48    50   ar
    76    95    96    1
    77    49    51   ar
    78    88    89    1
    79    34    33    1
    80    34    37    1
    81    23    22    2
    82    12    11    2
    83    27    33   am
    84    27    26    1
    85     3     9   am
    86     3     4    2
    87    89    90    2
    88    29    26    1
    89    25    26    1
    90    25    19   am
    91     9    10    1
    92    50    51   ar
    93    51    52    1
    94    11    17   am
    95    11    10    1
    96    37    38    1
    97    96    97    2
    98    18    19    1
    99    18    17    1
   100    18    21    1
   101    22    21    1
   102    22    24   am
   103    19    20    2
   104    10    13    1
   105    39    38   ar
   106    38    40   ar
   107    13    14    1
   108    16    14    1
   109    14    15    1
