@<TRIPOS>MOLECULE
tmp/3g3rB00.pdb
 145 137 0 0 0
SMALL
GASTEIGER

@<TRIPOS>ATOM
      1  N         -7.5610    0.7240  -17.7300 N.3     8  LYS8       -0.1245
      2  CA        -6.6410   -0.3980  -17.7820 C.3     8  LYS8        0.1561
      3  C         -5.9870   -0.5000  -19.1520 C.2     8  LYS8        0.2260
      4  O         -6.5590   -0.0750  -20.1560 O.2     8  LYS8       -0.2867
      5  CB        -7.3800   -1.6860  -17.4250 C.3     8  LYS8        0.0271
      6  CG        -7.9330   -1.6600  -16.0070 C.3     8  LYS8        0.0035
      7  CD        -8.8850   -2.8150  -15.7410 C.3     8  LYS8        0.0206
      8  CE        -9.3860   -2.7740  -14.3080 C.3     8  LYS8        0.1093
      9  NZ       -10.2710   -3.9210  -14.0160 N.3     8  LYS8       -0.1314
     10  N        -10.8720  -16.9240   -7.4700 N.3    47  TYR47      -0.1241
     11  CA       -12.2210  -16.5140   -7.8680 C.3    47  TYR47       0.1605
     12  C        -13.1960  -17.6880   -7.7770 C.2    47  TYR47       0.2264
     13  O        -12.8700  -18.8180   -8.1520 O.2    47  TYR47      -0.2867
     14  CB       -12.2080  -15.9630   -9.2890 C.3    47  TYR47       0.0534
     15  CG       -11.6400  -14.5670   -9.3970 C.ar   47  TYR47      -0.0201
     16  CD1      -12.4560  -13.4520   -9.2370 C.ar   47  TYR47      -0.0009
     17  CD2      -10.2930  -14.3650   -9.6690 C.ar   47  TYR47      -0.0009
     18  CE1      -11.9450  -12.1720   -9.3390 C.ar   47  TYR47       0.0417
     19  CE2       -9.7610  -13.0830   -9.7690 C.ar   47  TYR47       0.0417
     20  CZ       -10.5920  -11.9920   -9.6050 C.ar   47  TYR47       0.1957
     21  OH       -10.0770  -10.7200   -9.7070 O.3    47  TYR47      -0.2866
     22  N        -13.9080  -13.3170   -4.6370 N.3    70  ARG70      -0.1245
     23  CA       -12.5590  -13.8940   -4.6320 C.3    70  ARG70       0.1563
     24  C        -11.9470  -13.8860   -3.2360 C.2    70  ARG70       0.2260
     25  O        -12.2380  -13.0010   -2.4330 O.2    70  ARG70      -0.2867
     26  CB       -11.6590  -13.1350   -5.5930 C.3    70  ARG70       0.0307
     27  CG       -11.3110  -11.7300   -5.0940 C.3    70  ARG70       0.0489
     28  CD       -10.7910  -10.8510   -6.2060 C.3    70  ARG70       0.2205
     29  NE       -10.3960   -9.5420   -5.6920 N.pl3  70  ARG70      -0.0865
     30  CZ       -10.1290   -8.4880   -6.4520 C.cat  70  ARG70       0.5346
     31  NH1      -10.1950   -8.5900   -7.7740 N.pl3  70  ARG70       0.1354
     32  NH2       -9.8010   -7.3310   -5.8840 N.pl3  70  ARG70       0.1354
     33  N         -8.3400  -13.6510   -1.3560 N.3    72  ARG72      -0.1245
     34  CA        -7.0870  -13.0690   -1.8090 C.3    72  ARG72       0.1563
     35  C         -6.0570  -13.0180   -0.6990 C.2    72  ARG72       0.2260
     36  O         -6.3890  -12.6900    0.4380 O.2    72  ARG72      -0.2867
     37  CB        -7.3150  -11.6430   -2.3010 C.3    72  ARG72       0.0307
     38  CG        -5.9930  -10.8860   -2.5640 C.3    72  ARG72       0.0489
     39  CD        -6.2310   -9.5190   -3.2210 C.3    72  ARG72       0.2205
     40  NE        -6.5110   -9.6710   -4.6410 N.pl3  72  ARG72      -0.0865
     41  CZ        -6.5760   -8.6750   -5.5120 C.cat  72  ARG72       0.5346
     42  NH1       -6.3620   -7.4300   -5.1220 N.pl3  72  ARG72       0.1354
     43  NH2       -6.8280   -8.9360   -6.7840 N.pl3  72  ARG72       0.1354
     44  N        -16.9560   -7.8000   -5.3640 N.3    87  LYS87      -0.1245
     45  CA       -17.1740   -6.6410   -6.2220 C.3    87  LYS87       0.1561
     46  C        -18.6010   -6.6910   -6.7110 C.2    87  LYS87       0.2260
     47  O        -19.0970   -7.7610   -7.0600 O.2    87  LYS87      -0.2867
     48  CB       -16.2310   -6.6830   -7.4250 C.3    87  LYS87       0.0271
     49  CG       -14.7560   -6.4760   -7.0590 C.3    87  LYS87       0.0035
     50  CD       -13.8330   -6.8990   -8.1880 C.3    87  LYS87       0.0206
     51  CE       -14.0430   -6.0580   -9.4420 C.3    87  LYS87       0.1093
     52  NZ       -13.2220   -6.5610  -10.5920 N.3    87  LYS87      -0.1314
     53  N        -16.3810   -2.3010   -4.3010 N.3   100  LYS100     -0.1245
     54  CA       -15.5440   -3.4280   -3.8980 C.3   100  LYS100      0.1561
     55  C        -15.4600   -3.3830   -2.3780 C.2   100  LYS100      0.2260
     56  O        -15.2550   -2.3250   -1.7960 O.2   100  LYS100     -0.2867
     57  CB       -14.1510   -3.3300   -4.5380 C.3   100  LYS100      0.0271
     58  CG       -13.1900   -4.4280   -4.1030 C.3   100  LYS100      0.0035
     59  CD       -11.8960   -4.4190   -4.9160 C.3   100  LYS100      0.0206
     60  CE       -10.9980   -3.2290   -4.5590 C.3   100  LYS100      0.1093
     61  NZ        -9.5650   -3.4640   -4.9360 N.3   100  LYS100     -0.1314
     62  N         -5.9190  -16.1760  -10.0180 N.3   163  SER163     -0.1217
     63  CA        -5.0880  -15.2270  -10.7350 C.3   163  SER163      0.1889
     64  C         -3.8870  -14.9730   -9.8570 C.2   163  SER163      0.2288
     65  O         -4.0310  -14.7670   -8.6530 O.2   163  SER163     -0.2866
     66  CB        -5.8260  -13.9060  -11.0000 C.3   163  SER163      0.2089
     67  OG        -5.8380  -13.0840   -9.8530 O.3   163  SER163     -0.2183
     68  N         -0.2260  -12.6060   -9.8480 N.3   165  TYR165     -0.1241
     69  CA         0.6600  -11.6520  -10.5090 C.3   165  TYR165      0.1605
     70  C          1.5590  -10.9330   -9.5120 C.2   165  TYR165      0.2264
     71  O          1.3480  -11.0140   -8.3060 O.2   165  TYR165     -0.2867
     72  CB        -0.1430  -10.6600  -11.3570 C.3   165  TYR165      0.0534
     73  CG        -1.2040   -9.9140  -10.5870 C.ar  165  TYR165     -0.0201
     74  CD1       -0.9260   -8.6860  -10.0140 C.ar  165  TYR165     -0.0009
     75  CD2       -2.4860  -10.4390  -10.4270 C.ar  165  TYR165     -0.0009
     76  CE1       -1.8920   -7.9860   -9.3030 C.ar  165  TYR165      0.0417
     77  CE2       -3.4610   -9.7380   -9.7210 C.ar  165  TYR165      0.0417
     78  CZ        -3.1490   -8.5200   -9.1600 C.ar  165  TYR165      0.1957
     79  OH        -4.0890   -7.8130   -8.4540 O.3   165  TYR165     -0.2866
     80  N          2.7270   -7.2270   -8.3510 N.3   167  ARG167     -0.1245
     81  CA         2.3020   -5.8490   -8.5060 C.3   167  ARG167      0.1563
     82  C          3.3520   -4.8600   -8.0340 C.2   167  ARG167      0.2260
     83  O          3.8590   -4.9630   -6.9200 O.2   167  ARG167     -0.2867
     84  CB         0.9910   -5.5930   -7.7680 C.3   167  ARG167      0.0307
     85  CG         0.5750   -4.1130   -7.7490 C.3   167  ARG167      0.0489
     86  CD        -0.8910   -3.9700   -7.3340 C.3   167  ARG167      0.2205
     87  NE        -1.7950   -4.3740   -8.4170 N.pl3 167  ARG167     -0.0865
     88  CZ        -3.1100   -4.5120   -8.2810 C.cat 167  ARG167      0.5346
     89  NH1       -3.6810   -4.2940   -7.1030 N.pl3 167  ARG167      0.1354
     90  NH2       -3.8560   -4.8830   -9.3180 N.pl3 167  ARG167      0.1354
     91  N         -2.6290   -0.3110  -14.6060 N.3   232  GLU232     -0.1245
     92  CA        -3.8750    0.3090  -14.1640 C.3   232  GLU232      0.1567
     93  C         -3.6120    1.7150  -13.6800 C.2   232  GLU232      0.2260
     94  O         -2.7520    1.9200  -12.8410 O.2   232  GLU232     -0.2867
     95  CB        -4.5440   -0.5140  -13.0720 C.3   232  GLU232      0.0388
     96  CG        -4.7670   -1.9500  -13.4880 C.3   232  GLU232      0.1160
     97  CD        -5.7300   -2.6680  -12.5850 C.2   232  GLU232      0.3649
     98  OE1       -5.9510   -2.1750  -11.4540 O.co2 232  GLU232     -0.2457
     99  OE2       -6.2660   -3.7190  -13.0120 O.co2 232  GLU232     -0.2457
    100  N         -5.2080    4.9780  -11.8500 N.3   234  LYS234     -0.1245
    101  CA        -6.3070    5.5220  -11.0560 C.3   234  LYS234      0.1561
    102  C         -6.1360    7.0170  -10.8500 C.2   234  LYS234      0.2260
    103  O         -5.0800    7.4760  -10.4070 O.2   234  LYS234     -0.2867
    104  CB        -6.4220    4.8100   -9.7070 C.3   234  LYS234      0.0271
    105  CG        -6.7750    3.3350   -9.8100 C.3   234  LYS234      0.0035
    106  CD        -7.2380    2.7900   -8.4610 C.3   234  LYS234      0.0206
    107  CE        -7.8970    1.4220   -8.5950 C.3   234  LYS234      0.1093
    108  NZ        -8.4410    0.9490   -7.2900 N.3   234  LYS234     -0.1314
    109  N        -10.9130   -4.5280  -18.9030 N.3   262  PHE262     -0.1227
    110  CA       -10.2090   -5.8050  -18.8640 C.3   262  PHE262      0.1736
    111  C        -10.4650   -6.4050  -17.4910 C.2   262  PHE262      0.2596
    112  O        -10.5110   -5.6800  -16.4930 O.2   262  PHE262     -0.2718
    113  CB        -8.6950   -5.6420  -19.0930 C.3   262  PHE262      0.0547
    114  CG        -7.9210   -6.9370  -18.9710 C.ar  262  PHE262     -0.0202
    115  CD1       -8.0320   -7.9250  -19.9430 C.ar  262  PHE262     -0.0042
    116  CD2       -7.0790   -7.1650  -17.8880 C.ar  262  PHE262     -0.0042
    117  CE1       -7.3160   -9.1240  -19.8400 C.ar  262  PHE262     -0.0003
    118  CE2       -6.3600   -8.3560  -17.7790 C.ar  262  PHE262     -0.0003
    119  CZ        -6.4840   -9.3390  -18.7590 C.ar  262  PHE262     -0.0000
    120  N        -10.6480   -7.7220  -17.4440 N.am  263  SER263     -0.1938
    121  CA       -10.8790   -8.4150  -16.1870 C.3   263  SER263      0.2055
    122  C        -10.0930   -9.7170  -16.1240 C.2   263  SER263      0.2643
    123  O        -10.2200  -10.5750  -16.9970 O.2   263  SER263     -0.2714
    124  CB       -12.3640   -8.7190  -16.0110 C.3   263  SER263      0.2130
    125  OG       -12.5430   -9.7150  -15.0210 O.3   263  SER263     -0.2179
    126  N         -9.2880   -9.8710  -15.0800 N.am  264  LYS264     -0.1963
    127  CA        -8.4780  -11.0700  -14.9440 C.3   264  LYS264      0.1728
    128  C         -9.3820  -12.2810  -14.7390 C.2   264  LYS264      0.2616
    129  O         -9.1070  -13.3660  -15.2580 O.2   264  LYS264     -0.2715
    130  CB        -7.4810  -10.9350  -13.7810 C.3   264  LYS264      0.0311
    131  CG        -6.4260   -9.8250  -13.9640 C.3   264  LYS264      0.0038
    132  CD        -5.5370   -9.6900  -12.7260 C.3   264  LYS264      0.0206
    133  CE        -4.3760   -8.6900  -12.9320 C.3   264  LYS264      0.1093
    134  NZ        -4.8130   -7.2580  -12.9480 N.3   264  LYS264     -0.1314
    135  N        -10.4400  -12.0890  -13.9580 N.am  265  PHE265     -0.1974
    136  CA       -11.4120  -13.1430  -13.7030 C.3   265  PHE265      0.1639
    137  C        -12.0100  -13.6340  -15.0190 C.2   265  PHE265      0.2290
    138  O        -11.9410  -14.8220  -15.3380 O.2   265  PHE265     -0.2864
    139  CB       -12.5220  -12.6470  -12.7560 C.3   265  PHE265      0.0560
    140  CG       -13.7230  -13.5880  -12.6550 C.ar  265  PHE265     -0.0200
    141  CD1      -13.5440  -14.9540  -12.5170 C.ar  265  PHE265     -0.0042
    142  CD2      -15.0210  -13.0870  -12.6630 C.ar  265  PHE265     -0.0042
    143  CE1      -14.6430  -15.8280  -12.4030 C.ar  265  PHE265     -0.0003
    144  CE2      -16.1320  -13.9570  -12.5480 C.ar  265  PHE265     -0.0003
    145  CZ       -15.9330  -15.3280  -12.4250 C.ar  265  PHE265     -0.0000
@<TRIPOS>BOND
     1     4     3    2
     2   115   117   ar
     3   115   114   ar
     4   117   119   ar
     5     3     2    1
     6   113   114    1
     7   113   110    1
     8   114   116   ar
     9   109   110    1
    10   110   111    1
    11   119   118   ar
    12   116   118   ar
    13     2     1    1
    14     2     5    1
    15   111   120   am
    16   111   112    2
    17   120   121    1
    18     5     6    1
    19   123   122    2
    20   121   122    1
    21   121   124    1
    22   122   126   am
    23   124   125    1
    24     6     7    1
    25     7     8    1
    26   138   137    2
    27   129   128    2
    28   126   127    1
    29   137   136    1
    30   127   128    1
    31   127   130    1
    32   128   135   am
    33    91    92    1
    34     8     9    1
    35    92    93    1
    36    92    95    1
    37   131   130    1
    38   131   132    1
    39   135   136    1
    40   136   139    1
    41    93    94    2
    42    96    95    1
    43    96    97    1
    44    99    97   ar
    45   134   133    1
    46   133   132    1
    47   139   140    1
    48   142   140   ar
    49   142   144   ar
    50   140   141   ar
    51    97    98   ar
    52   144   145   ar
    53   141   143   ar
    54   145   143   ar
    55   100   101    1
    56    72    73    1
    57    72    69    1
    58   101   102    1
    59   101   104    1
    60    66    63    1
    61    66    67    1
    62   102   103    2
    63    63    62    1
    64    63    64    1
    65    52    51    1
    66    73    75   ar
    67    73    74   ar
    68    69    68    1
    69    69    70    1
    70    75    77   ar
    71    74    76   ar
    72    64    65    2
    73   105   104    1
    74   105   106    1
    75    19    17   ar
    76    19    20   ar
    77    77    78   ar
    78    21    20    1
    79    17    15   ar
    80    20    18   ar
    81    70    71    2
    82    51    50    1
    83    15    14    1
    84    15    16   ar
    85    18    16   ar
    86    90    88    1
    87    76    78   ar
    88    14    11    1
    89    78    79    1
    90   107   106    1
    91   107   108    1
    92    81    80    1
    93    81    82    1
    94    81    84    1
    95    87    88    2
    96    87    86    1
    97    88    89    1
    98    50    49    1
    99    13    12    2
   100    82    83    2
   101    11    12    1
   102    11    10    1
   103    31    30    1
   104    84    85    1
   105    85    86    1
   106    48    49    1
   107    48    45    1
   108    47    46    2
   109    43    41    1
   110    46    45    1
   111    30    32    1
   112    30    29    2
   113    45    44    1
   114    28    29    1
   115    28    27    1
   116    26    27    1
   117    26    23    1
   118    41    42    1
   119    41    40    2
   120    61    60    1
   121    59    60    1
   122    59    58    1
   123    40    39    1
   124    22    23    1
   125    23    24    1
   126    57    58    1
   127    57    54    1
   128    53    54    1
   129    54    55    1
   130    24    25    2
   131    39    38    1
   132    38    37    1
   133    55    56    2
   134    37    34    1
   135    34    33    1
   136    34    35    1
   137    35    36    2
