@<TRIPOS>MOLECULE
tmp/3g3uA01.pdb
 114 108 0 0 0
SMALL
GASTEIGER

@<TRIPOS>ATOM
      1  N         19.7430   18.4940    8.7520 N.3     6  LYS6       -0.1245
      2  CA        18.3790   18.9660    8.6080 C.3     6  LYS6        0.1561
      3  C         18.3110   20.2400    7.7730 C.2     6  LYS6        0.2260
      4  O         19.2050   21.0890    7.8330 O.2     6  LYS6       -0.2867
      5  CB        17.7530   19.1940    9.9880 C.3     6  LYS6        0.0271
      6  CG        17.8470   17.9800   10.8810 C.3     6  LYS6        0.0035
      7  CD        17.2450   18.2040   12.2680 C.3     6  LYS6        0.0206
      8  CE        17.5890   17.0030   13.1520 C.3     6  LYS6        0.1093
      9  NZ        17.3280   17.1900   14.5970 N.3     6  LYS6       -0.1314
     10  N          5.7050   16.6190   23.8450 N.3    47  TYR47      -0.1241
     11  CA         6.9470   16.8460   24.5720 C.3    47  TYR47       0.1605
     12  C          6.6270   17.2730   25.9860 C.2    47  TYR47       0.2264
     13  O          5.7630   18.1260   26.2010 O.2    47  TYR47      -0.2867
     14  CB         7.8020   17.9120   23.8690 C.3    47  TYR47       0.0534
     15  CG         8.4890   17.4040   22.6260 C.ar   47  TYR47      -0.0201
     16  CD1        9.7440   16.8190   22.7000 C.ar   47  TYR47      -0.0009
     17  CD2        7.8770   17.4850   21.3780 C.ar   47  TYR47      -0.0009
     18  CE1       10.3840   16.3380   21.5710 C.ar   47  TYR47       0.0417
     19  CE2        8.5260   17.0110   20.2280 C.ar   47  TYR47       0.0417
     20  CZ         9.7700   16.4400   20.3450 C.ar   47  TYR47       0.1957
     21  OH        10.4140   15.9770   19.2320 O.3    47  TYR47      -0.2866
     22  N         18.4450   21.1190   26.2410 N.3    59  ARG59      -0.1245
     23  CA        18.5680   20.8050   24.8180 C.3    59  ARG59       0.1563
     24  C         19.0800   22.0090   24.0200 C.2    59  ARG59       0.2260
     25  O         19.8430   21.8500   23.0690 O.2    59  ARG59      -0.2867
     26  CB        17.2180   20.3500   24.2430 C.3    59  ARG59       0.0307
     27  CG        16.6080   19.1260   24.9570 C.3    59  ARG59       0.0489
     28  CD        17.3200   17.8300   24.5630 C.3    59  ARG59       0.2205
     29  NE        17.1990   17.5330   23.1350 N.pl3  59  ARG59      -0.0865
     30  CZ        17.8410   16.5470   22.5140 C.cat  59  ARG59       0.5346
     31  NH1       18.6440   15.7350   23.1970 N.pl3  59  ARG59       0.1354
     32  NH2       17.6680   16.3570   21.2100 N.pl3  59  ARG59       0.1354
     33  N         15.4480   14.8680   26.0590 N.3    68  ALA68      -0.1245
     34  CA        14.0950   15.2840   25.7070 C.3    68  ALA68       0.1562
     35  C         13.1540   14.0890   25.8580 C.2    68  ALA68       0.2260
     36  O         13.5110   12.9690   25.4860 O.2    68  ALA68      -0.2867
     37  CB        14.0310   15.8510   24.2930 C.3    68  ALA68       0.0290
     38  N          9.2890   12.5620   25.1550 N.3    70  ARG70      -0.1245
     39  CA         8.0680   12.7170   24.3720 C.3    70  ARG70       0.1563
     40  C          7.2820   11.4190   24.2480 C.2    70  ARG70       0.2260
     41  O          7.8380   10.3240   24.2870 O.2    70  ARG70      -0.2867
     42  CB         8.3550   13.2780   22.9780 C.3    70  ARG70       0.0307
     43  CG         8.9740   12.2380   22.0240 C.3    70  ARG70       0.0489
     44  CD         9.5530   12.8640   20.7610 C.3    70  ARG70       0.2205
     45  NE        10.1680   11.8400   19.9150 N.pl3  70  ARG70      -0.0865
     46  CZ        11.0160   12.0600   18.9160 C.cat  70  ARG70       0.5346
     47  NH1       11.4090   13.2950   18.6150 N.pl3  70  ARG70       0.1354
     48  NH2       11.4950   11.0240   18.2310 N.pl3  70  ARG70       0.1354
     49  N         15.2100   11.1190   24.0670 N.3    87  LYS87      -0.1245
     50  CA        16.3660   11.4530   23.2340 C.3    87  LYS87       0.1561
     51  C         17.4320   12.0750   24.1190 C.2    87  LYS87       0.2260
     52  O         17.1310   12.9410   24.9280 O.2    87  LYS87      -0.2867
     53  CB        15.9780   12.4270   22.1260 C.3    87  LYS87       0.0271
     54  CG        15.1650   11.8040   21.0020 C.3    87  LYS87       0.0035
     55  CD        14.7160   12.8420   19.9590 C.3    87  LYS87       0.0206
     56  CE        15.8450   13.2720   19.0330 C.3    87  LYS87       0.1093
     57  NZ        15.3000   13.8710   17.7760 N.3    87  LYS87      -0.1314
     58  N          4.9280   12.6910    7.5620 N.3   167  ARG167     -0.1245
     59  CA         6.2600   12.3050    7.1550 C.3   167  ARG167      0.1563
     60  C          6.2180   11.3460    5.9780 C.2   167  ARG167      0.2260
     61  O          5.4790   10.3680    6.0020 O.2   167  ARG167     -0.2867
     62  CB         7.0060   11.6610    8.3190 C.3   167  ARG167      0.0307
     63  CG         8.2810   10.9430    7.9150 C.3   167  ARG167      0.0489
     64  CD         9.1380   10.6490    9.1350 C.3   167  ARG167      0.2205
     65  NE         9.7390   11.8710    9.6500 N.pl3 167  ARG167     -0.0865
     66  CZ        10.4420   11.9520   10.7730 C.cat 167  ARG167      0.5346
     67  NH1       10.6280   10.8750   11.5230 N.pl3 167  ARG167      0.1354
     68  NH2       10.9520   13.1190   11.1500 N.pl3 167  ARG167      0.1354
     69  N         15.1510   15.7850    6.4650 N.3   232  GLU232     -0.1245
     70  CA        16.2780   15.2110    7.1960 C.3   232  GLU232      0.1567
     71  C         16.9930   14.1020    6.4130 C.2   232  GLU232      0.2260
     72  O         16.3580   13.2020    5.8490 O.2   232  GLU232     -0.2867
     73  CB        15.8380   14.6880    8.5530 C.3   232  GLU232      0.0388
     74  CG        16.9550   14.0400    9.3450 C.3   232  GLU232      0.1160
     75  CD        16.5010   13.5880   10.7200 C.2   232  GLU232      0.3649
     76  OE1       15.5290   14.1760   11.2520 O.co2 232  GLU232     -0.2457
     77  OE2       17.1060   12.6410   11.2650 O.co2 232  GLU232     -0.2457
     78  N         18.3500   22.3580   14.0760 N.3   262  PHE262     -0.1227
     79  CA        16.8950   22.5360   14.1560 C.3   262  PHE262      0.1736
     80  C         16.2290   21.4660   15.0120 C.2   262  PHE262      0.2596
     81  O         16.6410   20.3080   15.0060 O.2   262  PHE262     -0.2718
     82  CB        16.2400   22.5780   12.7770 C.3   262  PHE262      0.0547
     83  CG        14.7500   22.7790   12.8340 C.ar  262  PHE262     -0.0202
     84  CD1       14.2220   24.0020   13.2210 C.ar  262  PHE262     -0.0042
     85  CD2       13.8790   21.7370   12.5190 C.ar  262  PHE262     -0.0042
     86  CE1       12.8350   24.2050   13.2810 C.ar  262  PHE262     -0.0003
     87  CE2       12.5060   21.9190   12.5780 C.ar  262  PHE262     -0.0003
     88  CZ        11.9790   23.1550   12.9550 C.ar  262  PHE262     -0.0000
     89  N         15.2100   21.8700   15.7580 N.am  263  SER263     -0.1938
     90  CA        14.5420   20.9880   16.7060 C.3   263  SER263      0.2055
     91  C         13.1060   21.4290   16.8430 C.2   263  SER263      0.2643
     92  O         12.8450   22.5620   17.2550 O.2   263  SER263     -0.2714
     93  CB        15.2310   21.0370   18.0800 C.3   263  SER263      0.2130
     94  OG        14.4290   20.4220   19.0900 O.3   263  SER263     -0.2179
     95  N         12.1740   20.5450   16.4900 N.am  264  LYS264     -0.1963
     96  CA        10.7600   20.8790   16.5730 C.3   264  LYS264      0.1728
     97  C         10.3680   21.2240   18.0190 C.2   264  LYS264      0.2616
     98  O          9.5900   22.1290   18.2500 O.2   264  LYS264     -0.2715
     99  CB         9.8800   19.7490   16.0040 C.3   264  LYS264      0.0311
    100  CG        10.2820   19.2650   14.6010 C.3   264  LYS264      0.0038
    101  CD         9.2800   18.2210   14.0800 C.3   264  LYS264      0.0206
    102  CE         9.4930   17.8910   12.5970 C.3   264  LYS264      0.1093
    103  NZ        10.6160   16.9490   12.3590 N.3   264  LYS264     -0.1314
    104  N         10.9180   20.4870   18.9770 N.am  265  PHE265     -0.1974
    105  CA        10.6670   20.7460   20.3870 C.3   265  PHE265      0.1639
    106  C         11.0910   22.1640   20.7110 C.2   265  PHE265      0.2290
    107  O         10.3040   22.9700   21.2070 O.2   265  PHE265     -0.2864
    108  CB        11.4480   19.7460   21.2650 C.3   265  PHE265      0.0560
    109  CG        11.3890   20.0430   22.7440 C.ar  265  PHE265     -0.0200
    110  CD1       10.1920   20.3880   23.3530 C.ar  265  PHE265     -0.0042
    111  CD2       12.5270   19.9630   23.5260 C.ar  265  PHE265     -0.0042
    112  CE1       10.1300   20.6470   24.7220 C.ar  265  PHE265     -0.0003
    113  CE2       12.4760   20.2290   24.9030 C.ar  265  PHE265     -0.0003
    114  CZ        11.2740   20.5670   25.5000 C.ar  265  PHE265     -0.0000
@<TRIPOS>BOND
     1    72    71    2
     2    60    61    2
     3    60    59    1
     4    71    70    1
     5    69    70    1
     6    59    58    1
     7    59    62    1
     8    70    73    1
     9     3     4    2
    10     3     2    1
    11    63    62    1
    12    63    64    1
    13    73    74    1
    14     2     1    1
    15     2     5    1
    16    64    65    1
    17    74    75    1
    18    65    66    2
    19     5     6    1
    20    75    76   ar
    21    75    77   ar
    22    66    68    1
    23    66    67    1
    24     6     7    1
    25     7     8    1
    26   103   102    1
    27    85    87   ar
    28    85    83   ar
    29    87    88   ar
    30   102   101    1
    31    82    83    1
    32    82    79    1
    33    83    84   ar
    34    88    86   ar
    35     8     9    1
    36    84    86   ar
    37    78    79    1
    38   101   100    1
    39    79    80    1
    40   100    99    1
    41    81    80    2
    42    80    89   am
    43    89    90    1
    44    99    96    1
    45    95    96    1
    46    95    91   am
    47    96    97    1
    48    90    91    1
    49    90    93    1
    50    91    92    2
    51    57    56    1
    52    97    98    2
    53    97   104   am
    54    93    94    1
    55    48    46    1
    56    47    46    1
    57    46    45    2
    58   104   105    1
    59    56    55    1
    60    21    20    1
    61    45    44    1
    62    55    54    1
    63    19    20   ar
    64    19    17   ar
    65    20    18   ar
    66   105   106    1
    67   105   108    1
    68   106   107    2
    69    44    43    1
    70    54    53    1
    71    32    30    1
    72   108   109    1
    73    17    15   ar
    74    18    16   ar
    75    43    42    1
    76    53    50    1
    77    30    29    2
    78    30    31    1
    79    15    16   ar
    80    15    14    1
    81   109   110   ar
    82   109   111   ar
    83    42    39    1
    84    25    24    2
    85    29    28    1
    86    50    49    1
    87    50    51    1
    88   110   112   ar
    89   111   113   ar
    90    10    11    1
    91    14    11    1
    92    24    23    1
    93    51    52    2
    94    26    23    1
    95    26    27    1
    96    40    41    2
    97    40    39    1
    98    37    34    1
    99    39    38    1
   100    28    27    1
   101    11    12    1
   102   112   114   ar
   103    23    22    1
   104   113   114   ar
   105    36    35    2
   106    34    35    1
   107    34    33    1
   108    12    13    2
