@<TRIPOS>MOLECULE
tmp/3g3yB00.pdb
 131 126 0 0 0
SMALL
GASTEIGER

@<TRIPOS>ATOM
      1  N         -5.8040  -24.5950  -46.3800 N.3   115  LYS115     -0.1245
      2  CA        -7.1200  -25.1740  -46.0760 C.3   115  LYS115      0.1561
      3  C         -8.2630  -24.7330  -47.0020 C.2   115  LYS115      0.2260
      4  O         -9.0250  -25.5740  -47.4630 O.2   115  LYS115     -0.2867
      5  CB        -7.5110  -24.9300  -44.6140 C.3   115  LYS115      0.0271
      6  CG        -6.7140  -25.7540  -43.5900 C.3   115  LYS115      0.0035
      7  CD        -7.1560  -25.3910  -42.1680 C.3   115  LYS115      0.0206
      8  CE        -6.1550  -25.7950  -41.0740 C.3   115  LYS115      0.1093
      9  NZ        -5.2140  -26.8990  -41.4190 N.3   115  LYS115     -0.1314
     10  N         -3.7000  -34.9750  -33.2310 N.3   162  ARG162     -0.1245
     11  CA        -4.6410  -35.7420  -34.0420 C.3   162  ARG162      0.1563
     12  C         -4.1340  -36.0700  -35.4530 C.2   162  ARG162      0.2260
     13  O         -4.6370  -35.5170  -36.4330 O.2   162  ARG162     -0.2867
     14  CB        -5.9860  -35.0070  -34.1180 C.3   162  ARG162      0.0307
     15  CG        -6.7430  -34.9030  -32.7940 C.3   162  ARG162      0.0489
     16  CD        -7.2250  -36.2670  -32.2750 C.3   162  ARG162      0.2205
     17  NE        -7.9010  -36.1350  -30.9860 N.pl3 162  ARG162     -0.0865
     18  CZ        -7.3090  -36.2780  -29.8030 C.cat 162  ARG162      0.5346
     19  NH1       -8.0110  -36.1280  -28.6900 N.pl3 162  ARG162      0.1354
     20  NH2       -6.0200  -36.5740  -29.7270 N.pl3 162  ARG162      0.1354
     21  N         -6.7010  -38.2750  -38.0160 N.3   165  GLU165     -0.1231
     22  CA        -7.8750  -37.4490  -38.3320 C.3   165  GLU165      0.1699
     23  C         -7.5890  -36.3890  -39.3910 C.2   165  GLU165      0.2592
     24  O         -8.5040  -35.9140  -40.0670 O.2   165  GLU165     -0.2718
     25  CB        -8.3660  -36.7320  -37.0730 C.3   165  GLU165      0.0402
     26  CG        -7.8110  -37.3050  -35.7710 C.3   165  GLU165      0.1161
     27  CD        -8.7030  -38.3500  -35.1380 C.2   165  GLU165      0.3649
     28  OE1       -9.9220  -38.3490  -35.4130 O.co2 165  GLU165     -0.2457
     29  OE2       -8.1820  -39.1620  -34.3460 O.co2 165  GLU165     -0.2457
     30  N         -6.3150  -36.0230  -39.5220 N.am  166  ASN166     -0.1974
     31  CA        -5.9000  -34.9110  -40.3660 C.3   166  ASN166      0.1688
     32  C         -5.0120  -35.2760  -41.5550 C.2   166  ASN166      0.2292
     33  O         -4.5870  -34.3800  -42.2860 O.2   166  ASN166     -0.2864
     34  CB        -5.2090  -33.8440  -39.5140 C.3   166  ASN166      0.1181
     35  CG        -6.1490  -33.1890  -38.5250 C.2   166  ASN166      0.2629
     36  OD1       -7.1030  -32.5220  -38.9060 O.2   166  ASN166     -0.2716
     37  ND2       -5.8750  -33.3680  -37.2470 N.am  166  ASN166     -0.0877
     38  N         -6.2700  -33.5320  -44.3490 N.3   169  VAL169     -0.1245
     39  CA        -6.3870  -32.0830  -44.1950 C.3   169  VAL169      0.1561
     40  C         -5.0590  -31.3630  -44.4410 C.2   169  VAL169      0.2260
     41  O         -4.0010  -31.8180  -43.9910 O.2   169  VAL169     -0.2867
     42  CB        -6.8710  -31.7140  -42.7820 C.3   169  VAL169      0.0252
     43  CG1       -7.2210  -30.2250  -42.7000 C.3   169  VAL169      0.0019
     44  CG2       -8.0590  -32.5710  -42.3880 C.3   169  VAL169      0.0019
     45  N          0.2060  -24.1700  -31.8620 N.3   204  TRP204     -0.1241
     46  CA        -1.1390  -23.7160  -32.2210 C.3   204  TRP204      0.1605
     47  C         -2.2150  -24.6720  -31.7260 C.2   204  TRP204      0.2264
     48  O         -2.0710  -25.9070  -31.8000 O.2   204  TRP204     -0.2867
     49  CB        -1.2640  -23.5280  -33.7290 C.3   204  TRP204      0.0550
     50  CG        -2.6440  -23.1280  -34.2300 C.ar  204  TRP204      0.0003
     51  CD1       -3.1050  -21.8570  -34.4450 C.ar  204  TRP204      0.0946
     52  CD2       -3.7130  -24.0090  -34.6200 C.ar  204  TRP204      0.0152
     53  NE1       -4.3920  -21.8910  -34.9300 N.ar  204  TRP204     -0.2442
     54  CE2       -4.7890  -23.1970  -35.0490 C.ar  204  TRP204      0.0810
     55  CE3       -3.8680  -25.4040  -34.6360 C.ar  204  TRP204      0.0012
     56  CZ2       -6.0100  -23.7350  -35.4920 C.ar  204  TRP204      0.0191
     57  CZ3       -5.0770  -25.9390  -35.0730 C.ar  204  TRP204      0.0001
     58  CH2       -6.1370  -25.1020  -35.4910 C.ar  204  TRP204      0.0015
     59  N         -6.6550  -24.9820  -31.8050 N.3   206  SER206     -0.1202
     60  CA        -7.9640  -24.5180  -32.2510 C.3   206  SER206      0.2020
     61  C         -8.6800  -23.7710  -31.1240 C.2   206  SER206      0.2619
     62  O         -8.5980  -24.1670  -29.9590 O.2   206  SER206     -0.2717
     63  CB        -8.8050  -25.7160  -32.7150 C.3   206  SER206      0.2103
     64  OG       -10.1090  -25.3130  -33.0940 O.3   206  SER206     -0.2182
     65  N         -9.3710  -22.6880  -31.4710 N.am  207  TYR207     -0.1961
     66  CA       -10.1470  -21.9290  -30.4850 C.3   207  TYR207      0.1771
     67  C        -11.3980  -22.6810  -30.0320 C.2   207  TYR207      0.2619
     68  O        -11.9300  -22.4310  -28.9500 O.2   207  TYR207     -0.2715
     69  CB       -10.5560  -20.5710  -31.0440 C.3   207  TYR207      0.0574
     70  CG        -9.5820  -19.4490  -30.7730 C.ar  207  TYR207     -0.0198
     71  CD1       -9.2850  -18.5130  -31.7630 C.ar  207  TYR207     -0.0009
     72  CD2       -8.9680  -19.3140  -29.5240 C.ar  207  TYR207     -0.0009
     73  CE1       -8.4030  -17.4730  -31.5250 C.ar  207  TYR207      0.0417
     74  CE2       -8.0750  -18.2730  -29.2700 C.ar  207  TYR207      0.0417
     75  CZ        -7.7990  -17.3590  -30.2800 C.ar  207  TYR207      0.1957
     76  OH        -6.9250  -16.3280  -30.0520 O.3   207  TYR207     -0.2866
     77  N        -11.8560  -23.6030  -30.8720 N.am  208  ARG208     -0.1963
     78  CA       -13.0800  -24.3480  -30.6230 C.3   208  ARG208      0.1729
     79  C        -12.8180  -25.5770  -29.7480 C.2   208  ARG208      0.2616
     80  O        -11.7880  -26.2370  -29.8920 O.2   208  ARG208     -0.2715
     81  CB       -13.7150  -24.7340  -31.9620 C.3   208  ARG208      0.0348
     82  CG       -14.0500  -23.5250  -32.8300 C.3   208  ARG208      0.0492
     83  CD       -14.2470  -23.9010  -34.2740 C.3   208  ARG208      0.2205
     84  NE       -14.7240  -22.7680  -35.0640 N.pl3 208  ARG208     -0.0865
     85  CZ       -14.9490  -22.8060  -36.3730 C.cat 208  ARG208      0.5346
     86  NH1      -15.3850  -21.7260  -37.0060 N.pl3 208  ARG208      0.1354
     87  NH2      -14.7370  -23.9250  -37.0530 N.pl3 208  ARG208      0.1354
     88  N        -13.7510  -25.8530  -28.8330 N.am  209  THR209     -0.1951
     89  CA       -13.7410  -27.0350  -27.9380 C.3   209  THR209      0.1897
     90  C        -12.6230  -27.0790  -26.8680 C.2   209  THR209      0.2313
     91  O        -12.1450  -28.1580  -26.5040 O.2   209  THR209     -0.2863
     92  CB       -13.8080  -28.4140  -28.7080 C.3   209  THR209      0.1794
     93  OG1      -12.5490  -28.6940  -29.3190 O.3   209  THR209     -0.2208
     94  CG2      -14.9010  -28.4290  -29.7690 C.3   209  THR209      0.0378
     95  N         -9.5160  -26.5190  -26.8850 N.3   211  ALA211     -0.1245
     96  CA        -8.4610  -27.4060  -27.4000 C.3   211  ALA211      0.1562
     97  C         -7.1050  -27.1560  -26.7570 C.2   211  ALA211      0.2260
     98  O         -6.3680  -28.0980  -26.4730 O.2   211  ALA211     -0.2867
     99  CB        -8.3640  -27.3000  -28.9230 C.3   211  ALA211      0.0290
    100  N         -7.0500  -28.5880  -23.2920 N.3   214  ARG214     -0.1245
    101  CA        -6.9630  -30.0390  -23.4600 C.3   214  ARG214      0.1563
    102  C         -5.6690  -30.4360  -24.1790 C.2   214  ARG214      0.2260
    103  O         -5.4110  -31.6290  -24.4090 O.2   214  ARG214     -0.2867
    104  CB        -8.1770  -30.5650  -24.2260 C.3   214  ARG214      0.0307
    105  CG        -9.4450  -30.7070  -23.3800 C.3   214  ARG214      0.0489
    106  CD       -10.7110  -30.6030  -24.2280 C.3   214  ARG214      0.2205
    107  NE       -10.6660  -31.5030  -25.3560 N.pl3 214  ARG214     -0.0865
    108  CZ       -10.8030  -31.2260  -26.6470 C.cat 214  ARG214      0.5346
    109  NH1      -10.7000  -32.2430  -27.4760 N.pl3 214  ARG214      0.1354
    110  NH2      -11.0520  -30.0140  -27.1220 N.pl3 214  ARG214      0.1354
    111  N         -4.7370  -30.2260  -27.2740 N.3   216  VAL216     -0.1245
    112  CA        -4.9150  -30.8660  -28.5700 C.3   216  VAL216      0.1561
    113  C         -4.5120  -29.8220  -29.6150 C.2   216  VAL216      0.2260
    114  O         -5.3290  -28.9920  -30.0500 O.2   216  VAL216     -0.2867
    115  CB        -6.3680  -31.3890  -28.7610 C.3   216  VAL216      0.0252
    116  CG1       -6.5430  -32.0510  -30.1370 C.3   216  VAL216      0.0019
    117  CG2       -6.7240  -32.3790  -27.6550 C.3   216  VAL216      0.0019
    118  N         -1.0750  -28.3020  -32.5350 N.3   218  TRP218     -0.1241
    119  CA        -0.1260  -28.5680  -33.6190 C.3   218  TRP218      0.1605
    120  C          1.1450  -27.7570  -33.4230 C.2   218  TRP218      0.2264
    121  O          1.0930  -26.6170  -32.9340 O.2   218  TRP218     -0.2867
    122  CB        -0.7140  -28.1510  -34.9700 C.3   218  TRP218      0.0550
    123  CG        -2.0210  -28.7610  -35.3700 C.ar  218  TRP218      0.0003
    124  CD1       -3.1440  -28.8920  -34.6010 C.ar  218  TRP218      0.0946
    125  CD2       -2.3630  -29.2660  -36.6670 C.ar  218  TRP218      0.0152
    126  NE1       -4.1510  -29.4750  -35.3280 N.ar  218  TRP218     -0.2442
    127  CE2       -3.7030  -29.7130  -36.6010 C.ar  218  TRP218      0.0810
    128  CE3       -1.6640  -29.3980  -37.8750 C.ar  218  TRP218      0.0012
    129  CZ2       -4.3590  -30.2800  -37.6960 C.ar  218  TRP218      0.0191
    130  CZ3       -2.3180  -29.9620  -38.9670 C.ar  218  TRP218      0.0001
    131  CH2       -3.6500  -30.3950  -38.8690 C.ar  218  TRP218      0.0015
@<TRIPOS>BOND
     1     4     3    2
     2     3     2    1
     3     1     2    1
     4     2     5    1
     5     5     6    1
     6    40    39    1
     7    40    41    2
     8    38    39    1
     9    39    42    1
    10     6     7    1
    11    42    43    1
    12    42    44    1
    13    33    32    2
    14     7     8    1
    15    32    31    1
    16     9     8    1
    17    31    30    1
    18    31    34    1
    19    24    23    2
    20    30    23   am
    21    34    35    1
    22    23    22    1
    23   130   131   ar
    24   130   128   ar
    25    36    35    2
    26   131   129   ar
    27    35    37   am
    28    22    21    1
    29    22    25    1
    30   128   125   ar
    31   129   127   ar
    32    25    26    1
    33    87    85    1
    34    86    85    1
    35   125   127   ar
    36   125   123   ar
    37   127   126   ar
    38    13    12    2
    39    85    84    2
    40    26    27    1
    41    56    58   ar
    42    56    54   ar
    43    58    57   ar
    44    12    11    1
    45    28    27   ar
    46   123   122    1
    47   123   124   ar
    48   126   124   ar
    49    27    29   ar
    50    57    55   ar
    51    84    83    1
    52    54    53   ar
    53    54    52   ar
    54   122   119    1
    55    53    51   ar
    56    55    52   ar
    57    52    50   ar
    58    51    50   ar
    59    83    82    1
    60    50    49    1
    61    14    11    1
    62    14    15    1
    63    11    10    1
    64    49    46    1
    65   119   120    1
    66   119   118    1
    67   120   121    2
    68    64    63    1
    69    82    81    1
    70    15    16    1
    71    63    60    1
    72    16    17    1
    73    60    59    1
    74    60    61    1
    75    46    45    1
    76    46    47    1
    77    81    78    1
    78    48    47    2
    79    71    73   ar
    80    71    70   ar
    81    73    75   ar
    82    65    61   am
    83    65    66    1
    84    61    62    2
    85    69    70    1
    86    69    66    1
    87    17    18    2
    88    77    78    1
    89    77    67   am
    90    70    72   ar
    91    78    79    1
    92    66    67    1
    93    75    76    1
    94    75    74   ar
    95   116   115    1
    96   114   113    2
    97    67    68    2
    98    80    79    2
    99    18    20    1
   100    18    19    1
   101    94    92    1
   102    79    88   am
   103   113   112    1
   104    72    74   ar
   105    93    92    1
   106    99    96    1
   107    88    89    1
   108   115   112    1
   109   115   117    1
   110    92    89    1
   111   112   111    1
   112    89    90    1
   113   109   108    1
   114    96    95    1
   115    96    97    1
   116   110   108    1
   117    90    91    2
   118    97    98    2
   119   108   107    2
   120   107   106    1
   121   103   102    2
   122   106   105    1
   123   104   101    1
   124   104   105    1
   125   102   101    1
   126   101   100    1
