@<TRIPOS>MOLECULE
tmp/3g42B00.pdb
 177 172 0 0 0
SMALL
GASTEIGER

@<TRIPOS>ATOM
      1  N         21.3650   28.1160   59.9850 N.3    94  VAL94      -0.1231
      2  CA        20.5030   29.2550   60.2770 C.3    94  VAL94       0.1692
      3  C         20.5890   30.4830   59.3580 C.2    94  VAL94       0.2591
      4  O         19.5740   30.9140   58.8060 O.2    94  VAL94      -0.2718
      5  CB        20.6760   29.7030   61.7470 C.3    94  VAL94       0.0266
      6  CG1       22.0730   30.2310   61.9790 C.3    94  VAL94       0.0020
      7  CG2       19.6330   30.7460   62.0930 C.3    94  VAL94       0.0020
      8  N         21.7810   31.0450   59.1820 N.am   95  LYS95      -0.1980
      9  CA        21.9260   32.2270   58.3370 C.3    95  LYS95       0.1596
     10  C         21.5280   31.9760   56.8850 C.2    95  LYS95       0.2287
     11  O         20.9040   32.8250   56.2480 O.2    95  LYS95      -0.2864
     12  CB        23.3620   32.7490   58.3980 C.3    95  LYS95       0.0298
     13  CG        23.8090   33.1520   59.7990 C.3    95  LYS95       0.0038
     14  CD        25.2520   33.6380   59.8010 C.3    95  LYS95       0.0206
     15  CE        25.7110   34.0270   61.2000 C.3    95  LYS95       0.1093
     16  NZ        27.1560   34.4030   61.2130 N.3    95  LYS95      -0.1314
     17  N         22.5650   25.0530   69.7540 N.3   126  GLY126     -0.1210
     18  CA        21.3880   25.5730   70.4300 C.3   126  GLY126      0.1956
     19  C         20.7710   26.8330   69.8480 C.2   126  GLY126      0.2613
     20  O         19.9460   27.4720   70.5020 O.2   126  GLY126     -0.2717
     21  N         21.1620   27.2090   68.6350 N.am  127  THR127     -0.1938
     22  CA        20.5910   28.3990   68.0150 C.3   127  THR127      0.2028
     23  C         19.0870   28.1630   67.8750 C.2   127  THR127      0.2642
     24  O         18.6590   27.1000   67.4270 O.2   127  THR127     -0.2714
     25  CB        21.2050   28.6630   66.6280 C.3   127  THR127      0.1808
     26  OG1       22.6320   28.7150   66.7450 O.3   127  THR127     -0.2208
     27  CG2       20.7080   29.9930   66.0720 C.3   127  THR127      0.0379
     28  N         18.2910   29.1490   68.2720 N.am  128  LEU128     -0.1963
     29  CA        16.8350   29.0320   68.2260 C.3   128  LEU128      0.1728
     30  C         16.1750   29.8850   67.1530 C.2   128  LEU128      0.2617
     31  O         15.0600   29.5930   66.7270 O.2   128  LEU128     -0.2715
     32  CB        16.2470   29.3980   69.5940 C.3   128  LEU128      0.0311
     33  CG        16.6610   28.4780   70.7460 C.3   128  LEU128      0.0022
     34  CD1       16.2770   29.1060   72.0780 C.3   128  LEU128      0.0001
     35  CD2       15.9920   27.1280   70.5790 C.3   128  LEU128      0.0001
     36  N         16.8570   30.9420   66.7250 N.am  129  GLY129     -0.1940
     37  CA        16.2880   31.8000   65.7070 C.3   129  GLY129      0.2014
     38  C         17.2950   32.7690   65.1330 C.2   129  GLY129      0.2639
     39  O         18.4650   32.7630   65.5140 O.2   129  GLY129     -0.2714
     40  N         16.8290   33.6140   64.2200 N.am  130  LEU130     -0.1963
     41  CA        17.6780   34.6020   63.5740 C.3   130  LEU130      0.1728
     42  C         16.7880   35.6080   62.8620 C.2   130  LEU130      0.2616
     43  O         15.7320   35.2510   62.3430 O.2   130  LEU130     -0.2715
     44  CB        18.6040   33.9220   62.5620 C.3   130  LEU130      0.0311
     45  CG        19.5850   34.8250   61.8080 C.3   130  LEU130      0.0022
     46  CD1       20.4960   35.5450   62.7980 C.3   130  LEU130      0.0001
     47  CD2       20.4010   33.9840   60.8350 C.3   130  LEU130      0.0001
     48  N         17.2150   36.8650   62.8410 N.am  131  ALA131     -0.1977
     49  CA        16.4420   37.9140   62.1960 C.3   131  ALA131      0.1597
     50  C         17.3030   39.1450   61.9230 C.2   131  ALA131      0.2287
     51  O         18.2420   39.4370   62.6630 O.2   131  ALA131     -0.2864
     52  CB        15.2500   38.2920   63.0790 C.3   131  ALA131      0.0319
     53  N         18.3240   42.9520   61.8890 N.3   133  VAL133     -0.1245
     54  CA        18.1070   44.0360   62.8350 C.3   133  VAL133      0.1561
     55  C         17.6000   45.3100   62.1740 C.2   133  VAL133      0.2260
     56  O         18.1550   45.7690   61.1790 O.2   133  VAL133     -0.2867
     57  CB        19.4070   44.3490   63.6020 C.3   133  VAL133      0.0252
     58  CG1       19.1450   45.3790   64.6800 C.3   133  VAL133      0.0019
     59  CG2       19.9560   43.0760   64.2060 C.3   133  VAL133      0.0019
     60  N          9.0920   29.0860   76.0490 N.3   178  GLU178     -0.1245
     61  CA        10.3710   29.4010   75.4270 C.3   178  GLU178      0.1567
     62  C         10.1330   29.8730   73.9940 C.2   178  GLU178      0.2260
     63  O         10.7680   30.8210   73.5350 O.2   178  GLU178     -0.2867
     64  CB        11.2870   28.1770   75.4420 C.3   178  GLU178      0.0388
     65  CG        11.5550   27.6440   76.8430 C.3   178  GLU178      0.1160
     66  CD        12.4050   26.3920   76.8310 C.2   178  GLU178      0.3649
     67  OE1       12.2030   25.5400   75.9400 O.co2 178  GLU178     -0.2457
     68  OE2       13.2670   26.2530   77.7210 O.co2 178  GLU178     -0.2457
     69  N          9.2190   33.5200   73.7090 N.3   181  LEU181     -0.1231
     70  CA        10.3890   34.3590   73.9220 C.3   181  LEU181      0.1693
     71  C         11.3300   34.4040   72.7220 C.2   181  LEU181      0.2591
     72  O         11.9080   35.4430   72.4310 O.2   181  LEU181     -0.2718
     73  CB        11.1460   33.8930   75.1730 C.3   181  LEU181      0.0284
     74  CG        10.4070   33.9960   76.5150 C.3   181  LEU181      0.0019
     75  CD1       11.3160   33.5250   77.6280 C.3   181  LEU181      0.0001
     76  CD2        9.9730   35.4340   76.7760 C.3   181  LEU181      0.0001
     77  N         11.4960   33.2810   72.0320 N.am  182  VAL182     -0.1980
     78  CA        12.3620   33.2600   70.8610 C.3   182  VAL182      0.1595
     79  C         11.7700   34.2180   69.8230 C.2   182  VAL182      0.2287
     80  O         12.4640   35.0700   69.2630 O.2   182  VAL182     -0.2864
     81  CB        12.4390   31.8530   70.2270 C.3   182  VAL182      0.0276
     82  CG1       13.2270   31.9210   68.9310 C.3   182  VAL182      0.0022
     83  CG2       13.0950   30.8680   71.1850 C.3   182  VAL182      0.0022
     84  N         11.9730   37.7780   70.8680 N.3   185  HIS185     -0.1226
     85  CA        13.3680   38.1910   70.6930 C.3   185  HIS185      0.1752
     86  C         13.7340   38.5080   69.2390 C.2   185  HIS185      0.2595
     87  O         14.3490   39.5370   68.9540 O.2   185  HIS185     -0.2718
     88  CB        14.2750   37.0770   71.2290 C.3   185  HIS185      0.0759
     89  CG        15.7400   37.3410   71.0670 C.ar  185  HIS185      0.0818
     90  ND1       16.5480   37.7190   72.1170 N.ar  185  HIS185     -0.2268
     91  CD2       16.5510   37.2380   69.9870 C.ar  185  HIS185      0.1154
     92  CE1       17.7940   37.8330   71.6930 C.ar  185  HIS185      0.1986
     93  NE2       17.8220   37.5460   70.4030 N.ar  185  HIS185     -0.2212
     94  N         13.3660   37.6160   68.3250 N.am  186  GLU186     -0.1979
     95  CA        13.6670   37.8130   66.9140 C.3   186  GLU186      0.1602
     96  C         12.9220   39.0180   66.3570 C.2   186  GLU186      0.2287
     97  O         13.4700   39.7840   65.5690 O.2   186  GLU186     -0.2864
     98  CB        13.3260   36.5530   66.1260 C.3   186  GLU186      0.0415
     99  CG        14.1700   35.3510   66.5230 C.3   186  GLU186      0.1163
    100  CD        15.6610   35.6490   66.5120 C.2   186  GLU186      0.3649
    101  OE1       16.0640   36.6390   65.8660 O.co2 186  GLU186     -0.2457
    102  OE2       16.4320   34.8880   67.1390 O.co2 186  GLU186     -0.2457
    103  N         14.7210   42.0790   67.4010 N.3   189  HIS189     -0.1241
    104  CA        15.8190   42.4650   66.5260 C.3   189  HIS189      0.1621
    105  C         15.2180   43.2200   65.3420 C.2   189  HIS189      0.2264
    106  O         15.7290   44.2610   64.9320 O.2   189  HIS189     -0.2867
    107  CB        16.5750   41.2310   66.0180 C.3   189  HIS189      0.0745
    108  CG        17.5670   40.6770   66.9950 C.ar  189  HIS189      0.0817
    109  ND1       18.4080   41.4790   67.7360 N.ar  189  HIS189     -0.2268
    110  CD2       17.8930   39.3990   67.3090 C.ar  189  HIS189      0.1154
    111  CE1       19.2090   40.7200   68.4640 C.ar  189  HIS189      0.1986
    112  NE2       18.9180   39.4550   68.2230 N.ar  189  HIS189     -0.2212
    113  N         19.1040   45.6220   69.7090 N.3   194  GLU194     -0.1231
    114  CA        20.3270   44.8320   69.6390 C.3   194  GLU194      0.1699
    115  C         20.3620   44.0640   70.9480 C.2   194  GLU194      0.2592
    116  O         19.4760   44.2190   71.7830 O.2   194  GLU194     -0.2718
    117  CB        21.5530   45.7420   69.5420 C.3   194  GLU194      0.0402
    118  CG        21.7870   46.3350   68.1690 C.3   194  GLU194      0.1161
    119  CD        22.5660   45.4020   67.2580 C.2   194  GLU194      0.3649
    120  OE1       22.1870   44.2160   67.1460 O.co2 194  GLU194     -0.2457
    121  OE2       23.5580   45.8570   66.6500 O.co2 194  GLU194     -0.2457
    122  N         21.3770   43.2380   71.1390 N.am  195  HIS195     -0.1976
    123  CA        21.4710   42.4740   72.3690 C.3   195  HIS195      0.1656
    124  C         21.7390   43.3770   73.5670 C.2   195  HIS195      0.2291
    125  O         22.4030   44.4040   73.4430 O.2   195  HIS195     -0.2864
    126  CB        22.5620   41.4190   72.2250 C.3   195  HIS195      0.0771
    127  CG        22.1630   40.2670   71.3570 C.ar  195  HIS195      0.0820
    128  ND1       23.0630   39.5660   70.5850 N.ar  195  HIS195     -0.2267
    129  CD2       20.9620   39.6690   71.1720 C.ar  195  HIS195      0.1154
    130  CE1       22.4350   38.5840   69.9620 C.ar  195  HIS195      0.1986
    131  NE2       21.1590   38.6240   70.3020 N.ar  195  HIS195     -0.2212
    132  N         14.4800   39.9880   77.8100 N.3   214  VAL214     -0.1245
    133  CA        14.3370   39.1650   76.6090 C.3   214  VAL214      0.1561
    134  C         15.4210   39.2850   75.5310 C.2   214  VAL214      0.2260
    135  O         15.7790   38.2850   74.9040 O.2   214  VAL214     -0.2867
    136  CB        12.9310   39.3800   75.9610 C.3   214  VAL214      0.0252
    137  CG1       12.8510   40.7510   75.3130 C.3   214  VAL214      0.0019
    138  CG2       12.6320   38.2590   74.9600 C.3   214  VAL214      0.0019
    139  N         18.4600   39.5200   75.8460 N.3   216  TYR216     -0.1228
    140  CA        19.7580   39.0930   76.3370 C.3   216  TYR216      0.1721
    141  C         20.3600   38.1330   75.3270 C.2   216  TYR216      0.2437
    142  O         19.6790   37.2250   74.8440 O.2   216  TYR216     -0.2733
    143  CB        19.6340   38.3940   77.6910 C.3   216  TYR216      0.0547
    144  CG        20.9560   38.3110   78.4120 C.ar  216  TYR216     -0.0200
    145  CD1       21.5720   39.4650   78.8920 C.ar  216  TYR216     -0.0009
    146  CD2       21.6310   37.0970   78.5430 C.ar  216  TYR216     -0.0009
    147  CE1       22.8300   39.4180   79.4750 C.ar  216  TYR216      0.0417
    148  CE2       22.8930   37.0380   79.1270 C.ar  216  TYR216      0.0417
    149  CZ        23.4860   38.2040   79.5870 C.ar  216  TYR216      0.1957
    150  OH        24.7400   38.1660   80.1470 O.3   216  TYR216     -0.2866
    151  N         21.6510   38.3190   74.9930 N.am  217  PRO217     -0.2718
    152  CA        22.3550   37.4660   74.0280 C.3   217  PRO217      0.1535
    153  C         22.2290   35.9660   74.2600 C.2   217  PRO217      0.2598
    154  O         22.1810   35.1880   73.3060 O.2   217  PRO217     -0.2715
    155  CB        23.8030   37.9640   74.1090 C.3   217  PRO217      0.0310
    156  CG        23.8780   38.6600   75.4580 C.3   217  PRO217      0.0237
    157  CD        22.5550   39.3500   75.5320 C.3   217  PRO217      0.0939
    158  N         22.1730   35.5520   75.5180 N.am  218  ILE218     -0.1964
    159  CA        22.0360   34.1320   75.8240 C.3   218  ILE218      0.1727
    160  C         20.5840   33.8200   76.1880 C.2   218  ILE218      0.2616
    161  O         20.0550   34.3620   77.1480 O.2   218  ILE218     -0.2715
    162  CB        22.9410   33.7290   76.9890 C.3   218  ILE218      0.0290
    163  CG1       24.3860   34.1360   76.6810 C.3   218  ILE218      0.0022
    164  CG2       22.8450   32.2250   77.2230 C.3   218  ILE218      0.0023
    165  CD1       25.3090   34.0410   77.8790 C.3   218  ILE218      0.0001
    166  N         19.9580   32.9340   75.4140 N.am  219  ALA219     -0.1963
    167  CA        18.5630   32.5420   75.6130 C.3   219  ALA219      0.1728
    168  C         18.1090   32.3890   77.0620 C.2   219  ALA219      0.2616
    169  O         18.5390   31.4690   77.7600 O.2   219  ALA219     -0.2715
    170  CB        18.2810   31.2410   74.8550 C.3   219  ALA219      0.0334
    171  N         17.2230   33.2810   77.5020 N.am  220  VAL220     -0.1977
    172  CA        16.6810   33.2170   78.8590 C.3   220  VAL220      0.1596
    173  C         15.7960   31.9770   78.9760 C.2   220  VAL220      0.2287
    174  O         15.3160   31.4540   77.9690 O.2   220  VAL220     -0.2864
    175  CB        15.8300   34.4640   79.1960 C.3   220  VAL220      0.0276
    176  CG1       16.7240   35.6850   79.3470 C.3   220  VAL220      0.0022
    177  CG2       14.8000   34.6950   78.1090 C.3   220  VAL220      0.0022
@<TRIPOS>BOND
     1    11    10    2
     2    10     9    1
     3     9    12    1
     4     9     8    1
     5    12    13    1
     6     4     3    2
     7     8     3   am
     8     3     2    1
     9    13    14    1
    10    14    15    1
    11     1     2    1
    12     2     5    1
    13    47    45    1
    14    56    55    2
    15    15    16    1
    16     5     6    1
    17     5     7    1
    18    45    44    1
    19    45    46    1
    20    53    54    1
    21    50    49    1
    22    50    51    2
    23    55    54    1
    24    49    48    1
    25    49    52    1
    26    43    42    2
    27    44    41    1
    28    54    57    1
    29    48    42   am
    30    42    41    1
    31    41    40    1
    32    57    59    1
    33    57    58    1
    34    40    38   am
    35   106   105    2
    36    38    39    2
    37    38    37    1
    38   105   104    1
    39    97    96    2
    40    37    36    1
    41   101   100   ar
    42   107   104    1
    43   107   108    1
    44    27    25    1
    45    98    99    1
    46    98    95    1
    47    96    95    1
    48   100    99    1
    49   100   102   ar
    50   104   103    1
    51    25    26    1
    52    25    22    1
    53   121   119   ar
    54    36    30   am
    55    31    30    2
    56    95    94    1
    57   108   110   ar
    58   108   109   ar
    59   120   119   ar
    60    30    29    1
    61   119   118    1
    62   110   112   ar
    63    24    23    2
    64   109   111   ar
    65    23    22    1
    66    23    28   am
    67    22    21    1
    68   118   117    1
    69   112   111   ar
    70    29    28    1
    71    29    32    1
    72    94    86   am
    73    21    19   am
    74    82    81    1
    75    87    86    2
    76    86    85    1
    77    80    79    2
    78   117   114    1
    79    32    33    1
    80   114   113    1
    81   114   115    1
    82    17    18    1
    83    79    78    1
    84    19    18    1
    85    19    20    2
    86   130   131   ar
    87   130   128   ar
    88    91    93   ar
    89    91    89   ar
    90    81    78    1
    91    81    83    1
    92   131   129   ar
    93    93    92   ar
    94    35    33    1
    95   128   127   ar
    96    85    84    1
    97    85    88    1
    98    33    34    1
    99    78    77    1
   100   115   122   am
   101   115   116    2
   102    89    88    1
   103    89    90   ar
   104   122   123    1
   105   129   127   ar
   106   127   126    1
   107    92    90   ar
   108    77    71   am
   109   126   123    1
   110   123   124    1
   111    72    71    2
   112    71    70    1
   113   154   153    2
   114   125   124    2
   115    63    62    2
   116    69    70    1
   117    70    73    1
   118    62    61    1
   119   152   155    1
   120   152   153    1
   121   152   151    1
   122   155   156    1
   123   153   158   am
   124   142   141    2
   125   170   167    1
   126   135   134    2
   127   138   136    1
   128   151   141   am
   129   151   157    1
   130    73    74    1
   131   137   136    1
   132   141   140    1
   133   166   167    1
   134   166   160   am
   135    61    64    1
   136    61    60    1
   137    64    65    1
   138   156   157    1
   139   158   159    1
   140   134   133    1
   141   167   168    1
   142   159   160    1
   143   159   162    1
   144   139   140    1
   145    67    66   ar
   146   136   133    1
   147   160   161    2
   148   140   143    1
   149    74    76    1
   150    74    75    1
   151   133   132    1
   152   163   162    1
   153   163   165    1
   154    66    65    1
   155    66    68   ar
   156   162   164    1
   157   168   171   am
   158   168   169    2
   159   171   172    1
   160   143   144    1
   161   174   173    2
   162   177   175    1
   163   144   146   ar
   164   144   145   ar
   165   146   148   ar
   166   172   173    1
   167   172   175    1
   168   145   147   ar
   169   148   149   ar
   170   175   176    1
   171   147   149   ar
   172   149   150    1
