@<TRIPOS>MOLECULE
tmp/3g49D01.pdb
 164 159 0 0 0
SMALL
GASTEIGER

@<TRIPOS>ATOM
      1  N          2.4010   -0.4990   -4.9060 N.3    96  VAL96      -0.1231
      2  CA         1.3280    0.3000   -4.4580 C.3    96  VAL96       0.1692
      3  C          0.3110    0.4640   -5.6440 C.2    96  VAL96       0.2592
      4  O          0.6600    0.1940   -6.8090 O.2    96  VAL96      -0.2718
      5  CB         1.9160    1.6210   -3.9540 C.3    96  VAL96       0.0266
      6  CG1        2.2690    2.6600   -5.1840 C.3    96  VAL96       0.0020
      7  CG2        1.0250    2.1630   -2.8770 C.3    96  VAL96       0.0020
      8  N         -0.9360    0.8690   -5.2900 N.am   97  LEU97      -0.1966
      9  CA        -2.1030    0.8240   -6.1210 C.3    97  LEU97       0.1728
     10  C         -2.2580    2.1860   -6.6140 C.2    97  LEU97       0.2616
     11  O         -2.3480    3.0770   -5.8210 O.2    97  LEU97      -0.2715
     12  CB        -3.3580    0.4360   -5.3210 C.3    97  LEU97       0.0311
     13  CG        -4.6940    0.6170   -6.1000 C.3    97  LEU97       0.0022
     14  CD1       -4.9130   -0.3010   -7.3090 C.3    97  LEU97       0.0001
     15  CD2       -5.8060    0.4600   -5.1910 C.3    97  LEU97       0.0001
     16  N         -2.2690    2.3580   -7.9470 N.am   98  TYR98      -0.1960
     17  CA        -2.3930    3.6710   -8.5290 C.3    98  TYR98       0.1771
     18  C         -3.6670    4.3190   -8.0110 C.2    98  TYR98       0.2619
     19  O         -4.6910    3.7110   -8.0580 O.2    98  TYR98      -0.2715
     20  CB        -2.3430    3.6920  -10.0760 C.3    98  TYR98       0.0574
     21  CG        -2.1830    5.1160  -10.5240 C.ar   98  TYR98      -0.0198
     22  CD1       -1.0090    5.8030  -10.2830 C.ar   98  TYR98      -0.0009
     23  CD2       -3.2200    5.8070  -11.1240 C.ar   98  TYR98      -0.0009
     24  CE1       -0.8800    7.1300  -10.6440 C.ar   98  TYR98       0.0417
     25  CE2       -3.0600    7.1190  -11.5550 C.ar   98  TYR98       0.0417
     26  CZ        -1.9330    7.7680  -11.2720 C.ar   98  TYR98       0.1957
     27  OH        -1.8380    9.0840  -11.5670 O.3    98  TYR98      -0.2866
     28  N         -3.5760    5.5600   -7.5320 N.am   99  ASN99      -0.1972
     29  CA        -4.7020    6.3830   -7.0650 C.3    99  ASN99       0.1688
     30  C         -4.4910    7.9440   -7.3630 C.2    99  ASN99       0.2292
     31  O         -3.4520    8.5460   -7.1340 O.2    99  ASN99      -0.2864
     32  CB        -4.8970    6.1490   -5.5480 C.3    99  ASN99       0.1181
     33  CG        -6.0380    5.1370   -5.2220 C.2    99  ASN99       0.2629
     34  OD1       -6.4510    4.3220   -6.0900 O.2    99  ASN99      -0.2716
     35  ND2       -6.5330    5.1660   -3.9770 N.am   99  ASN99      -0.0877
     36  N         -5.0850   11.8310   -6.2560 N.3   101  LEU101     -0.1245
     37  CA        -5.4530   12.6940   -5.1720 C.3   101  LEU101      0.1561
     38  C         -6.8240   13.3920   -5.2960 C.2   101  LEU101      0.2260
     39  O         -7.0700   14.3520   -6.0670 O.2   101  LEU101     -0.2867
     40  CB        -4.3800   13.7620   -5.0040 C.3   101  LEU101      0.0270
     41  CG        -3.1270   13.3490   -4.2020 C.3   101  LEU101      0.0019
     42  CD1       -2.3670   12.2210   -4.8320 C.3   101  LEU101      0.0001
     43  CD2       -2.2530   14.5270   -4.1170 C.3   101  LEU101      0.0001
     44  N          5.6380    5.3770    3.8310 N.3   145  SER145     -0.1202
     45  CA         5.4810    6.7480    3.4150 C.3   145  SER145      0.2020
     46  C          5.2110    7.5730    4.5780 C.2   145  SER145      0.2619
     47  O          4.7820    7.0940    5.5520 O.2   145  SER145     -0.2717
     48  CB         4.3240    6.8500    2.4220 C.3   145  SER145      0.2103
     49  OG         3.1320    6.7650    3.0940 O.3   145  SER145     -0.2182
     50  N          5.4590    8.8640    4.4390 N.am  146  VAL146     -0.1965
     51  CA         5.1500    9.8590    5.4420 C.3   146  VAL146      0.1727
     52  C          3.7130    9.7030    5.9060 C.2   146  VAL146      0.2616
     53  O          3.4920    9.8230    7.1040 O.2   146  VAL146     -0.2715
     54  CB         5.4440   11.2730    4.9830 C.3   146  VAL146      0.0290
     55  CG1        5.0830   12.2960    6.0810 C.3   146  VAL146      0.0023
     56  CG2        6.8540   11.3950    4.7040 C.3   146  VAL146      0.0023
     57  N          2.7870    9.4030    4.9770 N.am  147  ALA147     -0.1977
     58  CA         1.3070    9.3020    5.2310 C.3   147  ALA147      0.1597
     59  C          1.0050    7.8650    5.6850 C.2   147  ALA147      0.2287
     60  O         -0.1220    7.4810    6.0000 O.2   147  ALA147     -0.2864
     61  CB         0.5620    9.6450    4.0270 C.3   147  ALA147      0.0319
     62  N         -2.4500   13.1440    5.3730 N.3   152  TYR152     -0.1228
     63  CA        -2.6410   14.2370    4.4230 C.3   152  TYR152      0.1721
     64  C         -4.1020   14.2160    3.8660 C.2   152  TYR152      0.2434
     65  O         -4.6020   13.1770    3.4950 O.2   152  TYR152     -0.2733
     66  CB        -1.6640   13.9690    3.1840 C.3   152  TYR152      0.0547
     67  CG        -0.2020   14.1530    3.4610 C.ar  152  TYR152     -0.0200
     68  CD1        0.4890   13.2890    4.3030 C.ar  152  TYR152     -0.0009
     69  CD2        0.4660   15.2720    2.9700 C.ar  152  TYR152     -0.0009
     70  CE1        1.8170   13.4680    4.5810 C.ar  152  TYR152      0.0417
     71  CE2        1.8090   15.4880    3.2300 C.ar  152  TYR152      0.0417
     72  CZ         2.4960   14.5590    4.0410 C.ar  152  TYR152      0.1957
     73  OH         3.8380   14.7680    4.3120 O.3   152  TYR152     -0.2866
     74  N         -4.7280   15.3740    3.6400 N.am  153  PRO153     -0.2774
     75  CA        -5.9690   15.3600    2.8730 C.3   153  PRO153      0.1083
     76  C         -5.7000   14.7760    1.5160 C.3   153  PRO153      0.2017
     77  O         -4.6120   14.8340    1.1930 O.3   153  PRO153     -0.2186
     78  CB        -6.4040   16.8210    2.8010 C.3   153  PRO153      0.0243
     79  CG        -5.4910   17.6230    3.9090 C.3   153  PRO153      0.0233
     80  CD        -4.2680   16.7440    4.0310 C.3   153  PRO153      0.0935
     81  N         -5.8300   11.5950    0.2050 N.3   155  ILE155     -0.1245
     82  CA        -5.4370   10.1670    0.0970 C.3   155  ILE155      0.1561
     83  C         -5.9370    9.1580    1.2060 C.2   155  ILE155      0.2260
     84  O         -5.1860    8.2620    1.5740 O.2   155  ILE155     -0.2867
     85  CB        -3.9010   10.0190    0.1240 C.3   155  ILE155      0.0252
     86  CG1       -3.4290   10.2580    1.5650 C.3   155  ILE155      0.0019
     87  CG2       -3.2090   10.9010   -0.8780 C.3   155  ILE155      0.0019
     88  CD1       -2.0420   10.7470    1.7450 C.3   155  ILE155      0.0001
     89  N         -5.1360    5.3600    0.6750 N.3   158  TYR158     -0.1241
     90  CA        -3.7100    5.0520    0.6480 C.3   158  TYR158      0.1605
     91  C         -3.1710    5.1150    2.0600 C.2   158  TYR158      0.2264
     92  O         -2.6020    4.1590    2.5110 O.2   158  TYR158     -0.2867
     93  CB        -3.0450    6.0580   -0.2660 C.3   158  TYR158      0.0534
     94  CG        -1.5690    6.1300   -0.3330 C.ar  158  TYR158     -0.0201
     95  CD1       -0.8380    7.1610    0.3500 C.ar  158  TYR158     -0.0009
     96  CD2       -0.8510    5.2020   -1.0760 C.ar  158  TYR158     -0.0009
     97  CE1        0.5890    7.2260    0.2700 C.ar  158  TYR158      0.0417
     98  CE2        0.5820    5.2210   -1.1240 C.ar  158  TYR158      0.0417
     99  CZ         1.2940    6.2490   -0.4900 C.ar  158  TYR158      0.1957
    100  OH         2.6980    6.2760   -0.6000 O.3   158  TYR158     -0.2866
    101  N          8.9810    7.2010    3.3100 N.3   190  LEU190     -0.1231
    102  CA         9.3900    8.1710    2.3150 C.3   190  LEU190      0.1693
    103  C          8.6080    9.5030    2.2840 C.2   190  LEU190      0.2593
    104  O          7.4050    9.5900    2.3760 O.2   190  LEU190     -0.2718
    105  CB         9.3270    7.4300    0.9700 C.3   190  LEU190      0.0284
    106  CG         9.9120    5.9500    0.8400 C.3   190  LEU190      0.0019
    107  CD1        9.8300    5.3150   -0.5560 C.3   190  LEU190      0.0001
    108  CD2       11.3280    5.9540    1.3680 C.3   190  LEU190      0.0001
    109  N          9.2630   10.5870    2.0760 N.am  191  GLY191     -0.1942
    110  CA         8.4840   11.7020    1.6250 C.3   191  GLY191      0.2014
    111  C          8.3370   11.6900    0.1060 C.2   191  GLY191      0.2639
    112  O          8.5970   10.6560   -0.4690 O.2   191  GLY191     -0.2714
    113  N          8.0390   12.8300   -0.5040 N.am  192  LEU192     -0.1963
    114  CA         7.9000   12.9530   -1.9500 C.3   192  LEU192      0.1728
    115  C          9.1770   12.6280   -2.6850 C.2   192  LEU192      0.2616
    116  O         10.2350   12.9890   -2.2320 O.2   192  LEU192     -0.2715
    117  CB         7.4490   14.3790   -2.3600 C.3   192  LEU192      0.0311
    118  CG         6.7960   14.6170   -3.7410 C.3   192  LEU192      0.0022
    119  CD1        5.7850   13.5270   -4.2070 C.3   192  LEU192      0.0001
    120  CD2        6.1540   15.9510   -3.7060 C.3   192  LEU192      0.0001
    121  N          9.0410   11.9210   -3.8160 N.am  193  ILE193     -0.1977
    122  CA        10.1540   11.3560   -4.5880 C.3   193  ILE193      0.1596
    123  C          9.8760   11.6150   -6.0640 C.2   193  ILE193      0.2287
    124  O          8.7130   11.3930   -6.4900 O.2   193  ILE193     -0.2864
    125  CB        10.2970    9.7900   -4.3740 C.3   193  ILE193      0.0276
    126  CG1       10.0060    9.3230   -2.9390 C.3   193  ILE193      0.0022
    127  CG2       11.6930    9.3390   -4.7540 C.3   193  ILE193      0.0022
    128  CD1       11.1300    9.5670   -1.9000 C.3   193  ILE193      0.0001
    129  N          5.3540    9.0260  -11.6200 N.3   197  THR197     -0.1203
    130  CA         3.9570    9.1100  -11.1990 C.3   197  THR197      0.1993
    131  C          3.6340   10.0830  -10.0610 C.2   197  THR197      0.2614
    132  O          2.6250   10.8130  -10.1560 O.2   197  THR197     -0.2717
    133  CB         3.2010    7.7800  -11.1980 C.3   197  THR197      0.1784
    134  OG1        2.6210    7.4560   -9.9180 O.3   197  THR197     -0.2211
    135  CG2        4.0920    6.6970  -11.4960 C.3   197  THR197      0.0376
    136  N          4.4610   10.2040   -9.0220 N.am  198  ALA198     -0.2032
    137  CA         4.2110   11.2350   -7.9720 C.3   198  ALA198      0.1283
    138  C          4.2470   12.6710   -8.5170 C.3   198  ALA198      0.2036
    139  O          3.3450   13.5320   -8.1910 O.3   198  ALA198     -0.2185
    140  CB         5.1990   11.1070   -6.9800 C.3   198  ALA198      0.0262
    141  N          0.9710   13.3070  -10.4230 N.3   201  ALA201     -0.1231
    142  CA        -0.1660   13.2390   -9.4390 C.3   201  ALA201      0.1694
    143  C         -0.3940   14.4680   -8.4470 C.2   201  ALA201      0.2592
    144  O         -1.5350   14.7580   -8.0300 O.2   201  ALA201     -0.2718
    145  CB        -0.0600   12.0020   -8.7260 C.3   201  ALA201      0.0304
    146  N          0.6820   15.2240   -8.1640 N.am  202  THR202     -0.1953
    147  CA         0.6590   16.3900   -7.2690 C.3   202  THR202      0.1897
    148  C          0.8300   17.6270   -8.0310 C.2   202  THR202      0.2313
    149  O          0.7710   18.7040   -7.4810 O.2   202  THR202     -0.2863
    150  CB         1.9110   16.3810   -6.3950 C.3   202  THR202      0.1794
    151  OG1        3.0390   16.0950   -7.2050 O.3   202  THR202     -0.2208
    152  CG2        1.8770   15.3180   -5.3260 C.3   202  THR202      0.0378
    153  N         -0.0600   19.4320   -4.7170 N.3   206  TYR206     -0.1241
    154  CA         0.8740   19.6830   -3.6270 C.3   206  TYR206      0.1605
    155  C          2.1900   20.2460   -4.1530 C.2   206  TYR206      0.2264
    156  O          2.7430   19.6360   -5.0440 O.2   206  TYR206     -0.2867
    157  CB         1.4250   18.3610   -3.0870 C.3   206  TYR206      0.0534
    158  CG         2.1540   18.4940   -1.7680 C.ar  206  TYR206     -0.0201
    159  CD1        3.5320   18.6610   -1.7280 C.ar  206  TYR206     -0.0009
    160  CD2        1.4640   18.4520   -0.5640 C.ar  206  TYR206     -0.0009
    161  CE1        4.2020   18.7850   -0.5260 C.ar  206  TYR206      0.0417
    162  CE2        2.1270   18.5740    0.6430 C.ar  206  TYR206      0.0417
    163  CZ         3.4950   18.7390    0.6560 C.ar  206  TYR206      0.1957
    164  OH         4.1580   18.8610    1.8560 O.3   206  TYR206     -0.2866
@<TRIPOS>BOND
     1   129   130    1
     2    27    26    1
     3    25    26   ar
     4    25    23   ar
     5   135   133    1
     6    26    24   ar
     7   130   133    1
     8   130   131    1
     9   133   134    1
    10    23    21   ar
    11    24    22   ar
    12    21    22   ar
    13    21    20    1
    14   141   142    1
    15   132   131    2
    16    20    17    1
    17   131   136   am
    18   142   145    1
    19   142   143    1
    20   136   137    1
    21    17    18    1
    22    17    16    1
    23   138   139    1
    24   138   137    1
    25   143   146   am
    26   143   144    2
    27   146   147    1
    28    19    18    2
    29   148   149    2
    30   148   147    1
    31    18    28   am
    32   137   140    1
    33    16    10   am
    34    28    29    1
    35    30    31    2
    36    30    29    1
    37    14    13    1
    38   147   150    1
    39   151   150    1
    40    29    32    1
    41     4     3    2
    42    10     9    1
    43    10    11    2
    44   124   123    2
    45   150   152    1
    46    36    37    1
    47     9    12    1
    48     9     8    1
    49    13    12    1
    50    13    15    1
    51    34    33    2
    52    39    38    2
    53   123   122    1
    54     3     8   am
    55     3     2    1
    56    32    33    1
    57    38    37    1
    58    33    35   am
    59     6     5    1
    60    37    40    1
    61   156   155    2
    62    40    41    1
    63     1     2    1
    64    42    41    1
    65   127   125    1
    66   153   154    1
    67   122   125    1
    68   122   121    1
    69     2     5    1
    70   125   126    1
    71   119   118    1
    72    41    43    1
    73   155   154    1
    74     5     7    1
    75   121   115   am
    76   118   120    1
    77   118   117    1
    78   154   157    1
    79   157   158    1
    80   126   128    1
    81   115   116    2
    82   115   114    1
    83   117   114    1
    84   114   113    1
    85   158   159   ar
    86   158   160   ar
    87   159   161   ar
    88    98    96   ar
    89    98    99   ar
    90    96    94   ar
    91    87    85    1
    92   100    99    1
    93   160   162   ar
    94   107   106    1
    95   161   163   ar
    96   113   111   am
    97    99    97   ar
    98   112   111    2
    99    94    93    1
   100    94    95   ar
   101    93    90    1
   102    82    85    1
   103    82    81    1
   104    82    83    1
   105   111   110    1
   106    85    86    1
   107    97    95   ar
   108   162   163   ar
   109    90    89    1
   110    90    91    1
   111   163   164    1
   112   106   105    1
   113   106   108    1
   114   105   102    1
   115    77    76    1
   116    83    84    2
   117    76    75    1
   118    86    88    1
   119   110   109    1
   120    91    92    2
   121   109   103   am
   122   103   102    1
   123   103   104    2
   124   102   101    1
   125    48    49    1
   126    48    45    1
   127    78    75    1
   128    78    79    1
   129    75    74    1
   130    69    71   ar
   131    69    67   ar
   132    66    67    1
   133    66    63    1
   134    71    72   ar
   135    45    44    1
   136    45    46    1
   137    67    68   ar
   138    65    64    2
   139    74    64   am
   140    74    80    1
   141    64    63    1
   142    79    80    1
   143    61    58    1
   144    72    73    1
   145    72    70   ar
   146    68    70   ar
   147    63    62    1
   148    50    46   am
   149    50    51    1
   150    46    47    2
   151    56    54    1
   152    57    58    1
   153    57    52   am
   154    54    51    1
   155    54    55    1
   156    58    59    1
   157    51    52    1
   158    59    60    2
   159    52    53    2
