@<TRIPOS>MOLECULE
tmp/3g4fB00.pdb
 201 190 0 0 0
SMALL
GASTEIGER

@<TRIPOS>ATOM
      1  N        -14.0530  -30.7360   52.6880 N.3   242  ARG242     -0.1245
      2  CA       -14.3560  -32.1440   52.4820 C.3   242  ARG242      0.1563
      3  C        -14.3670  -32.8390   53.8430 C.2   242  ARG242      0.2260
      4  O        -14.4230  -32.1770   54.8870 O.2   242  ARG242     -0.2867
      5  CB       -13.2970  -32.7870   51.5900 C.3   242  ARG242      0.0307
      6  CG       -12.9590  -31.9950   50.3340 C.3   242  ARG242      0.0489
      7  CD       -11.7300  -32.5760   49.6190 C.3   242  ARG242      0.2205
      8  NE       -10.5030  -32.4750   50.4170 N.pl3 242  ARG242     -0.0865
      9  CZ        -9.2730  -32.6900   49.9460 C.cat 242  ARG242      0.5346
     10  NH1       -9.0920  -33.0190   48.6730 N.pl3 242  ARG242      0.1354
     11  NH2       -8.2140  -32.5710   50.7470 N.pl3 242  ARG242      0.1354
     12  N        -11.7880  -35.8940   55.1090 N.3   244  ARG244     -0.1245
     13  CA       -10.7680  -36.8930   54.8350 C.3   244  ARG244      0.1563
     14  C         -9.9570  -37.2270   56.0770 C.2   244  ARG244      0.2260
     15  O         -8.8190  -37.6630   55.9670 O.2   244  ARG244     -0.2867
     16  CB        -9.8230  -36.4120   53.7300 C.3   244  ARG244      0.0307
     17  CG       -10.4660  -36.2420   52.3570 C.3   244  ARG244      0.0489
     18  CD       -10.5460  -37.5550   51.5670 C.3   244  ARG244      0.2205
     19  NE       -11.0030  -37.3150   50.1990 N.pl3 244  ARG244     -0.0865
     20  CZ       -12.2780  -37.3360   49.8140 C.cat 244  ARG244      0.5346
     21  NH1      -13.2420  -37.6030   50.6870 N.pl3 244  ARG244      0.1354
     22  NH2      -12.5900  -37.0890   48.5500 N.pl3 244  ARG244      0.1354
     23  N         -8.7480  -40.8280   55.9350 N.3   247  GLU247     -0.1245
     24  CA        -7.6450  -40.8970   54.9860 C.3   247  GLU247      0.1567
     25  C         -6.4350  -40.2070   55.6170 C.2   247  GLU247      0.2260
     26  O         -5.3140  -40.7200   55.5590 O.2   247  GLU247     -0.2867
     27  CB        -8.0160  -40.2380   53.6480 C.3   247  GLU247      0.0388
     28  CG        -8.9420  -41.0820   52.7420 C.3   247  GLU247      0.1160
     29  CD       -10.4250  -41.0060   53.1300 C.2   247  GLU247      0.3649
     30  OE1      -10.8100  -40.0460   53.8400 O.co2 247  GLU247     -0.2457
     31  OE2      -11.2060  -41.8990   52.7140 O.co2 247  GLU247     -0.2457
     32  N         -2.6380  -41.8630   55.9530 N.3   251  TRP251     -0.1241
     33  CA        -1.4400  -41.2160   55.3850 C.3   251  TRP251      0.1605
     34  C         -0.3740  -41.1430   56.5110 C.2   251  TRP251      0.2264
     35  O          0.7110  -41.7100   56.3880 O.2   251  TRP251     -0.2867
     36  CB        -1.8520  -39.8400   54.7670 C.3   251  TRP251      0.0550
     37  CG        -2.6240  -39.7700   53.4230 C.ar  251  TRP251      0.0003
     38  CD1       -2.4640  -40.5840   52.3290 C.ar  251  TRP251      0.0946
     39  CD2       -3.6690  -38.8040   53.0360 C.ar  251  TRP251      0.0152
     40  NE1       -3.3400  -40.2160   51.3170 N.ar  251  TRP251     -0.2442
     41  CE2       -4.0870  -39.1360   51.7190 C.ar  251  TRP251      0.0810
     42  CE3       -4.3260  -37.7140   53.6480 C.ar  251  TRP251      0.0012
     43  CZ2       -5.0760  -38.4110   51.0570 C.ar  251  TRP251      0.0191
     44  CZ3       -5.3220  -37.0180   52.9800 C.ar  251  TRP251      0.0001
     45  CH2       -5.6730  -37.3800   51.7040 C.ar  251  TRP251      0.0015
     46  N         -5.8890  -26.0710   52.5730 N.3   279  ASP279     -0.1239
     47  CA        -5.7010  -26.1870   51.1280 C.3   279  ASP279      0.1674
     48  C         -7.0380  -26.0370   50.4050 C.2   279  ASP279      0.2266
     49  O         -7.1040  -25.6090   49.2510 O.2   279  ASP279     -0.2867
     50  CB        -5.0540  -27.5170   50.7590 C.3   279  ASP279      0.1410
     51  CG        -4.9490  -27.7160   49.2570 C.2   279  ASP279      0.3668
     52  OD1       -5.2490  -28.8390   48.7960 O.co2 279  ASP279     -0.2456
     53  OD2       -4.5810  -26.7570   48.5400 O.co2 279  ASP279     -0.2456
     54  N         -9.0550  -23.0700   47.5450 N.3   283  ASP283     -0.1239
     55  CA        -9.6060  -23.6960   46.3310 C.3   283  ASP283      0.1674
     56  C        -11.1090  -23.4670   46.1040 C.2   283  ASP283      0.2266
     57  O        -11.6130  -23.7220   45.0080 O.2   283  ASP283     -0.2867
     58  CB        -9.3100  -25.1990   46.3020 C.3   283  ASP283      0.1410
     59  CG        -7.8220  -25.5070   46.3400 C.2   283  ASP283      0.3668
     60  OD1       -7.0150  -24.5530   46.3460 O.co2 283  ASP283     -0.2456
     61  OD2       -7.4620  -26.7090   46.3670 O.co2 283  ASP283     -0.2456
     62  N          0.6080  -21.6420   48.7380 N.3   354  TYR354     -0.1241
     63  CA        -0.8020  -21.7150   48.3580 C.3   354  TYR354      0.1605
     64  C         -1.2870  -20.3740   47.8040 C.2   354  TYR354      0.2264
     65  O         -1.9500  -20.3360   46.7600 O.2   354  TYR354     -0.2867
     66  CB        -1.6980  -22.0870   49.5370 C.3   354  TYR354      0.0534
     67  CG        -1.7050  -23.5430   50.0040 C.ar  354  TYR354     -0.0201
     68  CD1       -1.3040  -24.5900   49.1750 C.ar  354  TYR354     -0.0009
     69  CD2       -2.1670  -23.8640   51.2810 C.ar  354  TYR354     -0.0009
     70  CE1       -1.3300  -25.9210   49.6300 C.ar  354  TYR354      0.0417
     71  CE2       -2.2000  -25.1710   51.7370 C.ar  354  TYR354      0.0417
     72  CZ        -1.7830  -26.1950   50.9160 C.ar  354  TYR354      0.1957
     73  OH        -1.8270  -27.4850   51.4030 O.3   354  TYR354     -0.2866
     74  N         -0.1120  -20.2170   44.1330 N.3   357  GLU357     -0.1245
     75  CA        -0.7980  -21.1180   43.2190 C.3   357  GLU357      0.1567
     76  C         -2.2160  -20.6120   42.9240 C.2   357  GLU357      0.2260
     77  O         -2.7030  -20.7230   41.8000 O.2   357  GLU357     -0.2867
     78  CB        -0.8330  -22.5210   43.7960 C.3   357  GLU357      0.0388
     79  CG        -1.4140  -23.5580   42.8790 C.3   357  GLU357      0.1160
     80  CD        -1.4450  -24.9290   43.5340 C.2   357  GLU357      0.3649
     81  OE1       -1.8830  -25.0220   44.7050 O.co2 357  GLU357     -0.2457
     82  OE2       -1.0310  -25.9170   42.8840 O.co2 357  GLU357     -0.2457
     83  N          4.3600  -26.3610   47.5360 N.3   379  THR379     -0.1203
     84  CA         2.9390  -26.6300   47.8230 C.3   379  THR379      0.1994
     85  C          2.6260  -28.0950   48.0880 C.2   379  THR379      0.2618
     86  O          1.4820  -28.4590   48.3530 O.2   379  THR379     -0.2717
     87  CB         2.0300  -26.2010   46.6690 C.3   379  THR379      0.1784
     88  OG1        2.2300  -27.0950   45.5650 O.3   379  THR379     -0.2211
     89  CG2        2.3270  -24.7760   46.2390 C.3   379  THR379      0.0376
     90  N          3.6410  -28.9350   47.9910 N.am  380  CYS380     -0.1969
     91  CA         3.4670  -30.3390   48.2850 C.3   380  CYS380      0.1712
     92  C          3.0480  -30.5230   49.7410 C.2   380  CYS380      0.2296
     93  O          2.1070  -31.2650   50.0560 O.2   380  CYS380     -0.2864
     94  CB         4.7650  -31.1010   48.0240 C.3   380  CYS380      0.0983
     95  SG         4.4650  -32.8780   47.8780 S.3   380  CYS380     -0.0798
     96  N          4.8990  -34.2580   44.3330 N.3   420  ARG420     -0.1245
     97  CA         4.3470  -33.3310   43.3410 C.3   420  ARG420      0.1563
     98  C          4.1380  -33.9320   41.9590 C.2   420  ARG420      0.2260
     99  O          3.0830  -33.7670   41.3900 O.2   420  ARG420     -0.2867
    100  CB         5.1920  -32.0660   43.2150 C.3   420  ARG420      0.0307
    101  CG         4.5290  -30.9450   42.4190 C.3   420  ARG420      0.0489
    102  CD         3.1080  -30.7200   42.8800 C.3   420  ARG420      0.2205
    103  NE         2.5260  -29.4740   42.3840 N.pl3 420  ARG420     -0.0865
    104  CZ         1.2240  -29.2970   42.1470 C.cat 420  ARG420      0.5346
    105  NH1        0.3710  -30.2990   42.3550 N.pl3 420  ARG420      0.1354
    106  NH2        0.7690  -28.1300   41.6880 N.pl3 420  ARG420      0.1354
    107  N          1.4870  -36.8720   41.8450 N.3   423  ASP423     -0.1239
    108  CA         0.1720  -36.2540   41.9990 C.3   423  ASP423      0.1674
    109  C         -0.3090  -35.6870   40.6790 C.2   423  ASP423      0.2266
    110  O         -1.3280  -36.1190   40.1520 O.2   423  ASP423     -0.2867
    111  CB         0.2240  -35.1360   43.0330 C.3   423  ASP423      0.1410
    112  CG        -1.1380  -34.6490   43.4280 C.2   423  ASP423      0.3668
    113  OD1       -1.4150  -33.4370   43.2780 O.co2 423  ASP423     -0.2456
    114  OD2       -1.9310  -35.4920   43.8920 O.co2 423  ASP423     -0.2456
    115  N         -1.2440  -38.0240   38.0900 N.3   426  ALA426     -0.1231
    116  CA        -2.4370  -38.8070   38.4290 C.3   426  ALA426      0.1694
    117  C         -3.7070  -37.9730   38.3090 C.2   426  ALA426      0.2591
    118  O         -4.7230  -38.4580   37.8160 O.2   426  ALA426     -0.2718
    119  CB        -2.3330  -39.3900   39.8210 C.3   426  ALA426      0.0304
    120  N         -3.6540  -36.7250   38.7630 N.am  427  GLU427     -0.1979
    121  CA        -4.7280  -35.7860   38.4890 C.3   427  GLU427      0.1602
    122  C         -5.0300  -35.7120   36.9870 C.2   427  GLU427      0.2287
    123  O         -6.1810  -35.5840   36.5870 O.2   427  GLU427     -0.2864
    124  CB        -4.3910  -34.3880   39.0150 C.3   427  GLU427      0.0415
    125  CG        -4.5210  -34.2170   40.5190 C.3   427  GLU427      0.1163
    126  CD        -4.6210  -32.7520   40.9200 C.2   427  GLU427      0.3649
    127  OE1       -5.0370  -32.4630   42.0690 O.co2 427  GLU427     -0.2457
    128  OE2       -4.2940  -31.8820   40.0790 O.co2 427  GLU427     -0.2457
    129  N         -6.0600  -39.5040   35.0550 N.3   430  PHE430     -0.1241
    130  CA        -7.3060  -40.1240   35.5160 C.3   430  PHE430      0.1605
    131  C         -8.3750  -39.0800   35.9180 C.2   430  PHE430      0.2264
    132  O         -8.8530  -38.2790   35.1000 O.2   430  PHE430     -0.2867
    133  CB        -7.0430  -41.0900   36.6990 C.3   430  PHE430      0.0534
    134  CG        -6.0210  -42.1670   36.4220 C.ar  430  PHE430     -0.0203
    135  CD1       -6.3580  -43.3030   35.7020 C.ar  430  PHE430     -0.0042
    136  CD2       -4.7340  -42.0610   36.9280 C.ar  430  PHE430     -0.0042
    137  CE1       -5.4230  -44.2950   35.4660 C.ar  430  PHE430     -0.0003
    138  CE2       -3.7970  -43.0490   36.6950 C.ar  430  PHE430     -0.0003
    139  CZ        -4.1420  -44.1660   35.9640 C.ar  430  PHE430     -0.0000
    140  N         -0.6080  -44.7610   46.8930 N.3   492  LEU492     -0.1231
    141  CA        -1.9180  -44.1200   46.7050 C.3   492  LEU492      0.1693
    142  C         -2.1610  -43.3850   45.3670 C.2   492  LEU492      0.2592
    143  O         -3.2620  -43.4370   44.7930 O.2   492  LEU492     -0.2718
    144  CB        -2.2060  -43.1870   47.8880 C.3   492  LEU492      0.0284
    145  CG        -2.8730  -43.8770   49.0860 C.3   492  LEU492      0.0019
    146  CD1       -2.5520  -45.3590   49.0960 C.3   492  LEU492      0.0001
    147  CD2       -2.4970  -43.2410   50.4160 C.3   492  LEU492      0.0001
    148  N         -1.1410  -42.7030   44.8670 N.am  493  TYR493     -0.1976
    149  CA        -1.3350  -41.8350   43.7160 C.3   493  TYR493      0.1639
    150  C         -0.7920  -42.4350   42.4370 C.2   493  TYR493      0.2290
    151  O          0.1430  -41.9060   41.8500 O.2   493  TYR493     -0.2864
    152  CB        -0.6800  -40.4780   43.9630 C.3   493  TYR493      0.0560
    153  CG        -1.2850  -39.7040   45.1180 C.ar  493  TYR493     -0.0198
    154  CD1       -1.1100  -40.1260   46.4320 C.ar  493  TYR493     -0.0009
    155  CD2       -2.0250  -38.5460   44.8950 C.ar  493  TYR493     -0.0009
    156  CE1       -1.6520  -39.4220   47.4830 C.ar  493  TYR493      0.0417
    157  CE2       -2.5740  -37.8320   45.9520 C.ar  493  TYR493      0.0417
    158  CZ        -2.3860  -38.2730   47.2430 C.ar  493  TYR493      0.1957
    159  OH        -2.9310  -37.5620   48.2990 O.3   493  TYR493     -0.2866
    160  N         -3.2110  -44.9540   40.5620 N.3   495  GLU495     -0.1245
    161  CA        -4.3090  -45.7310   40.0140 C.3   495  GLU495      0.1567
    162  C         -5.5540  -44.8570   40.1050 C.2   495  GLU495      0.2260
    163  O         -5.4640  -43.6810   40.4970 O.2   495  GLU495     -0.2867
    164  CB        -4.4560  -47.0160   40.8280 C.3   495  GLU495      0.0388
    165  CG        -5.5180  -47.9920   40.3670 C.3   495  GLU495      0.1160
    166  CD        -5.7670  -49.0860   41.4030 C.2   495  GLU495      0.3649
    167  OE1       -5.1270  -49.0530   42.4800 O.co2 495  GLU495     -0.2457
    168  OE2       -6.6050  -49.9760   41.1450 O.co2 495  GLU495     -0.2457
    169  N        -12.6820  -39.3710   47.6070 N.3   496  TYR496     -0.1227
    170  CA       -12.9030  -40.0880   46.3550 C.3   496  TYR496      0.1736
    171  C        -13.5140  -41.4830   46.5810 C.2   496  TYR496      0.2595
    172  O        -14.6080  -41.7460   46.0690 O.2   496  TYR496     -0.2718
    173  CB       -11.6170  -40.1270   45.5100 C.3   496  TYR496      0.0548
    174  CG       -10.7320  -38.9220   45.7550 C.ar  496  TYR496     -0.0200
    175  CD1       -9.5760  -39.0270   46.5200 C.ar  496  TYR496     -0.0009
    176  CD2      -11.0770  -37.6700   45.2600 C.ar  496  TYR496     -0.0009
    177  CE1       -8.7790  -37.9300   46.7670 C.ar  496  TYR496      0.0417
    178  CE2      -10.2800  -36.5610   45.5020 C.ar  496  TYR496      0.0417
    179  CZ        -9.1320  -36.7000   46.2570 C.ar  496  TYR496      0.1957
    180  OH        -8.3290  -35.6080   46.5040 O.3   496  TYR496     -0.2866
    181  N        -12.8520  -42.3770   47.3340 N.am  497  VAL497     -0.1966
    182  CA       -11.5240  -42.1700   47.9260 C.3   497  VAL497      0.1727
    183  C        -10.4720  -43.1230   47.3100 C.2   497  VAL497      0.2616
    184  O         -9.3960  -43.3430   47.8840 O.2   497  VAL497     -0.2715
    185  CB       -11.5450  -42.3050   49.4910 C.3   497  VAL497      0.0290
    186  CG1      -12.5150  -41.3030   50.1190 C.3   497  VAL497      0.0023
    187  CG2      -11.8970  -43.7240   49.9230 C.3   497  VAL497      0.0023
    188  N        -10.7860  -43.6690   46.1350 N.am  498  GLY498     -0.1955
    189  CA        -9.9280  -44.6420   45.4840 C.3   498  GLY498      0.1869
    190  C        -10.0160  -46.0140   46.1310 C.2   498  GLY498      0.2309
    191  O        -10.3110  -46.1340   47.3150 O.2   498  GLY498     -0.2863
    192  N         -7.4110  -47.9130   46.3190 N.3   500  ALA500     -0.1231
    193  CA        -6.1230  -47.9710   46.9880 C.3   500  ALA500      0.1694
    194  C         -6.2560  -47.6440   48.4860 C.2   500  ALA500      0.2591
    195  O         -5.8810  -48.4510   49.3470 O.2   500  ALA500     -0.2718
    196  CB        -5.1450  -47.0180   46.2950 C.3   500  ALA500      0.0304
    197  N         -6.8000  -46.4660   48.7870 N.am  501  ALA501     -0.1980
    198  CA        -6.9980  -46.0320   50.1710 C.3   501  ALA501      0.1597
    199  C         -8.0170  -46.9000   50.9080 C.2   501  ALA501      0.2287
    200  O         -7.7370  -47.3840   52.0060 O.2   501  ALA501     -0.2864
    201  CB        -7.4230  -44.5740   50.2160 C.3   501  ALA501      0.0319
@<TRIPOS>BOND
     1   129   130    1
     2   132   131    2
     3   137   135   ar
     4   137   139   ar
     5   130   131    1
     6   130   133    1
     7   135   134   ar
     8   139   138   ar
     9   134   133    1
    10   134   136   ar
    11   123   122    2
    12   138   136   ar
    13   122   121    1
    14   118   117    2
    15   115   116    1
    16   117   116    1
    17   117   120   am
    18   116   119    1
    19   121   120    1
    20   121   124    1
    21   124   125    1
    22   161   162    1
    23   161   160    1
    24   161   164    1
    25   128   126   ar
    26   162   163    2
    27   110   109    2
    28   165   164    1
    29   165   166    1
    30   125   126    1
    31   109   108    1
    32   126   127   ar
    33   168   166   ar
    34    99    98    2
    35   166   167   ar
    36   106   104    1
    37    77    76    2
    38   107   108    1
    39   151   150    2
    40    98    97    1
    41   108   111    1
    42   104   105    1
    43   104   103    2
    44   103   102    1
    45   101   102    1
    46   101   100    1
    47   150   149    1
    48    79    80    1
    49    79    78    1
    50    82    80   ar
    51    76    75    1
    52   111   112    1
    53   100    97    1
    54    75    78    1
    55    75    74    1
    56   113   112   ar
    57    97    96    1
    58   112   114   ar
    59    80    81   ar
    60   149   152    1
    61   149   148    1
    62   152   153    1
    63   143   142    2
    64   148   142   am
    65   155   153   ar
    66   155   157   ar
    67    57    56    2
    68   153   154   ar
    69   176   178   ar
    70   176   174   ar
    71   142   141    1
    72   189   190    1
    73   189   188    1
    74   178   179   ar
    75   173   174    1
    76   173   170    1
    77    88    87    1
    78   174   175   ar
    79   157   158   ar
    80   172   171    2
    81    56    55    1
    82   190   191    2
    83   188   183   am
    84    89    87    1
    85   179   180    1
    86   179   177   ar
    87   196   193    1
    88    58    55    1
    89    58    59    1
    90   192   193    1
    91    55    54    1
    92    59    60   ar
    93    59    61   ar
    94   170   171    1
    95   170   169    1
    96   154   156   ar
    97   175   177   ar
    98   171   181   am
    99    87    84    1
   100   141   140    1
   101   141   144    1
   102    65    64    2
   103   193   194    1
   104   158   156   ar
   105   158   159    1
   106   183   184    2
   107   183   182    1
   108   181   182    1
   109    83    84    1
   110    64    63    1
   111    84    85    1
   112    95    94    1
   113   144   145    1
   114   182   185    1
   115    90    85   am
   116    90    91    1
   117    94    91    1
   118    85    86    2
   119    91    92    1
   120    63    62    1
   121    63    66    1
   122   194   197   am
   123   194   195    2
   124    53    51   ar
   125    22    20    1
   126    10     9    1
   127   197   198    1
   128    52    51   ar
   129   145   146    1
   130   145   147    1
   131    68    70   ar
   132    68    67   ar
   133    49    48    2
   134    51    50    1
   135   185   187    1
   136   185   186    1
   137    66    67    1
   138     7     6    1
   139     7     8    1
   140    70    72   ar
   141    92    93    2
   142    20    19    2
   143    20    21    1
   144     9     8    2
   145     9    11    1
   146    67    69   ar
   147   198   201    1
   148   198   199    1
   149    19    18    1
   150     6     5    1
   151    48    47    1
   152    50    47    1
   153   199   200    2
   154    72    73    1
   155    72    71   ar
   156    43    45   ar
   157    43    41   ar
   158    47    46    1
   159    69    71   ar
   160    40    41   ar
   161    40    38   ar
   162    18    17    1
   163     5     2    1
   164    45    44   ar
   165    41    39   ar
   166    38    37   ar
   167    17    16    1
   168     2     1    1
   169     2     3    1
   170    31    29   ar
   171    28    29    1
   172    28    27    1
   173    44    42   ar
   174    39    37   ar
   175    39    42   ar
   176    29    30   ar
   177    37    36    1
   178    27    24    1
   179    16    13    1
   180     3     4    2
   181    36    33    1
   182    13    12    1
   183    13    14    1
   184    24    25    1
   185    24    23    1
   186    33    32    1
   187    33    34    1
   188    26    25    2
   189    15    14    2
   190    35    34    2
