@<TRIPOS>MOLECULE
tmp/3g4iA00.pdb
 167 163 0 0 0
SMALL
GASTEIGER

@<TRIPOS>ATOM
      1  N         12.6570   -0.0630   34.8560 N.3    78  TYR78      -0.1227
      2  CA        13.8940    0.5150   34.3490 C.3    78  TYR78       0.1736
      3  C         13.6780    1.3830   33.1070 C.2    78  TYR78       0.2595
      4  O         14.0690    2.5610   33.0930 O.2    78  TYR78      -0.2718
      5  CB        14.9630   -0.5700   34.0810 C.3    78  TYR78       0.0548
      6  CG        16.3020   -0.0130   33.5920 C.ar   78  TYR78      -0.0200
      7  CD1       17.3100    0.3030   34.4880 C.ar   78  TYR78      -0.0009
      8  CD2       16.5520    0.1940   32.2340 C.ar   78  TYR78      -0.0009
      9  CE1       18.5220    0.8030   34.0680 C.ar   78  TYR78       0.0417
     10  CE2       17.7700    0.7150   31.7970 C.ar   78  TYR78       0.0417
     11  CZ        18.7550    1.0180   32.7270 C.ar   78  TYR78       0.1957
     12  OH        19.9710    1.5330   32.3350 O.3    78  TYR78      -0.2866
     13  N         13.0990    0.8000   32.0520 N.am   79  HIS79      -0.1975
     14  CA        12.9550    1.5230   30.7660 C.3    79  HIS79       0.1656
     15  C         11.7680    2.4750   30.7800 C.2    79  HIS79       0.2291
     16  O         10.7650    2.2750   30.0930 O.2    79  HIS79      -0.2864
     17  CB        12.8340    0.5510   29.5930 C.3    79  HIS79       0.0771
     18  CG        14.0800   -0.2410   29.3560 C.ar   79  HIS79       0.0820
     19  ND1       14.1910   -1.5660   29.7090 N.ar   79  HIS79      -0.2267
     20  CD2       15.2860    0.1170   28.8540 C.ar   79  HIS79       0.1154
     21  CE1       15.4040   -1.9980   29.4090 C.ar   79  HIS79       0.1986
     22  NE2       16.0880   -0.9970   28.8850 N.ar   79  HIS79      -0.2212
     23  N         21.5420   -3.9390   21.7830 N.3   192  MET192     -0.1245
     24  CA        22.7490   -4.5450   22.3800 C.3   192  MET192      0.1570
     25  C         23.3610   -5.6260   21.4980 C.2   192  MET192      0.2261
     26  O         24.5320   -5.9630   21.6510 O.2   192  MET192     -0.2867
     27  CB        22.4810   -5.0950   23.7940 C.3   192  MET192      0.0387
     28  CG        22.5220   -4.0380   24.8920 C.3   192  MET192      0.0595
     29  SD        24.1640   -3.2760   25.0800 S.3   192  MET192     -0.1393
     30  CE        25.1900   -4.7260   25.4080 C.3   192  MET192      0.0692
     31  N         23.7810    5.1790   27.5800 N.3   237  ASP237     -0.1225
     32  CA        22.8380    4.0960   27.8340 C.3   237  ASP237      0.1805
     33  C         23.4060    3.0470   28.8180 C.2   237  ASP237      0.2597
     34  O         22.6610    2.5020   29.6510 O.2   237  ASP237     -0.2718
     35  CB        22.4910    3.4400   26.5040 C.3   237  ASP237      0.1424
     36  CG        21.1620    2.7120   26.5210 C.2   237  ASP237      0.3668
     37  OD1       20.3040    2.9830   27.3880 O.co2 237  ASP237     -0.2456
     38  OD2       20.9870    1.8540   25.6280 O.co2 237  ASP237     -0.2456
     39  N         24.7190    2.8290   28.7310 N.am  238  LEU238     -0.1979
     40  CA        25.4560    1.9000   29.5900 C.3   238  LEU238      0.1596
     41  C         26.3060    2.6420   30.6300 C.2   238  LEU238      0.2287
     42  O         27.3860    2.1820   31.0130 O.2   238  LEU238     -0.2864
     43  CB        26.3480    0.9910   28.7260 C.3   238  LEU238      0.0297
     44  CG        25.6740    0.0570   27.7230 C.3   238  LEU238      0.0022
     45  CD1       26.7660   -0.7630   27.0130 C.3   238  LEU238      0.0001
     46  CD2       24.6540   -0.8390   28.3990 C.3   238  LEU238      0.0001
     47  N         25.2000    3.5680   33.8660 N.3   240  ASN240     -0.1226
     48  CA        24.7930    3.3760   35.2780 C.3   240  ASN240      0.1770
     49  C         25.9660    2.9590   36.2250 C.2   240  ASN240      0.2439
     50  O         26.0820    3.5120   37.3190 O.2   240  ASN240     -0.2733
     51  CB        23.6550    2.3540   35.4410 C.3   240  ASN240      0.1168
     52  CG        22.3600    2.7210   34.6820 C.2   240  ASN240      0.2627
     53  OD1       21.5280    1.8510   34.4800 O.2   240  ASN240     -0.2716
     54  ND2       22.1980    3.9760   34.2730 N.am  240  ASN240     -0.0877
     55  N         26.7970    1.9720   35.8220 N.am  241  PRO241     -0.2729
     56  CA        27.9430    1.5380   36.6810 C.3   241  PRO241      0.1401
     57  C         29.0700    2.5490   36.8570 C.2   241  PRO241      0.2269
     58  O         29.9400    2.3480   37.7290 O.2   241  PRO241     -0.2865
     59  CB        28.4550    0.2720   35.9750 C.3   241  PRO241      0.0296
     60  CG        27.2740   -0.1930   35.1130 C.3   241  PRO241      0.0237
     61  CD        26.7180    1.1250   34.6130 C.3   241  PRO241      0.0939
     62  N         23.9120    4.0590   41.1090 N.3   248  TYR248     -0.1241
     63  CA        24.1260    2.7820   40.4090 C.3   248  TYR248      0.1605
     64  C         23.2680    1.6650   41.0040 C.2   248  TYR248      0.2264
     65  O         22.6020    0.9220   40.2740 O.2   248  TYR248     -0.2867
     66  CB        25.6190    2.4210   40.4500 C.3   248  TYR248      0.0534
     67  CG        26.0420    1.0870   39.8510 C.ar  248  TYR248     -0.0201
     68  CD1       25.2460    0.4000   38.9220 C.ar  248  TYR248     -0.0009
     69  CD2       27.2740    0.5290   40.1890 C.ar  248  TYR248     -0.0009
     70  CE1       25.6680   -0.8090   38.3600 C.ar  248  TYR248      0.0417
     71  CE2       27.7000   -0.6750   39.6420 C.ar  248  TYR248      0.0417
     72  CZ        26.8930   -1.3460   38.7310 C.ar  248  TYR248      0.1957
     73  OH        27.3350   -2.5380   38.1990 O.3   248  TYR248     -0.2866
     74  N         19.6330    1.9110   39.9840 N.3   251  TRP251     -0.1227
     75  CA        19.4550    1.3980   38.6140 C.3   251  TRP251      0.1737
     76  C         19.4820   -0.1370   38.5540 C.2   251  TRP251      0.2596
     77  O         18.6600   -0.7570   37.8790 O.2   251  TRP251     -0.2718
     78  CB        20.5190    1.9610   37.6690 C.3   251  TRP251      0.0564
     79  CG        20.3870    3.4290   37.4130 C.ar  251  TRP251      0.0003
     80  CD1       21.3240    4.3750   37.6630 C.ar  251  TRP251      0.0946
     81  CD2       19.2470    4.1260   36.8600 C.ar  251  TRP251      0.0152
     82  NE1       20.8640    5.6150   37.2920 N.ar  251  TRP251     -0.2442
     83  CE2       19.5860    5.4960   36.8120 C.ar  251  TRP251      0.0810
     84  CE3       17.9800    3.7260   36.4060 C.ar  251  TRP251      0.0012
     85  CZ2       18.7130    6.4710   36.3130 C.ar  251  TRP251      0.0191
     86  CZ3       17.1090    4.7000   35.9180 C.ar  251  TRP251      0.0001
     87  CH2       17.4760    6.0590   35.8960 C.ar  251  TRP251      0.0015
     88  N         20.4340   -0.7390   39.2560 N.am  252  THR252     -0.1953
     89  CA        20.5050   -2.2050   39.3650 C.3   252  THR252      0.1897
     90  C         19.2210   -2.8280   39.9170 C.2   252  THR252      0.2313
     91  O         18.7080   -3.7780   39.3350 O.2   252  THR252     -0.2863
     92  CB        21.7070   -2.6480   40.2170 C.3   252  THR252      0.1794
     93  OG1       22.9110   -2.1020   39.6640 O.3   252  THR252     -0.2208
     94  CG2       21.8040   -4.1910   40.2810 C.3   252  THR252      0.0378
     95  N         16.5140   -2.5340   37.0990 N.3   255  ILE255     -0.1231
     96  CA        16.6680   -3.4410   35.9540 C.3   255  ILE255      0.1692
     97  C         16.4330   -4.8840   36.3820 C.2   255  ILE255      0.2591
     98  O         15.8450   -5.6520   35.6300 O.2   255  ILE255     -0.2718
     99  CB        18.0260   -3.2520   35.1850 C.3   255  ILE255      0.0266
    100  CG1       17.9760   -3.8780   33.7790 C.3   255  ILE255      0.0019
    101  CG2       19.2080   -3.8040   35.9660 C.3   255  ILE255      0.0020
    102  CD1       16.8240   -3.4080   32.8920 C.3   255  ILE255      0.0001
    103  N         16.8550   -5.2500   37.6000 N.am  256  MET256     -0.1979
    104  CA        16.5450   -6.5870   38.1270 C.3   256  MET256      0.1605
    105  C         15.0590   -6.7920   38.3510 C.2   256  MET256      0.2287
    106  O         14.5460   -7.8720   38.0510 O.2   256  MET256     -0.2864
    107  CB        17.3390   -6.8900   39.4080 C.3   256  MET256      0.0413
    108  CG        18.8500   -6.9830   39.1870 C.3   256  MET256      0.0598
    109  SD        19.4460   -7.9080   37.7440 S.3   256  MET256     -0.1393
    110  CE        18.9240   -9.5870   38.1060 C.3   256  MET256      0.0692
    111  N         13.6630   -7.3150   34.7420 N.3   259  PHE259     -0.1241
    112  CA        14.1230   -8.6370   34.2550 C.3   259  PHE259      0.1605
    113  C         13.3810   -9.7970   34.9330 C.2   259  PHE259      0.2264
    114  O         12.9330  -10.7190   34.2640 O.2   259  PHE259     -0.2867
    115  CB        15.6280   -8.8020   34.4980 C.3   259  PHE259      0.0534
    116  CG        16.5180   -8.1630   33.4560 C.ar  259  PHE259     -0.0203
    117  CD1       16.0010   -7.3940   32.4020 C.ar  259  PHE259     -0.0042
    118  CD2       17.9020   -8.2980   33.5600 C.ar  259  PHE259     -0.0042
    119  CE1       16.8440   -6.8220   31.4610 C.ar  259  PHE259     -0.0003
    120  CE2       18.7540   -7.7110   32.6260 C.ar  259  PHE259     -0.0003
    121  CZ        18.2180   -6.9780   31.5650 C.ar  259  PHE259     -0.0000
    122  N         19.4720  -13.9330   33.1200 N.3   276  MET276     -0.1245
    123  CA        19.3950  -12.8910   34.1480 C.3   276  MET276      0.1570
    124  C         17.9690  -12.6250   34.6710 C.2   276  MET276      0.2261
    125  O         17.8060  -11.8060   35.5760 O.2   276  MET276     -0.2867
    126  CB        20.0230  -11.5690   33.6620 C.3   276  MET276      0.0387
    127  CG        21.4120  -11.6800   33.0060 C.3   276  MET276      0.0595
    128  SD        21.9450  -10.1070   32.2630 S.3   276  MET276     -0.1393
    129  CE        21.1740  -10.1370   30.6380 C.3   276  MET276      0.0692
    130  N         26.9150  -11.1750   38.5630 N.3   287  SER287     -0.1202
    131  CA        26.4480  -10.6870   37.2720 C.3   287  SER287      0.2020
    132  C         26.8980   -9.2570   36.9880 C.2   287  SER287      0.2618
    133  O         27.2380   -8.9540   35.8600 O.2   287  SER287     -0.2717
    134  CB        24.9240  -10.7970   37.1650 C.3   287  SER287      0.2103
    135  OG        24.5300  -12.1540   36.9850 O.3   287  SER287     -0.2182
    136  N         26.9080   -8.3880   38.0040 N.am  288  GLN288     -0.1979
    137  CA        27.3870   -7.0130   37.8230 C.3   288  GLN288      0.1601
    138  C         28.8820   -6.9730   37.5310 C.2   288  GLN288      0.2287
    139  O         29.3250   -6.2190   36.6690 O.2   288  GLN288     -0.2864
    140  CB        27.0600   -6.1430   39.0460 C.3   288  GLN288      0.0394
    141  CG        25.5850   -5.8200   39.1870 C.3   288  GLN288      0.0908
    142  CD        24.9910   -5.2440   37.9150 C.2   288  GLN288      0.2608
    143  OE1       25.4480   -4.2160   37.4020 O.2   288  GLN288     -0.2717
    144  NE2       23.9600   -5.9110   37.3950 N.am  288  GLN288     -0.0878
    145  N         30.5890   -9.3120   36.0640 N.3   290  GLY290     -0.1210
    146  CA        30.6750   -9.8040   34.6850 C.3   290  GLY290      0.1956
    147  C         30.2550   -8.7720   33.6560 C.2   290  GLY290      0.2611
    148  O         30.9120   -8.5910   32.6370 O.2   290  GLY290     -0.2717
    149  N         29.1390   -8.1090   33.9270 N.am  291  PHE291     -0.1976
    150  CA        28.6440   -7.0130   33.0990 C.3   291  PHE291      0.1639
    151  C         29.7270   -5.9560   32.8980 C.2   291  PHE291      0.2290
    152  O         29.9850   -5.5180   31.7730 O.2   291  PHE291     -0.2864
    153  CB        27.4110   -6.3920   33.7790 C.3   291  PHE291      0.0560
    154  CG        26.7850   -5.2590   33.0080 C.ar  291  PHE291     -0.0200
    155  CD1       26.5920   -5.3470   31.6290 C.ar  291  PHE291     -0.0042
    156  CD2       26.3420   -4.1220   33.6730 C.ar  291  PHE291     -0.0042
    157  CE1       26.0040   -4.2940   30.9170 C.ar  291  PHE291     -0.0003
    158  CE2       25.7520   -3.0800   32.9810 C.ar  291  PHE291     -0.0003
    159  CZ        25.5820   -3.1650   31.5920 C.ar  291  PHE291     -0.0000
    160  N         31.4890   -6.0130   29.2680 N.3   295  ILE295     -0.1245
    161  CA        30.7430   -5.0600   28.4260 C.3   295  ILE295      0.1561
    162  C         31.0750   -3.6040   28.7410 C.2   295  ILE295      0.2260
    163  O         31.5040   -2.8650   27.8480 O.2   295  ILE295     -0.2867
    164  CB        29.1980   -5.3010   28.5140 C.3   295  ILE295      0.0252
    165  CG1       28.8430   -6.6620   27.8920 C.3   295  ILE295      0.0019
    166  CG2       28.4330   -4.1750   27.7970 C.3   295  ILE295      0.0019
    167  CD1       27.5790   -7.2840   28.4380 C.3   295  ILE295      0.0001
@<TRIPOS>BOND
     1    25    26    2
     2    25    24    1
     3    23    24    1
     4    24    27    1
     5    27    28    1
     6    28    29    1
     7    29    30    1
     8    38    36   ar
     9    35    36    1
    10    35    32    1
    11    36    37   ar
    12    45    44    1
    13    31    32    1
    14    44    46    1
    15    44    43    1
    16   166   164    1
    17    32    33    1
    18   163   162    2
    19   165   167    1
    20   165   164    1
    21   161   164    1
    22   161   162    1
    23   161   160    1
    24    43    40    1
    25    39    33   am
    26    39    40    1
    27    33    34    2
    28    20    22   ar
    29    20    18   ar
    30    22    21   ar
    31    18    17    1
    32    18    19   ar
    33    21    19   ar
    34    40    41    1
    35    17    14    1
    36    16    15    2
    37    41    42    2
    38   129   128    1
    39    14    15    1
    40    14    13    1
    41   157   159   ar
    42   157   155   ar
    43   119   121   ar
    44   119   117   ar
    45   121   120   ar
    46   159   158   ar
    47   155   154   ar
    48   152   151    2
    49    10     8   ar
    50    10    11   ar
    51    13     3   am
    52     8     6   ar
    53   128   127    1
    54    12    11    1
    55   117   116   ar
    56   120   118   ar
    57   148   147    2
    58    11     9   ar
    59   102   100    1
    60   151   150    1
    61   158   156   ar
    62   127   126    1
    63   154   156   ar
    64   154   153    1
    65     4     3    2
    66   150   153    1
    67   150   149    1
    68     3     2    1
    69   122   123    1
    70   116   118   ar
    71   116   115    1
    72     6     5    1
    73     6     7   ar
    74   147   149   am
    75   147   146    1
    76   126   123    1
    77   100    99    1
    78    47    48    1
    79     9     7   ar
    80     5     2    1
    81   123   124    1
    82   112   115    1
    83   112   111    1
    84   112   113    1
    85   114   113    2
    86    54    52   am
    87     2     1    1
    88    53    52    2
    89    61    60    1
    90    61    55    1
    91   124   125    2
    92    52    51    1
    93   146   145    1
    94    60    59    1
    95    99    96    1
    96    99   101    1
    97    48    51    1
    98    48    49    1
    99    98    97    2
   100    55    49   am
   101    55    56    1
   102   133   132    2
   103    87    86   ar
   104    87    85   ar
   105    86    84   ar
   106    96    97    1
   107    96    95    1
   108    59    56    1
   109    49    50    2
   110    85    83   ar
   111    97   103   am
   112    84    81   ar
   113   139   138    2
   114    56    57    1
   115    83    81   ar
   116    83    82   ar
   117    57    58    2
   118    81    79   ar
   119   135   134    1
   120   132   131    1
   121   132   136   am
   122   134   131    1
   123   131   130    1
   124    82    80   ar
   125   144   142   am
   126   143   142    2
   127    79    80   ar
   128    79    78    1
   129   138   137    1
   130   103   104    1
   131    78    75    1
   132   109   110    1
   133   109   108    1
   134   137   136    1
   135   137   140    1
   136    77    76    2
   137   142   141    1
   138   106   105    2
   139   104   105    1
   140   104   107    1
   141    73    72    1
   142    70    72   ar
   143    70    68   ar
   144    76    75    1
   145    76    88   am
   146    75    74    1
   147    72    71   ar
   148    68    67   ar
   149   140   141    1
   150   108   107    1
   151    88    89    1
   152    91    90    2
   153    89    90    1
   154    89    92    1
   155    71    69   ar
   156    93    92    1
   157    67    69   ar
   158    67    66    1
   159    92    94    1
   160    65    64    2
   161    63    66    1
   162    63    64    1
   163    63    62    1
