@<TRIPOS>MOLECULE
tmp/3g4wB00.pdb
 91 86 0 0 0
SMALL
GASTEIGER

@<TRIPOS>ATOM
      1  N         16.3000    7.7050   21.8240 N.3    21  TRP21      -0.1241
      2  CA        17.3530    6.7480   22.1370 C.3    21  TRP21       0.1605
      3  C         17.0950    6.0380   23.4620 C.2    21  TRP21       0.2264
      4  O         17.5290    4.9050   23.6530 O.2    21  TRP21      -0.2867
      5  CB        18.7230    7.4340   22.1730 C.3    21  TRP21       0.0550
      6  CG        19.8480    6.4480   22.3530 C.ar   21  TRP21       0.0003
      7  CD1       20.6720    6.3280   23.4360 C.ar   21  TRP21       0.0946
      8  CD2       20.2550    5.4350   21.4260 C.ar   21  TRP21       0.0152
      9  NE1       21.5680    5.3020   23.2410 N.ar   21  TRP21      -0.2442
     10  CE2       21.3350    4.7370   22.0160 C.ar   21  TRP21       0.0810
     11  CE3       19.8120    5.0480   20.1550 C.ar   21  TRP21       0.0012
     12  CZ2       21.9810    3.6720   21.3750 C.ar   21  TRP21       0.0191
     13  CZ3       20.4560    3.9850   19.5150 C.ar   21  TRP21       0.0001
     14  CH2       21.5280    3.3120   20.1290 C.ar   21  TRP21       0.0015
     15  N         14.9030    3.2310   21.9570 N.3    24  ILE24      -0.1245
     16  CA        15.6280    2.4420   20.9590 C.3    24  ILE24       0.1561
     17  C         16.8990    1.8190   21.5290 C.2    24  ILE24       0.2260
     18  O         17.2110    0.6570   21.2520 O.2    24  ILE24      -0.2867
     19  CB        15.9740    3.3110   19.7060 C.3    24  ILE24       0.0252
     20  CG1       14.7850    3.3490   18.7380 C.3    24  ILE24       0.0019
     21  CG2       17.1520    2.7110   18.9470 C.3    24  ILE24       0.0019
     22  CD1       13.4610    3.6650   19.3680 C.3    24  ILE24       0.0001
     23  N         16.9180   -4.0610   18.3540 N.3    31  ASN31      -0.1240
     24  CA        16.8070   -2.9420   17.4230 C.3    31  ASN31       0.1653
     25  C         17.9640   -2.8250   16.4370 C.2    31  ASN31       0.2266
     26  O         17.7780   -2.3600   15.3130 O.2    31  ASN31      -0.2867
     27  CB        16.6130   -1.6430   18.2070 C.3    31  ASN31       0.1155
     28  CG        15.2810   -1.6130   18.9390 C.2    31  ASN31       0.2627
     29  OD1       14.2770   -2.1150   18.4290 O.2    31  ASN31      -0.2716
     30  ND2       15.2590   -1.0180   20.1220 N.am   31  ASN31      -0.0877
     31  N         17.5100   -3.0750   12.4220 N.3    35  LEU35      -0.1245
     32  CA        17.9980   -2.0210   11.5440 C.3    35  LEU35       0.1561
     33  C         18.7530   -2.6370   10.3680 C.2    35  LEU35       0.2260
     34  O         18.5050   -2.2950    9.2130 O.2    35  LEU35      -0.2867
     35  CB        18.9240   -1.0710   12.3110 C.3    35  LEU35       0.0270
     36  CG        19.4790    0.1220   11.5210 C.3    35  LEU35       0.0019
     37  CD1       18.3530    1.0730   11.1490 C.3    35  LEU35       0.0001
     38  CD2       20.5060    0.8520   12.3700 C.3    35  LEU35       0.0001
     39  N         25.2440   -0.4440   17.6110 N.3    73  MET73      -0.1245
     40  CA        24.4420    0.3440   18.5330 C.3    73  MET73       0.1570
     41  C         25.2860    1.1060   19.5620 C.2    73  MET73       0.2261
     42  O         24.8600    2.1390   20.0720 O.2    73  MET73      -0.2867
     43  CB        23.4190   -0.5610   19.2220 C.3    73  MET73       0.0387
     44  CG        22.3930   -1.1460   18.2490 C.3    73  MET73       0.0595
     45  SD        21.3840    0.1280   17.4250 S.3    73  MET73      -0.1393
     46  CE        19.9790    0.2060   18.5670 C.3    73  MET73       0.0692
     47  N         26.4640    4.3530   18.1660 N.3    76  LEU76      -0.1245
     48  CA        25.4070    5.3500   18.2880 C.3    76  LEU76       0.1561
     49  C         25.3190    5.8510   19.7280 C.2    76  LEU76       0.2260
     50  O         25.0590    7.0330   19.9680 O.2    76  LEU76      -0.2867
     51  CB        24.0640    4.7660   17.8310 C.3    76  LEU76       0.0270
     52  CG        24.0230    4.4230   16.3360 C.3    76  LEU76       0.0019
     53  CD1       22.6510    3.8940   15.9520 C.3    76  LEU76       0.0001
     54  CD2       24.3490    5.6780   15.5160 C.3    76  LEU76       0.0001
     55  N         16.1950    3.6140    9.5450 N.3   117  ILE117     -0.1245
     56  CA        16.0450    4.3260   10.8050 C.3   117  ILE117      0.1561
     57  C         14.6070    4.8150   10.9530 C.2   117  ILE117      0.2260
     58  O         13.9920    4.6420   12.0030 O.2   117  ILE117     -0.2867
     59  CB        17.0160    5.5250   10.8940 C.3   117  ILE117      0.0252
     60  CG1       18.4280    5.0130   11.1890 C.3   117  ILE117      0.0019
     61  CG2       16.5600    6.4970   11.9870 C.3   117  ILE117      0.0019
     62  CD1       19.4770    6.1130   11.3170 C.3   117  ILE117      0.0001
     63  N         12.2240    1.7500   11.7010 N.3   120  VAL120     -0.1231
     64  CA        12.3580    1.1900   13.0410 C.3   120  VAL120      0.1692
     65  C         11.8100    2.1660   14.0840 C.2   120  VAL120      0.2591
     66  O         11.1840    1.7520   15.0610 O.2   120  VAL120     -0.2718
     67  CB        13.8290    0.8190   13.3450 C.3   120  VAL120      0.0266
     68  CG1       13.9650    0.3330   14.7840 C.3   120  VAL120      0.0020
     69  CG2       14.2820   -0.2810   12.3880 C.3   120  VAL120      0.0020
     70  N         12.0330    3.4600   13.8700 N.am  121  LEU121     -0.1980
     71  CA        11.5150    4.4790   14.7820 C.3   121  LEU121      0.1596
     72  C          9.9870    4.4260   14.7940 C.2   121  LEU121      0.2287
     73  O          9.3560    4.5350   15.8480 O.2   121  LEU121     -0.2864
     74  CB        11.9560    5.8790   14.3350 C.3   121  LEU121      0.0297
     75  CG        13.3790    6.3450   14.6570 C.3   121  LEU121      0.0022
     76  CD1       13.6550    7.6620   13.9450 C.3   121  LEU121      0.0001
     77  CD2       13.5380    6.5130   16.1610 C.3   121  LEU121      0.0001
     78  N         17.2340   12.2760   13.5760 N.3   134  TRP134     -0.1241
     79  CA        18.2970   11.3090   13.3150 C.3   134  TRP134      0.1605
     80  C         19.0050   11.5540   11.9880 C.2   134  TRP134      0.2264
     81  O         20.2030   11.2950   11.8640 O.2   134  TRP134     -0.2867
     82  CB        17.7550    9.8820   13.3750 C.3   134  TRP134      0.0550
     83  CG        17.5970    9.4110   14.7890 C.ar  134  TRP134      0.0003
     84  CD1       16.4840    9.5200   15.5790 C.ar  134  TRP134      0.0946
     85  CD2       18.6240    8.8570   15.6170 C.ar  134  TRP134      0.0152
     86  NE1       16.7610    9.0730   16.8490 N.ar  134  TRP134     -0.2442
     87  CE2       18.0680    8.6610   16.9000 C.ar  134  TRP134      0.0810
     88  CE3       19.9670    8.5130   15.4010 C.ar  134  TRP134      0.0012
     89  CZ2       18.8080    8.1320   17.9670 C.ar  134  TRP134      0.0191
     90  CZ3       20.7030    7.9870   16.4640 C.ar  134  TRP134      0.0001
     91  CH2       20.1190    7.8050   17.7290 C.ar  134  TRP134      0.0015
@<TRIPOS>BOND
     1    34    33    2
     2    55    56    1
     3    33    32    1
     4    56    59    1
     5    56    57    1
     6    59    60    1
     7    59    61    1
     8    57    58    2
     9    37    36    1
    10    60    62    1
    11    36    35    1
    12    36    38    1
    13    32    35    1
    14    32    31    1
    15    63    64    1
    16    81    80    2
    17    80    79    1
    18    69    67    1
    19    64    67    1
    20    64    65    1
    21    79    82    1
    22    79    78    1
    23    67    68    1
    24    82    83    1
    25    70    65   am
    26    70    71    1
    27    76    75    1
    28    65    66    2
    29    74    75    1
    30    74    71    1
    31    75    77    1
    32    71    72    1
    33    83    84   ar
    34    83    85   ar
    35    72    73    2
    36    26    25    2
    37    88    85   ar
    38    88    90   ar
    39    54    52    1
    40    84    86   ar
    41    85    87   ar
    42    53    52    1
    43    52    51    1
    44    25    24    1
    45    90    91   ar
    46    86    87   ar
    47    87    89   ar
    48    24    27    1
    49    24    23    1
    50    45    44    1
    51    45    46    1
    52    39    40    1
    53    91    89   ar
    54    51    48    1
    55    47    48    1
    56    27    28    1
    57    44    43    1
    58    48    49    1
    59    29    28    2
    60    40    43    1
    61    40    41    1
    62    20    22    1
    63    20    19    1
    64    28    30   am
    65    21    19    1
    66    13    14   ar
    67    13    11   ar
    68    41    42    2
    69    19    16    1
    70    49    50    2
    71    14    12   ar
    72    11     8   ar
    73    16    17    1
    74    16    15    1
    75    18    17    2
    76    12    10   ar
    77     8    10   ar
    78     8     6   ar
    79     1     2    1
    80    10     9   ar
    81     2     5    1
    82     2     3    1
    83     5     6    1
    84     6     7   ar
    85     9     7   ar
    86     3     4    2
