@<TRIPOS>MOLECULE
tmp/3g4yA01.pdb
 97 92 0 0 0
SMALL
GASTEIGER

@<TRIPOS>ATOM
      1  N         33.7040   -1.8920   39.5590 N.3    20  SER20      -0.1202
      2  CA        34.8140   -1.0320   39.1680 C.3    20  SER20       0.2020
      3  C         34.4640   -0.2200   37.9250 C.2    20  SER20       0.2618
      4  O         34.8550    0.9390   37.8050 O.2    20  SER20      -0.2717
      5  CB        36.0800   -1.8620   38.9220 C.3    20  SER20       0.2103
      6  OG        35.8570   -2.9010   37.9870 O.3    20  SER20      -0.2182
      7  N         33.7150   -0.8210   37.0050 N.am   21  TRP21      -0.1975
      8  CA        33.3230   -0.1150   35.7870 C.3    21  TRP21       0.1640
      9  C         32.4040    1.0700   36.0790 C.2    21  TRP21       0.2290
     10  O         32.4280    2.0690   35.3650 O.2    21  TRP21      -0.2864
     11  CB        32.6290   -1.0650   34.8030 C.3    21  TRP21       0.0576
     12  CG        32.2660   -0.3910   33.5090 C.ar   21  TRP21       0.0006
     13  CD1       31.0080   -0.1080   33.0520 C.ar   21  TRP21       0.0946
     14  CD2       33.1740    0.1210   32.5250 C.ar   21  TRP21       0.0152
     15  NE1       31.0790    0.5490   31.8460 N.ar   21  TRP21      -0.2442
     16  CE2       32.3970    0.7030   31.5000 C.ar   21  TRP21       0.0810
     17  CE3       34.5720    0.1460   32.4110 C.ar   21  TRP21       0.0012
     18  CZ2       32.9690    1.3040   30.3720 C.ar   21  TRP21       0.0191
     19  CZ3       35.1410    0.7430   31.2890 C.ar   21  TRP21       0.0001
     20  CH2       34.3390    1.3130   30.2860 C.ar   21  TRP21       0.0015
     21  N         35.1540    3.8260   36.8590 N.3    24  ILE24      -0.1245
     22  CA        36.0220    4.1730   35.7410 C.3    24  ILE24       0.1561
     23  C         35.2570    4.4880   34.4530 C.2    24  ILE24       0.2260
     24  O         35.6920    5.3250   33.6690 O.2    24  ILE24      -0.2867
     25  CB        37.0700    3.0620   35.4390 C.3    24  ILE24       0.0252
     26  CG1       38.1470    2.9870   36.5330 C.3    24  ILE24       0.0019
     27  CG2       37.8040    3.4120   34.1600 C.3    24  ILE24       0.0019
     28  CD1       37.6250    2.8460   37.9440 C.3    24  ILE24       0.0001
     29  N         39.7260    8.4620   31.4590 N.3    31  ASN31      -0.1240
     30  CA        40.3430    7.1720   31.7360 C.3    31  ASN31       0.1653
     31  C         40.7520    6.4160   30.4780 C.2    31  ASN31       0.2266
     32  O         41.6740    5.6030   30.5170 O.2    31  ASN31      -0.2867
     33  CB        39.4130    6.3170   32.5980 C.3    31  ASN31       0.1155
     34  CG        39.2530    6.8760   33.9950 C.2    31  ASN31       0.2627
     35  OD1       40.2220    7.3380   34.5980 O.2    31  ASN31      -0.2716
     36  ND2       38.0340    6.8340   34.5220 N.am   31  ASN31      -0.0877
     37  N         44.5330    5.2110   29.9130 N.3    35  LEU35      -0.1245
     38  CA        44.8880    3.8300   29.6110 C.3    35  LEU35       0.1561
     39  C         45.8460    3.7580   28.4220 C.2    35  LEU35       0.2260
     40  O         46.8380    3.0300   28.4550 O.2    35  LEU35      -0.2867
     41  CB        43.6290    3.0170   29.2930 C.3    35  LEU35       0.0270
     42  CG        43.8600    1.5440   28.9400 C.3    35  LEU35       0.0019
     43  CD1       44.3410    0.7960   30.1760 C.3    35  LEU35       0.0001
     44  CD2       42.5710    0.9240   28.4120 C.3    35  LEU35       0.0001
     45  N         36.5480    2.7610   25.0600 N.3    73  MET73      -0.1245
     46  CA        35.7830    2.6100   26.2920 C.3    73  MET73       0.1570
     47  C         34.3780    2.0840   26.0370 C.2    73  MET73       0.2261
     48  O         33.7920    1.4390   26.9020 O.2    73  MET73      -0.2867
     49  CB        35.7270    3.9390   27.0530 C.3    73  MET73       0.0387
     50  CG        37.0830    4.3990   27.5790 C.3    73  MET73       0.0595
     51  SD        37.8020    3.2550   28.7970 S.3    73  MET73      -0.1393
     52  CE        37.1040    3.9200   30.3110 C.3    73  MET73       0.0692
     53  N         34.4500   -1.6330   25.8450 N.3    76  LEU76      -0.1245
     54  CA        34.4150   -2.2350   27.1670 C.3    76  LEU76       0.1561
     55  C         33.0050   -2.1610   27.7350 C.2    76  LEU76       0.2260
     56  O         32.5560   -3.0960   28.3920 O.2    76  LEU76      -0.2867
     57  CB        35.4060   -1.5410   28.1080 C.3    76  LEU76       0.0270
     58  CG        36.8770   -1.7670   27.7430 C.3    76  LEU76       0.0019
     59  CD1       37.7670   -1.0910   28.7680 C.3    76  LEU76       0.0001
     60  CD2       37.1760   -3.2530   27.6840 C.3    76  LEU76       0.0001
     61  N         45.9160   -1.3850   32.7440 N.3   117  ILE117     -0.1245
     62  CA        44.6430   -1.4970   33.4540 C.3   117  ILE117      0.1561
     63  C         44.8620   -1.5260   34.9670 C.2   117  ILE117      0.2260
     64  O         44.1600   -0.8440   35.7170 O.2   117  ILE117     -0.2867
     65  CB        43.8580   -2.7700   33.0200 C.3   117  ILE117      0.0252
     66  CG1       43.3010   -2.5760   31.6070 C.3   117  ILE117      0.0019
     67  CG2       42.7250   -3.0580   34.0030 C.3   117  ILE117      0.0019
     68  CD1       42.5240   -3.7720   31.0730 C.3   117  ILE117      0.0001
     69  N         45.9280    2.0640   36.1400 N.3   120  VAL120     -0.1231
     70  CA        44.8440    3.0370   36.1810 C.3   120  VAL120      0.1692
     71  C         43.8730    2.7000   37.3060 C.2   120  VAL120      0.2591
     72  O         43.3690    3.5960   37.9820 O.2   120  VAL120     -0.2718
     73  CB        44.0770    3.1020   34.8480 C.3   120  VAL120      0.0266
     74  CG1       42.9050    4.0760   34.9710 C.3   120  VAL120      0.0020
     75  CG2       45.0140    3.5520   33.7380 C.3   120  VAL120      0.0020
     76  N         43.6100    1.4130   37.5130 N.am  121  LEU121     -0.1980
     77  CA        42.7030    1.0100   38.5840 C.3   121  LEU121      0.1596
     78  C         43.2970    1.4000   39.9320 C.2   121  LEU121      0.2287
     79  O         42.5950    1.9080   40.8080 O.2   121  LEU121     -0.2864
     80  CB        42.4620   -0.5020   38.5530 C.3   121  LEU121      0.0297
     81  CG        41.5370   -1.0290   37.4550 C.3   121  LEU121      0.0022
     82  CD1       41.5150   -2.5460   37.4920 C.3   121  LEU121      0.0001
     83  CD2       40.1370   -0.4680   37.6550 C.3   121  LEU121      0.0001
     84  N         39.6230   -7.9980   35.7810 N.3   134  TRP134     -0.1241
     85  CA        39.7130   -7.4880   34.4280 C.3   134  TRP134      0.1605
     86  C         40.6330   -8.3310   33.5630 C.2   134  TRP134      0.2264
     87  O         40.4470   -8.4090   32.3500 O.2   134  TRP134     -0.2867
     88  CB        40.1470   -6.0260   34.4310 C.3   134  TRP134      0.0550
     89  CG        38.9910   -5.1410   34.7140 C.ar  134  TRP134      0.0003
     90  CD1       38.5700   -4.6940   35.9340 C.ar  134  TRP134      0.0946
     91  CD2       38.0330   -4.6760   33.7620 C.ar  134  TRP134      0.0152
     92  NE1       37.4000   -3.9770   35.7970 N.ar  134  TRP134     -0.2442
     93  CE2       37.0500   -3.9530   34.4720 C.ar  134  TRP134      0.0810
     94  CE3       37.9090   -4.8010   32.3710 C.ar  134  TRP134      0.0012
     95  CZ2       35.9560   -3.3530   33.8360 C.ar  134  TRP134      0.0191
     96  CZ3       36.8250   -4.2050   31.7400 C.ar  134  TRP134      0.0001
     97  CH2       35.8620   -3.4890   32.4740 C.ar  134  TRP134      0.0015
@<TRIPOS>BOND
     1    45    46    1
     2    53    54    1
     3    47    46    1
     4    47    48    2
     5    46    49    1
     6    49    50    1
     7    54    55    1
     8    54    57    1
     9    50    51    1
    10    60    58    1
    11    55    56    2
    12    58    57    1
    13    58    59    1
    14    44    42    1
    15    39    40    2
    16    39    38    1
    17    51    52    1
    18    42    41    1
    19    42    43    1
    20    41    38    1
    21    38    37    1
    22    20    18   ar
    23    20    19   ar
    24    18    16   ar
    25    31    32    2
    26    31    30    1
    27    68    66    1
    28    19    17   ar
    29    29    30    1
    30    16    15   ar
    31    16    14   ar
    32    66    65    1
    33    30    33    1
    34    96    94   ar
    35    96    97   ar
    36    15    13   ar
    37    87    86    2
    38    94    91   ar
    39    17    14   ar
    40    97    95   ar
    41    14    12   ar
    42    33    34    1
    43    61    62    1
    44    65    62    1
    45    65    67    1
    46    13    12   ar
    47    62    63    1
    48    12    11    1
    49    86    85    1
    50    24    23    2
    51    75    73    1
    52    91    93   ar
    53    91    89   ar
    54    95    93   ar
    55    34    36   am
    56    34    35    2
    57    27    25    1
    58    85    88    1
    59    85    84    1
    60    88    89    1
    61    23    22    1
    62    93    92   ar
    63    89    90   ar
    64    11     8    1
    65    73    74    1
    66    73    70    1
    67    63    64    2
    68    10     9    2
    69    25    22    1
    70    25    26    1
    71    22    21    1
    72     8     9    1
    73     8     7    1
    74    92    90   ar
    75    69    70    1
    76    70    71    1
    77    26    28    1
    78     7     3   am
    79    71    76   am
    80    71    72    2
    81    81    82    1
    82    81    83    1
    83    81    80    1
    84    76    77    1
    85     4     3    2
    86     3     2    1
    87     6     5    1
    88    80    77    1
    89    77    78    1
    90     5     2    1
    91     2     1    1
    92    78    79    2
