@<TRIPOS>MOLECULE
tmp/3g51A00.pdb
 183 171 0 0 0
SMALL
GASTEIGER

@<TRIPOS>ATOM
      1  N         31.4200   34.0900   87.8680 N.3    28  LEU28      -0.1231
      2  CA        31.0130   32.7010   87.6940 C.3    28  LEU28       0.1693
      3  C         30.3410   32.4890   86.3400 C.2    28  LEU28       0.2593
      4  O         30.4020   31.4040   85.7660 O.2    28  LEU28      -0.2718
      5  CB        30.0430   32.2920   88.7990 C.3    28  LEU28       0.0284
      6  CG        30.6700   32.1650   90.1880 C.3    28  LEU28       0.0019
      7  CD1       29.5980   31.9430   91.2530 C.3    28  LEU28       0.0001
      8  CD2       31.6840   31.0390   90.1830 C.3    28  LEU28       0.0001
      9  N         29.6820   33.5270   85.8480 N.am   29  GLY29      -0.1942
     10  CA        28.9470   33.4200   84.6050 C.3    29  GLY29       0.2014
     11  C         28.2230   34.6990   84.2650 C.2    29  GLY29       0.2639
     12  O         28.3060   35.6890   84.9800 O.2    29  GLY29      -0.2714
     13  N         27.5050   34.6730   83.1510 N.am   30  GLN30      -0.1963
     14  CA        26.7960   35.8390   82.6760 C.3    30  GLN30       0.1733
     15  C         25.4180   35.3650   82.2520 C.2    30  GLN30       0.2617
     16  O         25.3000   34.4070   81.4930 O.2    30  GLN30      -0.2715
     17  CB        27.5390   36.4370   81.4780 C.3    30  GLN30       0.0408
     18  CG        26.7890   37.5390   80.7470 C.3    30  GLN30       0.0908
     19  CD        27.2650   38.9240   81.1330 C.2    30  GLN30       0.2608
     20  OE1       28.4600   39.2260   81.0640 O.2    30  GLN30      -0.2717
     21  NE2       26.3300   39.7810   81.5300 N.am   30  GLN30      -0.0878
     22  N         24.3800   36.0090   82.7690 N.am   31  GLY31      -0.1940
     23  CA        23.0220   35.6940   82.3720 C.3    31  GLY31       0.2014
     24  C         22.3980   36.8660   81.6410 C.2    31  GLY31       0.2640
     25  O         23.0630   37.8700   81.3910 O.2    31  GLY31      -0.2714
     26  N         21.1160   36.7420   81.3150 N.am   32  SER32      -0.1935
     27  CA        20.3820   37.8130   80.6490 C.3    32  SER32       0.2055
     28  C         20.3220   39.0670   81.5150 C.2    32  SER32       0.2643
     29  O         20.3360   40.1890   81.0050 O.2    32  SER32      -0.2714
     30  CB        18.9630   37.3520   80.3060 C.3    32  SER32       0.2130
     31  OG        18.9850   36.2840   79.3740 O.3    32  SER32      -0.2179
     32  N         20.2580   38.8720   82.8280 N.am   33  PHE33      -0.1959
     33  CA        20.1130   39.9870   83.7550 C.3    33  PHE33       0.1771
     34  C         21.4220   40.3800   84.4340 C.2    33  PHE33       0.2620
     35  O         21.4150   41.0400   85.4720 O.2    33  PHE33      -0.2715
     36  CB        19.0360   39.6790   84.7950 C.3    33  PHE33       0.0574
     37  CG        17.6650   39.5100   84.2050 C.ar   33  PHE33      -0.0200
     38  CD1       16.8030   40.5890   84.0960 C.ar   33  PHE33      -0.0042
     39  CD2       17.2440   38.2760   83.7450 C.ar   33  PHE33      -0.0042
     40  CE1       15.5420   40.4360   83.5450 C.ar   33  PHE33      -0.0003
     41  CE2       15.9840   38.1150   83.1950 C.ar   33  PHE33      -0.0003
     42  CZ        15.1330   39.1970   83.0970 C.ar   33  PHE33      -0.0000
     43  N         22.5410   39.9730   83.8460 N.am   34  GLY34      -0.1954
     44  CA        23.8370   40.4080   84.3300 C.3    34  GLY34       0.1869
     45  C         24.8010   39.3010   84.7070 C.2    34  GLY34       0.2309
     46  O         24.5180   38.1130   84.5390 O.2    34  GLY34      -0.2863
     47  N         27.0890   36.9020   87.1560 N.3    36  VAL36      -0.1245
     48  CA        26.9330   36.2690   88.4620 C.3    36  VAL36       0.1561
     49  C         28.3280   36.1560   89.0550 C.2    36  VAL36       0.2260
     50  O         29.2330   35.6300   88.4060 O.2    36  VAL36      -0.2867
     51  CB        26.2680   34.8880   88.3550 C.3    36  VAL36       0.0252
     52  CG1       26.0850   34.2730   89.7450 C.3    36  VAL36       0.0019
     53  CG2       24.9180   35.0060   87.6490 C.3    36  VAL36       0.0019
     54  N         27.2660   32.6300   95.5890 N.3    52  ALA52      -0.1245
     55  CA        27.1060   33.3260   94.3130 C.3    52  ALA52       0.1562
     56  C         26.3680   34.6260   94.5870 C.2    52  ALA52       0.2260
     57  O         25.5650   34.6930   95.5210 O.2    52  ALA52      -0.2867
     58  CB        26.3190   32.4600   93.3100 C.3    52  ALA52       0.0290
     59  N         24.1340   37.8920   92.6410 N.3    54  LYS54      -0.1245
     60  CA        23.5490   38.6290   91.5240 C.3    54  LYS54       0.1561
     61  C         23.2520   40.0550   91.9680 C.2    54  LYS54       0.2260
     62  O         22.8010   40.2770   93.0890 O.2    54  LYS54      -0.2867
     63  CB        22.2510   37.9630   91.0560 C.3    54  LYS54       0.0271
     64  CG        22.4630   36.6450   90.3270 C.3    54  LYS54       0.0035
     65  CD        21.1350   36.0250   89.9400 C.3    54  LYS54       0.0206
     66  CE        21.3200   34.7790   89.0950 C.3    54  LYS54       0.1093
     67  NZ        19.9950   34.2480   88.6660 N.3    54  LYS54      -0.1314
     68  N         21.0180   43.2490   90.7640 N.3    56  LEU56      -0.1245
     69  CA        19.9640   43.6830   89.8540 C.3    56  LEU56       0.1561
     70  C         19.4970   45.0820   90.2230 C.2    56  LEU56       0.2260
     71  O         19.9180   45.6400   91.2330 O.2    56  LEU56      -0.2867
     72  CB        18.7720   42.7260   89.9410 C.3    56  LEU56       0.0270
     73  CG        19.0380   41.2310   89.7490 C.3    56  LEU56       0.0019
     74  CD1       17.9310   40.3970   90.3900 C.3    56  LEU56       0.0001
     75  CD2       19.2000   40.8940   88.2760 C.3    56  LEU56       0.0001
     76  N         18.1640   26.3700   93.8200 N.3    76  VAL76      -0.1245
     77  CA        19.1760   27.1600   94.5260 C.3    76  VAL76       0.1561
     78  C         18.5550   27.8080   95.7630 C.2    76  VAL76       0.2260
     79  O         17.3980   28.2160   95.7390 O.2    76  VAL76      -0.2867
     80  CB        19.7810   28.2500   93.6120 C.3    76  VAL76       0.0252
     81  CG1       18.7110   29.2570   93.1790 C.3    76  VAL76       0.0019
     82  CG2       20.9610   28.9520   94.2870 C.3    76  VAL76       0.0019
     83  N         23.3200   33.8070   96.9500 N.3    92  LEU92      -0.1231
     84  CA        22.7510   32.4870   96.6930 C.3    92  LEU92       0.1693
     85  C         23.7970   31.3990   96.9210 C.2    92  LEU92       0.2592
     86  O         24.9900   31.6960   96.9510 O.2    92  LEU92      -0.2718
     87  CB        22.3120   32.4370   95.2250 C.3    92  LEU92       0.0284
     88  CG        21.3100   33.5150   94.8040 C.3    92  LEU92       0.0019
     89  CD1       21.6650   34.1340   93.4420 C.3    92  LEU92       0.0001
     90  CD2       19.8990   32.9550   94.8110 C.3    92  LEU92       0.0001
     91  N         23.3600   30.1460   97.0500 N.am   93  ASP93      -0.1960
     92  CA        24.2930   29.0160   97.0380 C.3    93  ASP93       0.1840
     93  C         25.2980   29.2040   95.9230 C.2    93  ASP93       0.2622
     94  O         24.9380   29.5930   94.8060 O.2    93  ASP93      -0.2715
     95  CB        23.6010   27.6900   96.7020 C.3    93  ASP93       0.1450
     96  CG        22.6760   27.1950   97.7810 C.2    93  ASP93       0.3671
     97  OD1       22.9540   27.4090   98.9810 O.co2  93  ASP93      -0.2456
     98  OD2       21.6760   26.5460   97.4070 O.co2  93  ASP93      -0.2456
     99  N         26.5510   28.8810   96.2080 N.am   94  PHE94      -0.1960
    100  CA        27.5470   28.7000   95.1600 C.3    94  PHE94       0.1771
    101  C         27.3780   27.2740   94.6290 C.2    94  PHE94       0.2619
    102  O         27.6760   26.3030   95.3280 O.2    94  PHE94      -0.2715
    103  CB        28.9490   28.9350   95.7320 C.3    94  PHE94       0.0574
    104  CG        30.0810   28.5470   94.8080 C.ar   94  PHE94      -0.0200
    105  CD1       29.9440   28.6140   93.4290 C.ar   94  PHE94      -0.0042
    106  CD2       31.3010   28.1520   95.3330 C.ar   94  PHE94      -0.0042
    107  CE1       30.9910   28.2680   92.5940 C.ar   94  PHE94      -0.0003
    108  CE2       32.3540   27.8030   94.5040 C.ar   94  PHE94      -0.0003
    109  CZ        32.1980   27.8620   93.1270 C.ar   94  PHE94      -0.0000
    110  N         26.8490   27.1550   93.4130 N.am   95  LEU95      -0.1977
    111  CA        26.6550   25.8510   92.7810 C.3    95  LEU95       0.1596
    112  C         27.9480   25.4370   92.0830 C.2    95  LEU95       0.2287
    113  O         28.4120   26.1200   91.1710 O.2    95  LEU95      -0.2864
    114  CB        25.4830   25.9070   91.7870 C.3    95  LEU95       0.0297
    115  CG        24.1540   26.3570   92.4190 C.3    95  LEU95       0.0022
    116  CD1       23.0730   26.6390   91.3720 C.3    95  LEU95       0.0001
    117  CD2       23.6640   25.3420   93.4450 C.3    95  LEU95       0.0001
    118  N         27.1760   23.7370   84.5820 N.3    99  ASP99      -0.1239
    119  CA        25.8480   23.5340   84.0140 C.3    99  ASP99       0.1674
    120  C         25.6720   22.1160   83.4680 C.2    99  ASP99       0.2266
    121  O         26.6390   21.4470   83.0990 O.2    99  ASP99      -0.2867
    122  CB        25.5550   24.5620   82.9250 C.3    99  ASP99       0.1410
    123  CG        26.5650   24.5190   81.8090 C.2    99  ASP99       0.3668
    124  OD1       27.7010   24.9980   82.0160 O.co2  99  ASP99      -0.2456
    125  OD2       26.2280   24.0050   80.7240 O.co2  99  ASP99      -0.2456
    126  N         10.8970   31.2370   82.1460 N.3   138  ASP138     -0.1239
    127  CA        12.0210   31.4150   81.2380 C.3   138  ASP138      0.1674
    128  C         13.0050   30.2470   81.3370 C.2   138  ASP138      0.2266
    129  O         14.2170   30.4420   81.2900 O.2   138  ASP138     -0.2867
    130  CB        12.7140   32.7390   81.5790 C.3   138  ASP138      0.1410
    131  CG        13.8010   33.1140   80.5950 C.2   138  ASP138      0.3668
    132  OD1       13.7560   32.6570   79.4320 O.co2 138  ASP138     -0.2456
    133  OD2       14.7030   33.8850   80.9910 O.co2 138  ASP138     -0.2456
    134  N         15.5300   27.5280   80.7020 N.3   140  LYS140     -0.1245
    135  CA        16.5170   27.3150   79.6450 C.3   140  LYS140      0.1561
    136  C         17.7420   26.6030   80.2220 C.2   140  LYS140      0.2260
    137  O         17.9170   26.5780   81.4290 O.2   140  LYS140     -0.2867
    138  CB        16.9310   28.6510   79.0310 C.3   140  LYS140      0.0271
    139  CG        17.3490   29.7030   80.0460 C.3   140  LYS140      0.0035
    140  CD        18.1980   30.7770   79.3980 C.3   140  LYS140      0.0206
    141  CE        18.0620   32.1020   80.1170 C.3   140  LYS140      0.1093
    142  NZ        16.7480   32.7400   79.8260 N.3   140  LYS140     -0.1314
    143  N         20.8620   27.2930   80.5710 N.3   142  GLU142     -0.1231
    144  CA        21.7520   28.1150   81.3930 C.3   142  GLU142      0.1699
    145  C         21.2780   28.2360   82.8430 C.2   142  GLU142      0.2592
    146  O         22.0460   28.6290   83.7290 O.2   142  GLU142     -0.2718
    147  CB        21.8860   29.5080   80.7750 C.3   142  GLU142      0.0402
    148  CG        22.6700   29.5460   79.4710 C.3   142  GLU142      0.1161
    149  CD        21.8960   29.0410   78.2460 C.2   142  GLU142      0.3649
    150  OE1       20.6450   28.9090   78.2840 O.co2 142  GLU142     -0.2457
    151  OE2       22.5650   28.7820   77.2200 O.co2 142  GLU142     -0.2457
    152  N         20.0120   27.9100   83.0780 N.am  143  ASN143     -0.1974
    153  CA        19.4570   27.9500   84.4290 C.3   143  ASN143      0.1688
    154  C         19.5320   26.6050   85.1420 C.2   143  ASN143      0.2292
    155  O         19.1210   26.4720   86.3000 O.2   143  ASN143     -0.2864
    156  CB        18.0030   28.4380   84.4000 C.3   143  ASN143      0.1181
    157  CG        17.8970   29.9500   84.4870 C.2   143  ASN143      0.2629
    158  OD1       18.7330   30.6760   83.9470 O.2   143  ASN143     -0.2716
    159  ND2       16.8760   30.4330   85.1890 N.am  143  ASN143     -0.0877
    160  N         21.8490   24.0050   86.5860 N.3   145  LEU145     -0.1245
    161  CA        23.1970   23.6990   87.0470 C.3   145  LEU145      0.1561
    162  C         23.2530   22.4110   87.8610 C.2   145  LEU145      0.2260
    163  O         22.2450   21.7270   88.0460 O.2   145  LEU145     -0.2867
    164  CB        23.7890   24.8820   87.8470 C.3   145  LEU145      0.0270
    165  CG        24.7490   25.7930   87.0560 C.3   145  LEU145      0.0019
    166  CD1       24.0960   26.3700   85.7890 C.3   145  LEU145      0.0001
    167  CD2       25.3270   26.9160   87.9230 C.3   145  LEU145      0.0001
    168  N         18.8940   27.7270   88.8790 N.3   155  THR155     -0.1218
    169  CA        19.5800   28.9380   89.3390 C.3   155  THR155      0.1862
    170  C         18.6230   30.0350   89.7720 C.2   155  THR155      0.2287
    171  O         19.0560   31.0860   90.2370 O.2   155  THR155     -0.2866
    172  CB        20.5000   29.5370   88.2680 C.3   155  THR155      0.1770
    173  OG1       19.7180   29.8750   87.1160 O.3   155  THR155     -0.2211
    174  CG2       21.5940   28.5500   87.8710 C.3   155  THR155      0.0375
    175  N         12.8770   39.7270   87.0270 N.3   161  LYS161     -0.1245
    176  CA        14.0170   40.5780   87.3420 C.3   161  LYS161      0.1561
    177  C         14.1380   41.7890   86.4220 C.2   161  LYS161      0.2260
    178  O         13.6100   41.7970   85.3130 O.2   161  LYS161     -0.2867
    179  CB        15.3000   39.7500   87.2690 C.3   161  LYS161      0.0271
    180  CG        15.3390   38.5970   88.2520 C.3   161  LYS161      0.0035
    181  CD        16.4190   37.5860   87.9000 C.3   161  LYS161      0.0206
    182  CE        15.9360   36.6550   86.7980 C.3   161  LYS161      0.1093
    183  NZ        16.6980   35.3770   86.7700 N.3   161  LYS161     -0.1314
@<TRIPOS>BOND
     1   151   149   ar
     2   149   150   ar
     3   149   148    1
     4   138   135    1
     5   138   139    1
     6    31    30    1
     7   140   139    1
     8   140   141    1
     9   132   131   ar
    10   148   147    1
    11   135   136    1
    12   135   134    1
    13   142   141    1
    14   136   137    2
    15    30    27    1
    16   143   144    1
    17   131   133   ar
    18   131   130    1
    19    27    26    1
    20    27    28    1
    21   125   123   ar
    22    18    19    1
    23    18    17    1
    24   147   144    1
    25    29    28    2
    26    20    19    2
    27    19    21   am
    28   127   128    1
    29   127   130    1
    30   127   126    1
    31   129   128    2
    32    26    24   am
    33    25    24    2
    34   144   145    1
    35    17    14    1
    36    16    15    2
    37    28    32   am
    38    24    23    1
    39   123   124   ar
    40   123   122    1
    41    15    14    1
    42    15    22   am
    43    23    22    1
    44    14    13    1
    45    32    33    1
    46   145   152   am
    47   145   146    2
    48   122   119    1
    49   152   153    1
    50    42    41   ar
    51    42    40   ar
    52   121   120    2
    53    13    11   am
    54    41    39   ar
    55   120   119    1
    56    40    38   ar
    57    39    37   ar
    58    33    34    1
    59    33    36    1
    60    43    44    1
    61    43    34   am
    62   158   157    2
    63   119   118    1
    64    38    37   ar
    65    37    36    1
    66    11    10    1
    67    11    12    2
    68    44    45    1
    69   156   153    1
    70   156   157    1
    71   153   154    1
    72    34    35    2
    73   157   159   am
    74    46    45    2
    75    10     9    1
    76   154   155    2
    77   178   177    2
    78     4     3    2
    79   166   165    1
    80     9     3   am
    81     3     2    1
    82   177   176    1
    83   160   161    1
    84   183   182    1
    85   182   181    1
    86   175   176    1
    87   161   164    1
    88   161   162    1
    89   165   164    1
    90   165   167    1
    91   173   172    1
    92    47    48    1
    93   179   176    1
    94   179   180    1
    95    53    51    1
    96     2     1    1
    97     2     5    1
    98   162   163    2
    99   174   172    1
   100   181   180    1
   101   172   169    1
   102    75    73    1
   103    51    48    1
   104    51    52    1
   105    50    49    2
   106    48    49    1
   107    67    66    1
   108     5     6    1
   109   168   169    1
   110    66    65    1
   111   169   170    1
   112    73    72    1
   113    73    74    1
   114   170   171    2
   115    69    72    1
   116    69    70    1
   117    69    68    1
   118    65    64    1
   119     8     6    1
   120     6     7    1
   121    70    71    2
   122    64    63    1
   123    63    60    1
   124   113   112    2
   125   116   115    1
   126    60    61    1
   127    60    59    1
   128   114   115    1
   129   114   111    1
   130    61    62    2
   131   112   111    1
   132   115   117    1
   133   107   109   ar
   134   107   105   ar
   135   111   110    1
   136   109   108   ar
   137    81    80    1
   138    58    55    1
   139   110   101   am
   140   105   104   ar
   141    89    88    1
   142    80    82    1
   143    80    77    1
   144    76    77    1
   145    55    56    1
   146    55    54    1
   147   108   106   ar
   148    77    78    1
   149    56    57    2
   150   101   100    1
   151   101   102    2
   152    88    90    1
   153    88    87    1
   154    94    93    2
   155   104   106   ar
   156   104   103    1
   157   100   103    1
   158   100    99    1
   159    87    84    1
   160    79    78    2
   161    93    99   am
   162    93    92    1
   163    84    85    1
   164    84    83    1
   165    95    92    1
   166    95    96    1
   167    85    86    2
   168    85    91   am
   169    92    91    1
   170    98    96   ar
   171    96    97   ar
