@<TRIPOS>MOLECULE
tmp/3g53A01.pdb
 97 92 0 0 0
SMALL
GASTEIGER

@<TRIPOS>ATOM
      1  N         33.5640   -1.8880   39.6570 N.3    20  SER20      -0.1202
      2  CA        34.6670   -1.0260   39.2690 C.3    20  SER20       0.2020
      3  C         34.3050   -0.2290   38.0160 C.2    20  SER20       0.2618
      4  O         34.6440    0.9490   37.9080 O.2    20  SER20      -0.2717
      5  CB        35.9430   -1.8520   39.0450 C.3    20  SER20       0.2103
      6  OG        35.7660   -2.8590   38.0610 O.3    20  SER20      -0.2182
      7  N         33.6200   -0.8590   37.0650 N.am   21  TRP21      -0.1975
      8  CA        33.2420   -0.1490   35.8420 C.3    21  TRP21       0.1640
      9  C         32.3580    1.0670   36.1170 C.2    21  TRP21       0.2290
     10  O         32.4180    2.0580   35.3900 O.2    21  TRP21      -0.2864
     11  CB        32.5330   -1.0850   34.8570 C.3    21  TRP21       0.0576
     12  CG        32.1540   -0.3870   33.5750 C.ar   21  TRP21       0.0006
     13  CD1       30.8970   -0.0540   33.1630 C.ar   21  TRP21       0.0946
     14  CD2       33.0500    0.1150   32.5710 C.ar   21  TRP21       0.0152
     15  NE1       30.9510    0.6250   31.9670 N.ar   21  TRP21      -0.2442
     16  CE2       32.2600    0.7400   31.5800 C.ar   21  TRP21       0.0810
     17  CE3       34.4430    0.0940   32.4120 C.ar   21  TRP21       0.0012
     18  CZ2       32.8180    1.3450   30.4480 C.ar   21  TRP21       0.0191
     19  CZ3       34.9970    0.6950   31.2850 C.ar   21  TRP21       0.0001
     20  CH2       34.1830    1.3100   30.3170 C.ar   21  TRP21       0.0015
     21  N         35.2280    3.7330   36.7360 N.3    24  ILE24      -0.1245
     22  CA        36.0940    4.0610   35.6150 C.3    24  ILE24       0.1561
     23  C         35.3400    4.4110   34.3390 C.2    24  ILE24       0.2260
     24  O         35.8060    5.2240   33.5400 O.2    24  ILE24      -0.2867
     25  CB        37.0800    2.9180   35.3180 C.3    24  ILE24       0.0252
     26  CG1       37.8560    2.5390   36.5890 C.3    24  ILE24       0.0019
     27  CG2       38.0370    3.3440   34.2280 C.3    24  ILE24       0.0019
     28  CD1       37.9690    3.6300   37.6320 C.3    24  ILE24       0.0001
     29  N         39.7010    8.5310   31.3600 N.3    31  ASN31      -0.1240
     30  CA        40.2990    7.2300   31.6290 C.3    31  ASN31       0.1653
     31  C         40.7130    6.4750   30.3700 C.2    31  ASN31       0.2266
     32  O         41.6320    5.6600   30.4080 O.2    31  ASN31      -0.2867
     33  CB        39.3500    6.3800   32.4780 C.3    31  ASN31       0.1155
     34  CG        39.1630    6.9490   33.8710 C.2    31  ASN31       0.2627
     35  OD1       40.1100    7.4580   34.4700 O.2    31  ASN31      -0.2716
     36  ND2       37.9470    6.8580   34.3980 N.am   31  ASN31      -0.0877
     37  N         44.4670    5.2130   29.8200 N.3    35  LEU35      -0.1245
     38  CA        44.7790    3.8300   29.4960 C.3    35  LEU35       0.1561
     39  C         45.7970    3.7700   28.3530 C.2    35  LEU35       0.2260
     40  O         46.8240    3.1090   28.4640 O.2    35  LEU35      -0.2867
     41  CB        43.5130    3.0990   29.0710 C.3    35  LEU35       0.0270
     42  CG        43.3110    1.6260   29.4760 C.3    35  LEU35       0.0019
     43  CD1       42.7640    0.8940   28.2530 C.3    35  LEU35       0.0001
     44  CD2       44.5550    0.9730   29.9800 C.3    35  LEU35       0.0001
     45  N         36.6080    2.7700   25.0580 N.3    73  MET73      -0.1245
     46  CA        35.8390    2.6510   26.2910 C.3    73  MET73       0.1570
     47  C         34.4330    2.1260   26.0330 C.2    73  MET73       0.2261
     48  O         33.8380    1.4900   26.8980 O.2    73  MET73      -0.2867
     49  CB        35.7830    3.9960   27.0170 C.3    73  MET73       0.0387
     50  CG        37.1340    4.4490   27.5430 C.3    73  MET73       0.0595
     51  SD        37.8240    3.2820   28.7430 S.3    73  MET73      -0.1393
     52  CE        37.0490    3.8770   30.2360 C.3    73  MET73       0.0692
     53  N         34.4870   -1.6110   25.9210 N.3    76  LEU76      -0.1245
     54  CA        34.4350   -2.1940   27.2550 C.3    76  LEU76       0.1561
     55  C         33.0080   -2.1180   27.8040 C.2    76  LEU76       0.2260
     56  O         32.5330   -3.0610   28.4390 O.2    76  LEU76      -0.2867
     57  CB        35.4190   -1.4830   28.1960 C.3    76  LEU76       0.0270
     58  CG        36.9030   -1.6620   27.8470 C.3    76  LEU76       0.0019
     59  CD1       37.7710   -0.9780   28.8950 C.3    76  LEU76       0.0001
     60  CD2       37.2390   -3.1420   27.7730 C.3    76  LEU76       0.0001
     61  N         45.7340   -1.2900   32.7090 N.3   117  ILE117     -0.1245
     62  CA        44.4650   -1.4310   33.4150 C.3   117  ILE117      0.1561
     63  C         44.6780   -1.4650   34.9230 C.2   117  ILE117      0.2260
     64  O         43.9670   -0.7950   35.6720 O.2   117  ILE117     -0.2867
     65  CB        43.7030   -2.7100   32.9770 C.3   117  ILE117      0.0252
     66  CG1       43.1710   -2.5240   31.5530 C.3   117  ILE117      0.0019
     67  CG2       42.5590   -3.0050   33.9490 C.3   117  ILE117      0.0019
     68  CD1       42.3500   -3.6850   31.0330 C.3   117  ILE117      0.0001
     69  N         45.6430    2.2310   36.1780 N.3   120  VAL120     -0.1231
     70  CA        44.5660    3.2070   36.2440 C.3   120  VAL120      0.1692
     71  C         43.5700    2.7900   37.3300 C.2   120  VAL120      0.2591
     72  O         43.0040    3.6380   38.0220 O.2   120  VAL120     -0.2718
     73  CB        43.8490    3.3420   34.8900 C.3   120  VAL120      0.0266
     74  CG1       42.8080    4.4510   34.9720 C.3   120  VAL120      0.0020
     75  CG2       44.8560    3.6600   33.7910 C.3   120  VAL120      0.0020
     76  N         43.3560    1.4850   37.4810 N.am  121  LEU121     -0.1980
     77  CA        42.4600    0.9950   38.5230 C.3   121  LEU121      0.1596
     78  C         43.0430    1.4140   39.8720 C.2   121  LEU121      0.2287
     79  O         42.3260    1.9040   40.7440 O.2   121  LEU121     -0.2864
     80  CB        42.3380   -0.5350   38.4740 C.3   121  LEU121      0.0297
     81  CG        41.3770   -1.1220   37.4370 C.3   121  LEU121      0.0022
     82  CD1       41.3950   -2.6390   37.5120 C.3   121  LEU121      0.0001
     83  CD2       39.9720   -0.6000   37.7010 C.3   121  LEU121      0.0001
     84  N         39.5760   -7.9860   35.8150 N.3   134  TRP134     -0.1241
     85  CA        39.6860   -7.4730   34.4680 C.3   134  TRP134      0.1605
     86  C         40.6060   -8.3060   33.5950 C.2   134  TRP134      0.2264
     87  O         40.4280   -8.3660   32.3760 O.2   134  TRP134     -0.2867
     88  CB        40.1110   -6.0090   34.5080 C.3   134  TRP134      0.0550
     89  CG        38.9210   -5.1770   34.7790 C.ar  134  TRP134      0.0003
     90  CD1       38.4060   -4.8400   35.9990 C.ar  134  TRP134      0.0946
     91  CD2       37.9730   -4.7450   33.8090 C.ar  134  TRP134      0.0152
     92  NE1       37.1830   -4.2310   35.8460 N.ar  134  TRP134     -0.2442
     93  CE2       36.8910   -4.1670   34.5080 C.ar  134  TRP134      0.0810
     94  CE3       37.9280   -4.7990   32.4080 C.ar  134  TRP134      0.0012
     95  CZ2       35.7680   -3.6410   33.8450 C.ar  134  TRP134      0.0191
     96  CZ3       36.8250   -4.2770   31.7550 C.ar  134  TRP134      0.0001
     97  CH2       35.7540   -3.7040   32.4760 C.ar  134  TRP134      0.0015
@<TRIPOS>BOND
     1    45    46    1
     2    53    54    1
     3    47    46    1
     4    47    48    2
     5    46    49    1
     6    49    50    1
     7    54    55    1
     8    54    57    1
     9    50    51    1
    10    60    58    1
    11    55    56    2
    12    58    57    1
    13    58    59    1
    14    43    42    1
    15    39    40    2
    16    39    38    1
    17    51    52    1
    18    41    42    1
    19    41    38    1
    20    42    44    1
    21    38    37    1
    22    20    18   ar
    23    20    19   ar
    24    31    32    2
    25    31    30    1
    26    18    16   ar
    27    68    66    1
    28    19    17   ar
    29    29    30    1
    30    66    65    1
    31    16    15   ar
    32    16    14   ar
    33    30    33    1
    34    96    94   ar
    35    96    97   ar
    36    15    13   ar
    37    87    86    2
    38    94    91   ar
    39    17    14   ar
    40    97    95   ar
    41    33    34    1
    42    14    12   ar
    43    61    62    1
    44    65    62    1
    45    65    67    1
    46    13    12   ar
    47    62    63    1
    48    24    23    2
    49    12    11    1
    50    86    85    1
    51    75    73    1
    52    91    93   ar
    53    91    89   ar
    54    95    93   ar
    55    34    36   am
    56    34    35    2
    57    27    25    1
    58    23    22    1
    59    85    88    1
    60    85    84    1
    61    88    89    1
    62    93    92   ar
    63    89    90   ar
    64    11     8    1
    65    73    74    1
    66    73    70    1
    67    63    64    2
    68    25    22    1
    69    25    26    1
    70    10     9    2
    71    22    21    1
    72     8     9    1
    73     8     7    1
    74    92    90   ar
    75    69    70    1
    76    70    71    1
    77    26    28    1
    78     7     3   am
    79    71    76   am
    80    71    72    2
    81    81    82    1
    82    81    83    1
    83    81    80    1
    84    76    77    1
    85     4     3    2
    86     3     2    1
    87     6     5    1
    88    80    77    1
    89    77    78    1
    90     5     2    1
    91     2     1    1
    92    78    79    2
