@<TRIPOS>MOLECULE
tmp/3g58A00.pdb
 167 163 0 0 0
SMALL
GASTEIGER

@<TRIPOS>ATOM
      1  N         12.6170   -0.0290   34.8540 N.3    82  TYR82      -0.1227
      2  CA        13.8550    0.5420   34.3460 C.3    82  TYR82       0.1736
      3  C         13.6310    1.3650   33.0740 C.2    82  TYR82       0.2595
      4  O         13.9760    2.5480   33.0410 O.2    82  TYR82      -0.2718
      5  CB        14.9310   -0.5440   34.1300 C.3    82  TYR82       0.0548
      6  CG        16.2480    0.0350   33.6600 C.ar   82  TYR82      -0.0200
      7  CD1       17.2440    0.3910   34.5680 C.ar   82  TYR82      -0.0009
      8  CD2       16.4800    0.2670   32.3090 C.ar   82  TYR82      -0.0009
      9  CE1       18.4500    0.9570   34.1300 C.ar   82  TYR82       0.0417
     10  CE2       17.6700    0.8230   31.8610 C.ar   82  TYR82       0.0417
     11  CZ        18.6520    1.1810   32.7720 C.ar   82  TYR82       0.1957
     12  OH        19.8200    1.7270   32.3000 O.3    82  TYR82      -0.2866
     13  N         13.0900    0.7530   32.0190 N.am   83  HIS83      -0.1975
     14  CA        12.9480    1.4550   30.7220 C.3    83  HIS83       0.1656
     15  C         11.7520    2.4200   30.7030 C.2    83  HIS83       0.2291
     16  O         10.7710    2.2280   29.9740 O.2    83  HIS83      -0.2864
     17  CB        12.8720    0.4530   29.5680 C.3    83  HIS83       0.0771
     18  CG        14.1460   -0.3100   29.3590 C.ar   83  HIS83       0.0820
     19  ND1       14.2960   -1.6280   29.7360 N.ar   83  HIS83      -0.2267
     20  CD2       15.3410    0.0740   28.8420 C.ar   83  HIS83       0.1154
     21  CE1       15.5190   -2.0300   29.4300 C.ar   83  HIS83       0.1986
     22  NE2       16.1730   -1.0150   28.8870 N.ar   83  HIS83      -0.2212
     23  N         21.3350   -3.8070   21.6480 N.3   196  MET196     -0.1245
     24  CA        22.5110   -4.4340   22.2830 C.3   196  MET196      0.1570
     25  C         23.1700   -5.4830   21.4030 C.2   196  MET196      0.2261
     26  O         24.3710   -5.7350   21.5230 O.2   196  MET196     -0.2867
     27  CB        22.1500   -5.0180   23.6570 C.3   196  MET196      0.0387
     28  CG        22.1330   -3.9540   24.7730 C.3   196  MET196      0.0595
     29  SD        23.7750   -3.1690   24.9570 S.3   196  MET196     -0.1393
     30  CE        24.8540   -4.6130   25.0880 C.3   196  MET196      0.0692
     31  N         23.6660    5.2980   27.4720 N.3   241  ASP241     -0.1225
     32  CA        22.7290    4.2150   27.7560 C.3   241  ASP241      0.1805
     33  C         23.3180    3.1780   28.7210 C.2   241  ASP241      0.2597
     34  O         22.5950    2.6430   29.5800 O.2   241  ASP241     -0.2718
     35  CB        22.3320    3.5570   26.4420 C.3   241  ASP241      0.1424
     36  CG        21.0520    2.7580   26.5360 C.2   241  ASP241      0.3668
     37  OD1       20.2670    2.9520   27.4820 O.co2 241  ASP241     -0.2456
     38  OD2       20.8330    1.9490   25.6180 O.co2 241  ASP241     -0.2456
     39  N         24.6330    2.9370   28.6070 N.am  242  LEU242     -0.1979
     40  CA        25.3480    2.0130   29.4970 C.3   242  LEU242      0.1596
     41  C         26.1950    2.7650   30.5320 C.2   242  LEU242      0.2287
     42  O         27.3080    2.3310   30.8880 O.2   242  LEU242     -0.2864
     43  CB        26.2320    1.0760   28.6640 C.3   242  LEU242      0.0297
     44  CG        25.5380    0.2020   27.6070 C.3   242  LEU242      0.0022
     45  CD1       26.5860   -0.6950   26.9460 C.3   242  LEU242      0.0001
     46  CD2       24.4340   -0.6310   28.2240 C.3   242  LEU242      0.0001
     47  N         25.1280    3.7080   33.7250 N.3   244  ASN244     -0.1226
     48  CA        24.7170    3.5310   35.1300 C.3   244  ASN244      0.1770
     49  C         25.8880    3.0960   36.0650 C.2   244  ASN244      0.2439
     50  O         26.0300    3.6600   37.1620 O.2   244  ASN244     -0.2733
     51  CB        23.5780    2.5160   35.2930 C.3   244  ASN244      0.1168
     52  CG        22.2850    2.8950   34.5690 C.2   244  ASN244      0.2627
     53  OD1       21.4590    2.0150   34.3530 O.2   244  ASN244     -0.2716
     54  ND2       22.0990    4.1690   34.2050 N.am  244  ASN244     -0.0877
     55  N         26.7170    2.1080   35.6340 N.am  245  PRO245     -0.2729
     56  CA        27.8230    1.6610   36.5010 C.3   245  PRO245      0.1401
     57  C         28.9390    2.6760   36.7190 C.2   245  PRO245      0.2269
     58  O         29.7630    2.4760   37.6140 O.2   245  PRO245     -0.2865
     59  CB        28.3730    0.4080   35.7840 C.3   245  PRO245      0.0296
     60  CG        27.2550   -0.0770   34.9120 C.3   245  PRO245      0.0237
     61  CD        26.5500    1.2030   34.4720 C.3   245  PRO245      0.0939
     62  N         23.8900    4.1300   40.8850 N.3   252  TYR252     -0.1241
     63  CA        24.0880    2.8420   40.1910 C.3   252  TYR252      0.1605
     64  C         23.2310    1.7100   40.7750 C.2   252  TYR252      0.2264
     65  O         22.5480    0.9810   40.0260 O.2   252  TYR252     -0.2867
     66  CB        25.5850    2.4940   40.2010 C.3   252  TYR252      0.0534
     67  CG        26.0080    1.1590   39.6200 C.ar  252  TYR252     -0.0201
     68  CD1       25.2080    0.4580   38.7120 C.ar  252  TYR252     -0.0009
     69  CD2       27.2510    0.6140   39.9520 C.ar  252  TYR252     -0.0009
     70  CE1       25.6200   -0.7490   38.1840 C.ar  252  TYR252      0.0417
     71  CE2       27.6750   -0.5820   39.4150 C.ar  252  TYR252      0.0417
     72  CZ        26.8530   -1.2730   38.5410 C.ar  252  TYR252      0.1957
     73  OH        27.2800   -2.4740   38.0170 O.3   252  TYR252     -0.2866
     74  N         19.5830    1.9390   39.8150 N.3   255  TRP255     -0.1227
     75  CA        19.3920    1.4620   38.4460 C.3   255  TRP255      0.1737
     76  C         19.4280   -0.0650   38.3950 C.2   255  TRP255      0.2596
     77  O         18.6280   -0.6830   37.6930 O.2   255  TRP255     -0.2718
     78  CB        20.4570    2.0420   37.5130 C.3   255  TRP255      0.0564
     79  CG        20.3300    3.4950   37.3130 C.ar  255  TRP255      0.0003
     80  CD1       21.2630    4.4450   37.6000 C.ar  255  TRP255      0.0946
     81  CD2       19.1920    4.1930   36.8000 C.ar  255  TRP255      0.0152
     82  NE1       20.7880    5.6940   37.2700 N.ar  255  TRP255     -0.2442
     83  CE2       19.5170    5.5690   36.7830 C.ar  255  TRP255      0.0810
     84  CE3       17.9340    3.7910   36.3390 C.ar  255  TRP255      0.0012
     85  CZ2       18.6270    6.5480   36.3130 C.ar  255  TRP255      0.0191
     86  CZ3       17.0480    4.7680   35.8780 C.ar  255  TRP255      0.0001
     87  CH2       17.3980    6.1240   35.8730 C.ar  255  TRP255      0.0015
     88  N         20.3700   -0.6580   39.1310 N.am  256  THR256     -0.1953
     89  CA        20.4600   -2.1140   39.2470 C.3   256  THR256      0.1897
     90  C         19.1860   -2.7330   39.8290 C.2   256  THR256      0.2313
     91  O         18.6360   -3.6650   39.2560 O.2   256  THR256     -0.2863
     92  CB        21.6920   -2.5550   40.0630 C.3   256  THR256      0.1794
     93  OG1       22.8750   -2.0430   39.4390 O.3   256  THR256     -0.2208
     94  CG2       21.7620   -4.0850   40.1210 C.3   256  THR256      0.0378
     95  N         16.3940   -2.5300   36.9880 N.3   259  ILE259     -0.1231
     96  CA        16.5310   -3.4440   35.8490 C.3   259  ILE259      0.1692
     97  C         16.2850   -4.8880   36.2890 C.2   259  ILE259      0.2591
     98  O         15.7020   -5.6800   35.5350 O.2   259  ILE259     -0.2718
     99  CB        17.8880   -3.2620   35.0930 C.3   259  ILE259      0.0266
    100  CG1       17.8140   -3.7860   33.6440 C.3   259  ILE259      0.0019
    101  CG2       19.0590   -3.9330   35.8260 C.3   259  ILE259      0.0020
    102  CD1       16.6530   -3.2510   32.8050 C.3   259  ILE259      0.0001
    103  N         16.6880   -5.2280   37.5150 N.am  260  MET260     -0.1979
    104  CA        16.4240   -6.5740   38.0480 C.3   260  MET260      0.1605
    105  C         14.9450   -6.7770   38.2760 C.2   260  MET260      0.2287
    106  O         14.4020   -7.8330   37.9440 O.2   260  MET260     -0.2864
    107  CB        17.1940   -6.8280   39.3440 C.3   260  MET260      0.0413
    108  CG        18.7080   -6.8710   39.1710 C.3   260  MET260      0.0598
    109  SD        19.3050   -7.8660   37.7820 S.3   260  MET260     -0.1393
    110  CE        18.4200   -9.4220   38.0300 C.3   260  MET260      0.0692
    111  N         13.5920   -7.2830   34.7470 N.3   263  PHE263     -0.1241
    112  CA        13.9790   -8.6190   34.2790 C.3   263  PHE263      0.1605
    113  C         13.2020   -9.7640   34.9540 C.2   263  PHE263      0.2264
    114  O         12.6770  -10.6540   34.2710 O.2   263  PHE263     -0.2867
    115  CB        15.4780   -8.8490   34.4760 C.3   263  PHE263      0.0534
    116  CG        16.3590   -8.1500   33.4800 C.ar  263  PHE263     -0.0203
    117  CD1       15.8400   -7.4540   32.3860 C.ar  263  PHE263     -0.0042
    118  CD2       17.7320   -8.2350   33.6070 C.ar  263  PHE263     -0.0042
    119  CE1       16.6820   -6.8550   31.4670 C.ar  263  PHE263     -0.0003
    120  CE2       18.5660   -7.6230   32.6970 C.ar  263  PHE263     -0.0003
    121  CZ        18.0360   -6.9390   31.6240 C.ar  263  PHE263     -0.0000
    122  N         19.1380  -14.0740   33.2770 N.3   280  MET280     -0.1245
    123  CA        19.1030  -13.0790   34.3380 C.3   280  MET280      0.1570
    124  C         17.7070  -12.7220   34.7950 C.2   280  MET280      0.2261
    125  O         17.5760  -11.8610   35.6550 O.2   280  MET280     -0.2867
    126  CB        19.8450  -11.7880   33.9540 C.3   280  MET280      0.0387
    127  CG        21.2650  -11.9580   33.4940 C.3   280  MET280      0.0595
    128  SD        22.3630  -12.3980   34.8480 S.3   280  MET280     -0.1393
    129  CE        22.0340  -14.1540   35.1230 C.3   280  MET280      0.0692
    130  N         26.6480  -11.0710   38.3260 N.3   291  SER291     -0.1202
    131  CA        26.1920  -10.5780   37.0360 C.3   291  SER291      0.2020
    132  C         26.6230   -9.1400   36.7340 C.2   291  SER291      0.2618
    133  O         26.9780   -8.8290   35.5930 O.2   291  SER291     -0.2717
    134  CB        24.6850  -10.7240   36.9500 C.3   291  SER291      0.2103
    135  OG        24.3510  -12.0950   37.0920 O.3   291  SER291     -0.2182
    136  N         26.6090   -8.2720   37.7440 N.am  292  GLN292     -0.1979
    137  CA        27.0820   -6.9010   37.5600 C.3   292  GLN292      0.1601
    138  C         28.5770   -6.8620   37.2880 C.2   292  GLN292      0.2287
    139  O         29.0300   -6.1040   36.4300 O.2   292  GLN292     -0.2864
    140  CB        26.7240   -6.0240   38.7610 C.3   292  GLN292      0.0394
    141  CG        25.2640   -5.5780   38.8020 C.3   292  GLN292      0.0908
    142  CD        24.7970   -4.9600   37.4920 C.2   292  GLN292      0.2608
    143  OE1       25.2990   -3.9240   37.0680 O.2   292  GLN292     -0.2717
    144  NE2       23.8440   -5.6200   36.8310 N.am  292  GLN292     -0.0878
    145  N         30.2440   -9.2300   35.8630 N.3   294  GLY294     -0.1210
    146  CA        30.3050   -9.7130   34.4850 C.3   294  GLY294      0.1956
    147  C         29.8790   -8.6620   33.4750 C.2   294  GLY294      0.2611
    148  O         30.5080   -8.5000   32.4410 O.2   294  GLY294     -0.2717
    149  N         28.7960   -7.9470   33.7760 N.am  295  PHE295     -0.1976
    150  CA        28.3270   -6.8480   32.9300 C.3   295  PHE295      0.1639
    151  C         29.4520   -5.8400   32.7100 C.2   295  PHE295      0.2290
    152  O         29.7060   -5.3950   31.5810 O.2   295  PHE295     -0.2864
    153  CB        27.1160   -6.1820   33.6180 C.3   295  PHE295      0.0560
    154  CG        26.4910   -5.0260   32.8520 C.ar  295  PHE295     -0.0200
    155  CD1       26.3780   -5.0410   31.4700 C.ar  295  PHE295     -0.0042
    156  CD2       25.9480   -3.9460   33.5480 C.ar  295  PHE295     -0.0042
    157  CE1       25.7640   -3.9870   30.7860 C.ar  295  PHE295     -0.0003
    158  CE2       25.3370   -2.8930   32.8730 C.ar  295  PHE295     -0.0003
    159  CZ        25.2540   -2.9170   31.4800 C.ar  295  PHE295     -0.0000
    160  N         31.3170   -5.9110   29.0900 N.3   299  ILE299     -0.1245
    161  CA        30.5950   -4.9300   28.2700 C.3   299  ILE299      0.1561
    162  C         30.9400   -3.4970   28.6400 C.2   299  ILE299      0.2260
    163  O         31.4770   -2.7670   27.8210 O.2   299  ILE299     -0.2867
    164  CB        29.0530   -5.1480   28.3410 C.3   299  ILE299      0.0252
    165  CG1       28.6950   -6.5090   27.7310 C.3   299  ILE299      0.0019
    166  CG2       28.3050   -4.0290   27.5890 C.3   299  ILE299      0.0019
    167  CD1       27.3010   -6.9690   28.0570 C.3   299  ILE299      0.0001
@<TRIPOS>BOND
     1    25    26    2
     2    25    24    1
     3    23    24    1
     4    24    27    1
     5    27    28    1
     6    28    29    1
     7    29    30    1
     8    38    36   ar
     9    35    36    1
    10    35    32    1
    11    36    37   ar
    12    45    44    1
    13    31    32    1
    14   166   164    1
    15    44    46    1
    16    44    43    1
    17   165   167    1
    18   165   164    1
    19    32    33    1
    20   163   162    2
    21   161   164    1
    22   161   162    1
    23   161   160    1
    24    39    33   am
    25    39    40    1
    26    43    40    1
    27    33    34    2
    28    20    22   ar
    29    20    18   ar
    30    22    21   ar
    31    18    17    1
    32    18    19   ar
    33    21    19   ar
    34    40    41    1
    35    17    14    1
    36    16    15    2
    37    41    42    2
    38    15    14    1
    39    14    13    1
    40   157   155   ar
    41   157   159   ar
    42   119   121   ar
    43   119   117   ar
    44   155   154   ar
    45   159   158   ar
    46   152   151    2
    47   121   120   ar
    48    10     8   ar
    49    10    11   ar
    50    13     3   am
    51    12    11    1
    52     8     6   ar
    53   117   116   ar
    54   148   147    2
    55   120   118   ar
    56   151   150    1
    57    11     9   ar
    58   102   100    1
    59   154   156   ar
    60   154   153    1
    61   158   156   ar
    62   150   153    1
    63   150   149    1
    64     4     3    2
    65     3     2    1
    66   122   123    1
    67   147   149   am
    68   147   146    1
    69   116   118   ar
    70   116   115    1
    71   127   126    1
    72   127   128    1
    73   100    99    1
    74     6     5    1
    75     6     7   ar
    76    47    48    1
    77   126   123    1
    78     9     7   ar
    79     5     2    1
    80    54    52   am
    81   114   113    2
    82   112   115    1
    83   112   111    1
    84   112   113    1
    85   123   124    1
    86     2     1    1
    87    53    52    2
    88    61    60    1
    89    61    55    1
    90   146   145    1
    91    52    51    1
    92   124   125    2
    93   128   129    1
    94    60    59    1
    95    99   101    1
    96    99    96    1
    97    48    51    1
    98    48    49    1
    99    98    97    2
   100   133   132    2
   101    55    49   am
   102    55    56    1
   103    59    56    1
   104    96    97    1
   105    96    95    1
   106    87    86   ar
   107    87    85   ar
   108    86    84   ar
   109    49    50    2
   110    97   103   am
   111    85    83   ar
   112    84    81   ar
   113   139   138    2
   114    56    57    1
   115    57    58    2
   116   132   131    1
   117   132   136   am
   118    83    81   ar
   119    83    82   ar
   120    81    79   ar
   121   144   142   am
   122   134   131    1
   123   134   135    1
   124   131   130    1
   125   143   142    2
   126    82    80   ar
   127   138   137    1
   128    79    78    1
   129    79    80   ar
   130   142   141    1
   131    78    75    1
   132   103   104    1
   133   137   136    1
   134   137   140    1
   135    77    76    2
   136   109   110    1
   137   109   108    1
   138   106   105    2
   139    73    72    1
   140   104   105    1
   141   104   107    1
   142    70    72   ar
   143    70    68   ar
   144    76    75    1
   145    76    88   am
   146    75    74    1
   147    72    71   ar
   148    68    67   ar
   149   140   141    1
   150    88    89    1
   151   108   107    1
   152    89    90    1
   153    89    92    1
   154    91    90    2
   155    71    69   ar
   156    93    92    1
   157    67    69   ar
   158    67    66    1
   159    65    64    2
   160    92    94    1
   161    63    66    1
   162    63    64    1
   163    63    62    1
