@<TRIPOS>MOLECULE
tmp/3g59A00.pdb
 223 216 0 0 0
SMALL
GASTEIGER

@<TRIPOS>ATOM
      1  N          0.1410   27.2920   18.1010 N.3    64  SER64      -0.1202
      2  CA         0.0450   28.6910   18.5120 C.3    64  SER64       0.2020
      3  C         -1.2620   29.2670   17.9880 C.2    64  SER64       0.2619
      4  O         -1.4620   29.3710   16.7710 O.2    64  SER64      -0.2717
      5  CB         1.2630   29.4980   18.0370 C.3    64  SER64       0.2103
      6  OG         1.3980   30.7100   18.7470 O.3    64  SER64      -0.2182
      7  N         -2.1370   29.6460   18.9120 N.am   65  TYR65      -0.1961
      8  CA        -3.5080   29.9920   18.5610 C.3    65  TYR65       0.1771
      9  C         -3.9880   31.3470   19.1010 C.2    65  TYR65       0.2619
     10  O         -3.8880   31.5940   20.2950 O.2    65  TYR65      -0.2715
     11  CB        -4.4200   28.8630   19.0900 C.3    65  TYR65       0.0574
     12  CG        -5.8360   28.8900   18.5430 C.ar   65  TYR65      -0.0198
     13  CD1       -6.1340   28.2770   17.3380 C.ar   65  TYR65      -0.0009
     14  CD2       -6.8680   29.5180   19.2350 C.ar   65  TYR65      -0.0009
     15  CE1       -7.4340   28.2950   16.8030 C.ar   65  TYR65       0.0417
     16  CE2       -8.1680   29.5440   18.7280 C.ar   65  TYR65       0.0417
     17  CZ        -8.4430   28.9270   17.5060 C.ar   65  TYR65       0.1957
     18  OH        -9.7110   28.9210   16.9600 O.3    65  TYR65      -0.2866
     19  N         -4.5100   32.2240   18.2370 N.am   66  ASN66      -0.1972
     20  CA        -5.0460   33.5030   18.7080 C.3    66  ASN66       0.1688
     21  C         -6.4130   33.8470   18.0880 C.2    66  ASN66       0.2292
     22  O         -6.8750   34.9920   18.1780 O.2    66  ASN66      -0.2864
     23  CB        -4.0400   34.6540   18.5030 C.3    66  ASN66       0.1181
     24  CG        -3.8900   35.0700   17.0340 C.2    66  ASN66       0.2629
     25  OD1       -4.3570   34.3810   16.1090 O.2    66  ASN66      -0.2716
     26  ND2       -3.2400   36.2150   16.8150 N.am   66  ASN66      -0.0877
     27  N         -7.4140   34.3620   15.1010 N.3    68  GLY68      -0.1210
     28  CA        -7.4550   35.1880   13.9000 C.3    68  GLY68       0.1956
     29  C         -7.6200   34.3820   12.6170 C.2    68  GLY68       0.2612
     30  O         -7.6140   33.1610   12.6530 O.2    68  GLY68      -0.2717
     31  N         -7.7610   35.0550   11.4800 N.am   69  LYS69      -0.1965
     32  CA        -7.9360   34.3530   10.1930 C.3    69  LYS69       0.1728
     33  C         -6.8030   33.3530    9.8440 C.2    69  LYS69       0.2616
     34  O         -7.0990   32.2510    9.3840 O.2    69  LYS69      -0.2715
     35  CB        -8.1600   35.3200    9.0250 C.3    69  LYS69       0.0311
     36  CG        -7.0230   36.3200    8.7640 C.3    69  LYS69       0.0038
     37  CD        -7.5630   37.4110    7.8330 C.3    69  LYS69       0.0206
     38  CE        -6.5710   38.4730    7.5800 C.3    69  LYS69       0.1093
     39  NZ        -6.2920   39.3660    8.7230 N.3    69  LYS69      -0.1314
     40  N         -5.5390   33.7420   10.0590 N.am   70  ASP70      -0.1957
     41  CA        -4.4010   32.8450    9.7630 C.3    70  ASP70       0.1840
     42  C         -4.4940   31.5930   10.5940 C.2    70  ASP70       0.2622
     43  O         -4.3220   30.4960   10.0550 O.2    70  ASP70      -0.2715
     44  CB        -3.0350   33.4500   10.1150 C.3    70  ASP70       0.1450
     45  CG        -2.5640   34.5240    9.1600 C.2    70  ASP70       0.3671
     46  OD1       -3.2320   34.7860    8.1260 O.co2  70  ASP70      -0.2456
     47  OD2       -1.4790   35.1200    9.5130 O.co2  70  ASP70      -0.2456
     48  N         -4.7350   31.7980   11.9030 N.am   71  CYS71      -0.1968
     49  CA        -4.8720   30.7350   12.9010 C.3    71  CYS71       0.1712
     50  C         -5.9450   29.7190   12.5010 C.2    71  CYS71       0.2296
     51  O         -5.7060   28.4920   12.5140 O.2    71  CYS71      -0.2864
     52  CB        -5.1830   31.3380   14.3240 C.3    71  CYS71       0.0983
     53  SG        -5.4510   30.0640   15.5500 S.3    71  CYS71      -0.0798
     54  N         -1.7420   27.0690   22.4530 N.3    91  VAL91      -0.1231
     55  CA        -1.2050   28.1350   23.3140 C.3    91  VAL91       0.1692
     56  C         -1.5570   29.5070   22.7540 C.2    91  VAL91       0.2592
     57  O         -1.2790   29.8220   21.5950 O.2    91  VAL91      -0.2718
     58  CB         0.3340   28.0000   23.5860 C.3    91  VAL91       0.0266
     59  CG1        1.1070   27.7430   22.3090 C.3    91  VAL91       0.0020
     60  CG2        0.8860   29.2570   24.3050 C.3    91  VAL91       0.0020
     61  N         -2.1960   30.3090   23.5970 N.am   92  PHE92      -0.1962
     62  CA        -2.5940   31.6560   23.2420 C.3    92  PHE92       0.1771
     63  C         -1.8740   32.5950   24.2100 C.2    92  PHE92       0.2619
     64  O         -1.9560   32.4150   25.4180 O.2    92  PHE92      -0.2715
     65  CB        -4.1280   31.7880   23.3380 C.3    92  PHE92       0.0574
     66  CG        -4.6410   33.2250   23.2890 C.ar   92  PHE92      -0.0200
     67  CD1       -4.2230   34.1170   22.2980 C.ar   92  PHE92      -0.0042
     68  CD2       -5.5500   33.6730   24.2410 C.ar   92  PHE92      -0.0042
     69  CE1       -4.7070   35.4460   22.2700 C.ar   92  PHE92      -0.0003
     70  CE2       -6.0250   34.9800   24.2150 C.ar   92  PHE92      -0.0003
     71  CZ        -5.6110   35.8530   23.2220 C.ar   92  PHE92      -0.0000
     72  N         -1.1540   33.5850   23.6730 N.am   93  ILE93      -0.1977
     73  CA        -0.5450   34.6200   24.5140 C.3    93  ILE93       0.1596
     74  C         -1.5630   35.7560   24.5870 C.2    93  ILE93       0.2287
     75  O         -1.7980   36.4830   23.6050 O.2    93  ILE93      -0.2864
     76  CB         0.8500   35.0770   23.9870 C.3    93  ILE93       0.0276
     77  CG1        1.7670   33.8510   23.7270 C.3    93  ILE93       0.0022
     78  CG2        1.4910   36.1040   24.9680 C.3    93  ILE93       0.0022
     79  CD1        1.9200   32.8840   24.9180 C.3    93  ILE93       0.0001
     80  N         -3.4240   39.2180   25.9100 N.3    95  HIS95      -0.1241
     81  CA        -3.0420   40.6160   26.2060 C.3    95  HIS95       0.1621
     82  C         -4.2070   41.3940   26.8040 C.2    95  HIS95       0.2264
     83  O         -5.3860   41.0450   26.5720 O.2    95  HIS95      -0.2867
     84  CB        -2.5420   41.3400   24.9490 C.3    95  HIS95       0.0745
     85  CG        -1.3210   40.7120   24.3460 C.ar   95  HIS95       0.0817
     86  ND1       -1.3720   39.8830   23.2460 N.ar   95  HIS95      -0.2268
     87  CD2       -0.0200   40.7690   24.7120 C.ar   95  HIS95       0.1154
     88  CE1       -0.1520   39.4730   22.9460 C.ar   95  HIS95       0.1986
     89  NE2        0.6880   40.0040   23.8190 N.ar   95  HIS95      -0.2212
     90  N        -12.7460   38.6610   20.1340 N.3   102  LEU102     -0.1245
     91  CA       -11.6800   37.6700   19.8920 C.3   102  LEU102      0.1561
     92  C        -11.5050   36.7060   21.0760 C.2   102  LEU102      0.2260
     93  O        -11.3910   35.4950   20.8560 O.2   102  LEU102     -0.2867
     94  CB       -10.3640   38.3660   19.5110 C.3   102  LEU102      0.0270
     95  CG        -9.2910   37.4290   18.9770 C.3   102  LEU102      0.0019
     96  CD1       -9.7630   36.5670   17.7280 C.3   102  LEU102      0.0001
     97  CD2       -8.0210   38.2100   18.6710 C.3   102  LEU102      0.0001
     98  N          6.3560   38.4130   24.5770 N.3   128  MET128     -0.1245
     99  CA         5.8700   37.1350   24.0630 C.3   128  MET128      0.1570
    100  C          6.8720   36.0410   24.3850 C.2   128  MET128      0.2261
    101  O          6.4890   34.9770   24.8230 O.2   128  MET128     -0.2867
    102  CB         5.6010   37.1920   22.5610 C.3   128  MET128      0.0387
    103  CG         5.0740   35.8610   22.0090 C.3   128  MET128      0.0595
    104  SD         4.5140   35.9940   20.3080 S.3   128  MET128     -0.1393
    105  CE         2.8960   36.7570   20.6250 C.3   128  MET128      0.0692
    106  N          6.2160   32.6860   26.5600 N.3   132  PHE132     -0.1241
    107  CA         6.4960   31.3490   26.0450 C.3   132  PHE132      0.1605
    108  C          7.4740   30.5840   26.9450 C.2   132  PHE132      0.2264
    109  O          7.3770   29.3560   27.0560 O.2   132  PHE132     -0.2867
    110  CB         6.9720   31.3960   24.5920 C.3   132  PHE132      0.0534
    111  CG         5.8520   31.2240   23.5810 C.ar  132  PHE132     -0.0203
    112  CD1        5.3970   29.9440   23.2370 C.ar  132  PHE132     -0.0042
    113  CD2        5.2530   32.3340   22.9810 C.ar  132  PHE132     -0.0042
    114  CE1        4.3590   29.7820   22.2940 C.ar  132  PHE132     -0.0003
    115  CE2        4.2260   32.1950   22.0450 C.ar  132  PHE132     -0.0003
    116  CZ         3.7750   30.9010   21.7010 C.ar  132  PHE132     -0.0000
    117  N          2.8760   27.8450   13.8840 N.3   147  ILE147     -0.1231
    118  CA         2.5870   29.2980   13.7840 C.3   147  ILE147      0.1692
    119  C          2.0370   29.6250   12.3980 C.2   147  ILE147      0.2593
    120  O          2.6550   29.2900   11.3860 O.2   147  ILE147     -0.2718
    121  CB         3.8500   30.1590   14.0880 C.3   147  ILE147      0.0266
    122  CG1        4.3530   29.8580   15.5040 C.3   147  ILE147      0.0019
    123  CG2        3.5570   31.6650   13.8900 C.3   147  ILE147      0.0020
    124  CD1        5.8420   30.1560   15.7010 C.3   147  ILE147      0.0001
    125  N          0.8750   30.2610   12.3550 N.am  148  GLY148     -0.1942
    126  CA         0.1790   30.5050   11.0810 C.3   148  GLY148      0.2014
    127  C          0.5300   31.7850   10.3540 C.2   148  GLY148      0.2639
    128  O         -0.2360   32.2360    9.4860 O.2   148  GLY148     -0.2714
    129  N          1.6870   32.3680   10.6780 N.am  149  ILE149     -0.1963
    130  CA         2.0740   33.6520   10.1100 C.3   149  ILE149      0.1727
    131  C          2.2770   33.5330    8.5950 C.2   149  ILE149      0.2616
    132  O          2.6830   32.4720    8.1050 O.2   149  ILE149     -0.2715
    133  CB         3.3550   34.2180   10.8160 C.3   149  ILE149      0.0290
    134  CG1        3.5940   35.6920   10.4140 C.3   149  ILE149      0.0022
    135  CG2        4.5670   33.3030   10.5550 C.3   149  ILE149      0.0023
    136  CD1        4.6900   36.3830   11.2600 C.3   149  ILE149      0.0001
    137  N          1.9750   34.6050    7.8610 N.am  150  ARG150     -0.1977
    138  CA         2.2420   34.6560    6.4080 C.3   150  ARG150      0.1597
    139  C          3.4600   35.5700    6.1270 C.2   150  ARG150      0.2287
    140  O          3.7510   36.4670    6.9230 O.2   150  ARG150     -0.2864
    141  CB         1.0330   35.2160    5.6640 C.3   150  ARG150      0.0334
    142  CG        -0.1480   34.2910    5.5910 C.3   150  ARG150      0.0492
    143  CD        -1.2780   34.9060    4.8090 C.3   150  ARG150      0.2205
    144  NE        -2.1070   35.6730    5.7040 N.pl3 150  ARG150     -0.0865
    145  CZ        -2.4410   36.9510    5.5850 C.cat 150  ARG150      0.5346
    146  NH1       -2.0450   37.7080    4.5610 N.pl3 150  ARG150      0.1354
    147  NH2       -3.2040   37.4650    6.5190 N.pl3 150  ARG150      0.1354
    148  N          2.5220   39.1890    6.4950 N.3   153  ASP153     -0.1225
    149  CA         2.3460   39.6800    7.8520 C.3   153  ASP153      0.1790
    150  C          3.6040   40.4230    8.3210 C.2   153  ASP153      0.2439
    151  O          4.7060   40.1730    7.8070 O.2   153  ASP153     -0.2733
    152  CB         2.0600   38.5130    8.8180 C.3   153  ASP153      0.1423
    153  CG         0.6320   38.0310    8.7430 C.2   153  ASP153      0.3668
    154  OD1       -0.3060   38.8550    8.8620 O.co2 153  ASP153     -0.2456
    155  OD2        0.4440   36.8120    8.5860 O.co2 153  ASP153     -0.2456
    156  N          3.4510   41.3470    9.2970 N.am  154  PRO154     -0.2729
    157  CA         4.6380   42.0070    9.8580 C.3   154  PRO154      0.1401
    158  C          5.6200   40.9880   10.3690 C.2   154  PRO154      0.2269
    159  O          5.2210   39.9650   10.9830 O.2   154  PRO154     -0.2865
    160  CB         4.0640   42.8310   11.0060 C.3   154  PRO154      0.0296
    161  CG         2.7180   43.1310   10.5600 C.3   154  PRO154      0.0237
    162  CD         2.2220   41.8670    9.9300 C.3   154  PRO154      0.0939
    163  N        -14.5410   40.3810   11.5830 N.3   201  TYR201     -0.1241
    164  CA       -14.3090   40.4990   10.1310 C.3   201  TYR201      0.1605
    165  C        -15.5620   40.8900    9.3800 C.2   201  TYR201      0.2264
    166  O        -15.4800   41.6460    8.4160 O.2   201  TYR201     -0.2867
    167  CB       -13.6850   39.2350    9.5280 C.3   201  TYR201      0.0534
    168  CG       -12.3570   38.8480   10.1430 C.ar  201  TYR201     -0.0201
    169  CD1      -11.2740   39.7540   10.1580 C.ar  201  TYR201     -0.0009
    170  CD2      -12.1690   37.5770   10.7180 C.ar  201  TYR201     -0.0009
    171  CE1      -10.0350   39.3910   10.7340 C.ar  201  TYR201      0.0417
    172  CE2      -10.9230   37.2010   11.2930 C.ar  201  TYR201      0.0417
    173  CZ        -9.8680   38.1140   11.2850 C.ar  201  TYR201      0.1957
    174  OH        -8.6400   37.7720   11.8380 O.3   201  TYR201     -0.2866
    175  N         -7.8710   43.1620   10.0820 N.3   207  SER207     -0.1202
    176  CA        -6.8470   42.7110   11.0430 C.3   207  SER207      0.2020
    177  C         -7.4130   43.0150   12.4210 C.2   207  SER207      0.2619
    178  O         -8.3500   43.8350   12.5610 O.2   207  SER207     -0.2717
    179  CB        -5.4950   43.4260   10.8260 C.3   207  SER207      0.2103
    180  OG        -5.6210   44.7920   11.1630 O.3   207  SER207     -0.2182
    181  N         -6.8660   42.3480   13.4310 N.am  208  LEU208     -0.1965
    182  CA        -7.3970   42.3940   14.7670 C.3   208  LEU208      0.1728
    183  C         -6.4780   42.8790   15.8800 C.2   208  LEU208      0.2616
    184  O         -6.6780   42.5190   17.0540 O.2   208  LEU208     -0.2715
    185  CB        -7.9910   41.0320   15.1410 C.3   208  LEU208      0.0311
    186  CG        -9.1000   40.4760   14.2320 C.3   208  LEU208      0.0022
    187  CD1       -9.4990   39.0990   14.7570 C.3   208  LEU208      0.0001
    188  CD2      -10.2810   41.3980   14.1390 C.3   208  LEU208      0.0001
    189  N         -5.5070   43.7150   15.5040 N.am  209  GLY209     -0.1955
    190  CA        -4.4660   44.2170   16.4080 C.3   209  GLY209      0.1869
    191  C         -4.7910   44.2990   17.8880 C.2   209  GLY209      0.2309
    192  O         -4.5240   43.3580   18.6490 O.2   209  GLY209     -0.2863
    193  N         -3.8940   45.3290    4.4340 N.3   281  GLU281     -0.1231
    194  CA        -4.4870   44.5250    5.4990 C.3   281  GLU281      0.1699
    195  C         -4.5320   45.1700    6.8980 C.2   281  GLU281      0.2592
    196  O         -5.4970   44.9520    7.6570 O.2   281  GLU281     -0.2718
    197  CB        -3.7980   43.1590    5.5550 C.3   281  GLU281      0.0402
    198  CG        -4.5520   42.1100    6.3610 C.3   281  GLU281      0.1161
    199  CD        -3.9540   40.7250    6.1910 C.2   281  GLU281      0.3649
    200  OE1       -3.3680   40.4460    5.1150 O.co2 281  GLU281     -0.2457
    201  OE2       -4.0730   39.9250    7.1340 O.co2 281  GLU281     -0.2457
    202  N         -3.5050   45.9470    7.2420 N.am  282  ARG282     -0.1980
    203  CA        -3.4600   46.6350    8.5230 C.3   282  ARG282      0.1597
    204  C         -3.7550   48.1360    8.4240 C.2   282  ARG282      0.2287
    205  O         -3.3430   48.9210    9.2910 O.2   282  ARG282     -0.2864
    206  CB        -2.1130   46.3390    9.1790 C.3   282  ARG282      0.0334
    207  CG        -2.0800   44.8940    9.7070 C.3   282  ARG282      0.0492
    208  CD        -0.7090   44.3020    9.6420 C.3   282  ARG282      0.2205
    209  NE        -0.2290   44.1200    8.2630 N.pl3 282  ARG282     -0.0865
    210  CZ        -0.4210   43.0250    7.5160 C.cat 282  ARG282      0.5346
    211  NH1        0.0730   42.9750    6.2910 N.pl3 282  ARG282      0.1354
    212  NH2       -1.1000   41.9670    7.9860 N.pl3 282  ARG282      0.1354
    213  N         -6.3740   51.5600   11.2130 N.3   285  ARG285     -0.1245
    214  CA        -5.6430   51.9160   12.4410 C.3   285  ARG285      0.1563
    215  C         -5.8880   53.3810   12.8500 C.2   285  ARG285      0.2260
    216  O         -6.1030   54.2510   11.9920 O.2   285  ARG285     -0.2867
    217  CB        -4.1340   51.6120   12.3040 C.3   285  ARG285      0.0307
    218  CG        -3.6990   50.0780   12.3250 C.3   285  ARG285      0.0489
    219  CD        -4.1380   49.2930   13.5880 C.3   285  ARG285      0.2205
    220  NE        -3.7210   47.8740   13.7160 N.pl3 285  ARG285     -0.0865
    221  CZ        -4.2770   46.8390   13.0730 C.cat 285  ARG285      0.5346
    222  NH1       -5.2750   47.0510   12.2120 N.pl3 285  ARG285      0.1354
    223  NH2       -3.8400   45.5780   13.2740 N.pl3 285  ARG285      0.1354
@<TRIPOS>BOND
     1   193   194    1
     2   146   145    1
     3   143   142    1
     4   143   144    1
     5   200   199   ar
     6   194   197    1
     7   194   195    1
     8   197   198    1
     9   145   144    2
    10   145   147    1
    11   142   141    1
    12   141   138    1
    13   139   138    1
    14   139   140    2
    15   199   198    1
    16   199   201   ar
    17   211   210    1
    18   138   137    1
    19   148   149    1
    20   195   202   am
    21   195   196    2
    22   202   203    1
    23   210   212    1
    24   210   209    2
    25    38    37    1
    26    38    39    1
    27   151   150    2
    28    37    36    1
    29   149   150    1
    30   149   152    1
    31   137   131   am
    32   132   131    2
    33    46    45   ar
    34   209   208    1
    35   150   156   am
    36   166   165    2
    37   204   203    1
    38   204   205    2
    39   203   206    1
    40   155   153   ar
    41   131   130    1
    42   153   152    1
    43   153   154   ar
    44    36    35    1
    45    35    32    1
    46    45    47   ar
    47    45    44    1
    48   206   207    1
    49   156   157    1
    50   156   162    1
    51   165   164    1
    52    34    33    2
    53   128   127    2
    54   167   164    1
    55   167   168    1
    56   208   207    1
    57    41    40    1
    58    41    44    1
    59    41    42    1
    60    33    40   am
    61    33    32    1
    62   157   158    1
    63   157   160    1
    64   162   161    1
    65    43    42    2
    66   175   176    1
    67   130   129    1
    68   130   133    1
    69   164   163    1
    70   168   169   ar
    71   168   170   ar
    72   169   171   ar
    73    32    31    1
    74   127   129   am
    75   127   126    1
    76   158   159    2
    77   134   133    1
    78   134   136    1
    79   135   133    1
    80   161   160    1
    81    42    48   am
    82   170   172   ar
    83   171   173   ar
    84   179   176    1
    85   179   180    1
    86   176   177    1
    87   126   125    1
    88   213   214    1
    89   173   172   ar
    90   173   174    1
    91   120   119    2
    92    31    29   am
    93    48    49    1
    94   216   215    2
    95   222   221    1
    96   217   218    1
    97   217   214    1
    98   218   219    1
    99   125   119   am
   100   119   118    1
   101   177   178    2
   102   177   181   am
   103   214   215    1
   104    50    51    2
   105    50    49    1
   106    29    30    2
   107    29    28    1
   108    49    52    1
   109   221   223    1
   110   221   220    2
   111   181   182    1
   112   219   220    1
   113   118   117    1
   114   118   121    1
   115   123   121    1
   116    28    27    1
   117   121   122    1
   118   188   186    1
   119   186   187    1
   120   186   185    1
   121    52    53    1
   122   182   185    1
   123   182   183    1
   124   122   124    1
   125   189   183   am
   126   189   190    1
   127   183   184    2
   128    25    24    2
   129   190   191    1
   130     4     3    2
   131    15    13   ar
   132    15    17   ar
   133    26    24   am
   134    18    17    1
   135    24    23    1
   136    13    12   ar
   137    17    16   ar
   138    96    95    1
   139   191   192    2
   140     3     2    1
   141     3     7   am
   142     5     2    1
   143     5     6    1
   144    21    22    2
   145    21    20    1
   146     1     2    1
   147    19    20    1
   148    19     9   am
   149    23    20    1
   150    12    11    1
   151    12    14   ar
   152     8     7    1
   153     8    11    1
   154     8     9    1
   155    97    95    1
   156    16    14   ar
   157    95    94    1
   158     9    10    2
   159    94    91    1
   160    91    90    1
   161    91    92    1
   162   104   105    1
   163   104   103    1
   164    93    92    2
   165    57    56    2
   166   116   115   ar
   167   116   114   ar
   168   103   102    1
   169   115   113   ar
   170    69    67   ar
   171    69    71   ar
   172   114   112   ar
   173    67    66   ar
   174    59    58    1
   175    54    55    1
   176   102    99    1
   177    56    55    1
   178    56    61   am
   179    88    86   ar
   180    88    89   ar
   181   113   111   ar
   182    71    70   ar
   183   112   111   ar
   184    62    65    1
   185    62    61    1
   186    62    63    1
   187    86    85   ar
   188    66    65    1
   189    66    68   ar
   190    55    58    1
   191   111   110    1
   192    58    60    1
   193    75    74    2
   194    72    63   am
   195    72    73    1
   196    77    76    1
   197    77    79    1
   198    89    87   ar
   199    76    73    1
   200    76    78    1
   201    99   100    1
   202    99    98    1
   203    63    64    2
   204    70    68   ar
   205    85    87   ar
   206    85    84    1
   207   100   101    2
   208    73    74    1
   209   110   107    1
   210    84    81    1
   211    80    81    1
   212   107   106    1
   213   107   108    1
   214    81    82    1
   215    83    82    2
   216   108   109    2
