@<TRIPOS>MOLECULE
tmp/3g5aA00.pdb
 123 119 0 0 0
SMALL
GASTEIGER

@<TRIPOS>ATOM
      1  N          9.5150   -6.3300   43.4400 N.3    64  SER64      -0.1202
      2  CA         8.2740   -6.0180   44.1820 C.3    64  SER64       0.2020
      3  C          8.4130   -4.7040   44.9760 C.2    64  SER64       0.2619
      4  O          9.2720   -4.5500   45.8480 O.2    64  SER64      -0.2717
      5  CB         7.7890   -7.1960   45.0430 C.3    64  SER64       0.2103
      6  OG         8.6140   -7.3850   46.1680 O.3    64  SER64      -0.2182
      7  N          7.5560   -3.7460   44.6590 N.am   65  TYR65      -0.1961
      8  CA         7.7030   -2.4150   45.1910 C.3    65  TYR65       0.1771
      9  C          6.3700   -1.8370   45.6310 C.2    65  TYR65       0.2619
     10  O          5.4350   -1.7530   44.8400 O.2    65  TYR65      -0.2715
     11  CB         8.3030   -1.4960   44.1210 C.3    65  TYR65       0.0574
     12  CG         8.6180   -0.0670   44.5930 C.ar   65  TYR65      -0.0198
     13  CD1        9.7160    0.1900   45.4060 C.ar   65  TYR65      -0.0009
     14  CD2        7.8210    1.0180   44.1900 C.ar   65  TYR65      -0.0009
     15  CE1       10.0240    1.4840   45.8450 C.ar   65  TYR65       0.0417
     16  CE2        8.1300    2.3350   44.5970 C.ar   65  TYR65       0.0417
     17  CZ         9.2320    2.5520   45.4290 C.ar   65  TYR65       0.1957
     18  OH         9.5570    3.8110   45.8470 O.3    65  TYR65      -0.2866
     19  N          6.3100   -1.3860   46.8790 N.am   66  ASN66      -0.1972
     20  CA         5.1560   -0.6200   47.3050 C.3    66  ASN66       0.1688
     21  C          5.5090    0.6890   48.0220 C.2    66  ASN66       0.2292
     22  O          4.7490    1.1190   48.8570 O.2    66  ASN66      -0.2864
     23  CB         4.2400   -1.4750   48.1760 C.3    66  ASN66       0.1181
     24  CG         4.8760   -1.8620   49.4880 C.2    66  ASN66       0.2629
     25  OD1        6.0490   -1.5340   49.7910 O.2    66  ASN66      -0.2716
     26  ND2        4.0990   -2.5420   50.3020 N.am   66  ASN66      -0.0877
     27  N         11.5660   -0.0750   53.2950 N.3    70  ASP70      -0.1225
     28  CA        12.4000   -1.2520   53.1130 C.3    70  ASP70       0.1805
     29  C         12.5950   -1.6170   51.6380 C.2    70  ASP70       0.2598
     30  O         13.7280   -1.8730   51.1820 O.2    70  ASP70      -0.2718
     31  CB        11.8390   -2.4200   53.9250 C.3    70  ASP70       0.1424
     32  CG        11.6890   -2.0700   55.3970 C.2    70  ASP70       0.3668
     33  OD1       12.7000   -1.8790   56.0870 O.co2  70  ASP70      -0.2456
     34  OD2       10.5510   -1.9290   55.8540 O.co2  70  ASP70      -0.2456
     35  N         11.5190   -1.6480   50.8670 N.am   71  CYS71      -0.1970
     36  CA        11.7170   -1.8650   49.4410 C.3    71  CYS71       0.1712
     37  C         12.4810   -0.6820   48.8210 C.2    71  CYS71       0.2296
     38  O         13.2090   -0.8830   47.8850 O.2    71  CYS71      -0.2864
     39  CB        10.4230   -2.1760   48.6690 C.3    71  CYS71       0.0983
     40  SG         9.2150   -0.8990   48.6800 S.3    71  CYS71      -0.0798
     41  N          6.6990   -4.5910   40.1740 N.3    98  VAL98      -0.1231
     42  CA         5.3230   -5.0260   40.4120 C.3    98  VAL98       0.1692
     43  C          4.7940   -4.4760   41.7380 C.2    98  VAL98       0.2592
     44  O          5.4490   -4.5790   42.7690 O.2    98  VAL98      -0.2718
     45  CB         5.1890   -6.5810   40.3340 C.3    98  VAL98       0.0266
     46  CG1        6.2110   -7.2760   41.2150 C.3    98  VAL98       0.0020
     47  CG2        3.7390   -7.0550   40.6410 C.3    98  VAL98       0.0020
     48  N          3.5980   -3.9020   41.6840 N.am   99  PHE99      -0.1962
     49  CA         2.9650   -3.3510   42.8540 C.3    99  PHE99       0.1771
     50  C          1.5470   -3.9160   42.9170 C.2    99  PHE99       0.2619
     51  O          0.7630   -3.7550   41.9930 O.2    99  PHE99      -0.2715
     52  CB         2.9840   -1.8090   42.8170 C.3    99  PHE99       0.0574
     53  CG         2.0220   -1.1420   43.7890 C.ar   99  PHE99      -0.0200
     54  CD1        2.0530   -1.4560   45.1520 C.ar   99  PHE99      -0.0042
     55  CD2        1.1160   -0.1660   43.3400 C.ar   99  PHE99      -0.0042
     56  CE1        1.1940   -0.8340   46.0820 C.ar   99  PHE99      -0.0003
     57  CE2        0.2410    0.4710   44.2540 C.ar   99  PHE99      -0.0003
     58  CZ         0.2670    0.1210   45.6310 C.ar   99  PHE99      -0.0000
     59  N          1.2370   -4.5850   44.0140 N.am  100  ILE100     -0.1977
     60  CA        -0.1210   -5.0600   44.2190 C.3   100  ILE100      0.1596
     61  C         -0.9300   -4.0100   44.9920 C.2   100  ILE100      0.2287
     62  O         -0.7650   -3.8490   46.1840 O.2   100  ILE100     -0.2864
     63  CB        -0.1770   -6.4470   44.9270 C.3   100  ILE100      0.0276
     64  CG1        0.6980   -7.4810   44.1910 C.3   100  ILE100      0.0022
     65  CG2       -1.6660   -6.9410   45.0480 C.3   100  ILE100      0.0022
     66  CD1        0.5750   -7.4800   42.6320 C.3   100  ILE100      0.0001
     67  N         -4.1670   -1.9670   46.6450 N.3   102  HIS102     -0.1241
     68  CA        -5.3480   -2.3500   47.4280 C.3   102  HIS102      0.1621
     69  C         -6.2170   -1.1420   47.6770 C.2   102  HIS102      0.2264
     70  O         -5.7230   -0.0030   47.6340 O.2   102  HIS102     -0.2867
     71  CB        -4.9520   -2.9970   48.7530 C.3   102  HIS102      0.0745
     72  CG        -4.1470   -4.2550   48.5880 C.ar  102  HIS102      0.0817
     73  ND1       -2.7700   -4.2710   48.6650 N.ar  102  HIS102     -0.2268
     74  CD2       -4.5260   -5.5330   48.3290 C.ar  102  HIS102      0.1154
     75  CE1       -2.3370   -5.5050   48.4700 C.ar  102  HIS102      0.1986
     76  NE2       -3.3820   -6.2900   48.2620 N.ar  102  HIS102     -0.2212
     77  N         -2.8910  -11.8330   47.7800 N.3   135  MET135     -0.1245
     78  CA        -1.5980  -11.4870   47.1200 C.3   135  MET135      0.1570
     79  C         -1.1240  -12.5750   46.1590 C.2   135  MET135      0.2261
     80  O         -0.6580  -12.2810   45.0600 O.2   135  MET135     -0.2867
     81  CB        -0.5160  -11.2150   48.1660 C.3   135  MET135      0.0387
     82  CG        -0.7870   -9.9480   48.9500 C.3   135  MET135      0.0595
     83  SD        -0.3140   -8.5500   47.9670 S.3   135  MET135     -0.1393
     84  CE         1.4660   -8.6080   48.3380 C.3   135  MET135      0.0692
     85  N         -0.4610  -12.2160   42.1990 N.3   139  PHE139     -0.1241
     86  CA         0.8340  -12.6130   41.6140 C.3   139  PHE139      0.1605
     87  C          0.6900  -13.7190   40.5640 C.2   139  PHE139      0.2264
     88  O          1.4870  -13.7790   39.6200 O.2   139  PHE139     -0.2867
     89  CB         1.8830  -12.9480   42.6850 C.3   139  PHE139      0.0534
     90  CG         2.6390  -11.7340   43.1890 C.ar  139  PHE139     -0.0203
     91  CD1        3.7000  -11.1830   42.4410 C.ar  139  PHE139     -0.0042
     92  CD2        2.2800  -11.1320   44.3790 C.ar  139  PHE139     -0.0042
     93  CE1        4.3710  -10.0470   42.8890 C.ar  139  PHE139     -0.0003
     94  CE2        2.9520   -9.9880   44.8460 C.ar  139  PHE139     -0.0003
     95  CZ         3.9920   -9.4380   44.0910 C.ar  139  PHE139     -0.0000
     96  N         12.1040   -8.9610   46.9690 N.3   154  ILE154     -0.1231
     97  CA        11.1710   -8.5970   48.0650 C.3   154  ILE154      0.1692
     98  C         11.9490   -8.0030   49.2350 C.2   154  ILE154      0.2593
     99  O         12.9580   -8.5700   49.6660 O.2   154  ILE154     -0.2718
    100  CB        10.4030   -9.8400   48.5920 C.3   154  ILE154      0.0266
    101  CG1        9.7920  -10.6330   47.4500 C.3   154  ILE154      0.0019
    102  CG2        9.3090   -9.4370   49.6570 C.3   154  ILE154      0.0020
    103  CD1        9.5000  -12.0660   47.8220 C.3   154  ILE154      0.0001
    104  N         11.4920   -6.8660   49.7550 N.am  155  GLY155     -0.1942
    105  CA        12.2190   -6.1820   50.8360 C.3   155  GLY155      0.2014
    106  C         11.7960   -6.5680   52.2680 C.2   155  GLY155      0.2638
    107  O         11.6820   -5.7260   53.1570 O.2   155  GLY155     -0.2714
    108  N         11.5720   -7.8620   52.4820 N.am  156  ILE156     -0.1977
    109  CA        11.2150   -8.4080   53.7760 C.3   156  ILE156      0.1596
    110  C         12.4960   -8.5410   54.6250 C.2   156  ILE156      0.2287
    111  O         13.5920   -8.7400   54.1000 O.2   156  ILE156     -0.2864
    112  CB        10.4420   -9.7760   53.5770 C.3   156  ILE156      0.0276
    113  CG1       10.0280  -10.3920   54.9190 C.3   156  ILE156      0.0022
    114  CG2       11.2780  -10.7680   52.7790 C.3   156  ILE156      0.0022
    115  CD1        8.6760  -11.1020   54.8840 C.3   156  ILE156      0.0001
    116  N         10.4060   -8.9330   60.4570 N.3   160  ASP160     -0.1239
    117  CA         9.0130   -8.8130   59.9880 C.3   160  ASP160      0.1674
    118  C          8.2300  -10.0560   60.3760 C.2   160  ASP160      0.2266
    119  O          8.8430  -11.1030   60.6060 O.2   160  ASP160     -0.2867
    120  CB         8.9680   -8.6120   58.4700 C.3   160  ASP160      0.1410
    121  CG         9.6180   -7.3030   58.0290 C.2   160  ASP160      0.3668
    122  OD1        9.8940   -6.4060   58.8880 O.co2 160  ASP160     -0.2456
    123  OD2        9.8570   -7.1710   56.8150 O.co2 160  ASP160     -0.2456
@<TRIPOS>BOND
     1    88    87    2
     2    41    42    1
     3    45    42    1
     4    45    47    1
     5    45    46    1
     6    42    43    1
     7    87    86    1
     8    86    85    1
     9    86    89    1
    10    48    43   am
    11    48    49    1
    12    43    44    2
    13    51    50    2
    14    91    93   ar
    15    91    90   ar
    16    66    64    1
    17    89    90    1
    18    52    49    1
    19    52    53    1
    20    49    50    1
    21    93    95   ar
    22    50    59   am
    23    90    92   ar
    24    55    53   ar
    25    55    57   ar
    26     1     2    1
    27    53    54   ar
    28    59    60    1
    29    95    94   ar
    30    11    12    1
    31    11     8    1
    32     2     3    1
    33     2     5    1
    34    14    12   ar
    35    14    16   ar
    36    64    63    1
    37    60    63    1
    38    60    61    1
    39    57    58   ar
    40    92    94   ar
    41    12    13   ar
    42    16    17   ar
    43     7     3   am
    44     7     8    1
    45    10     9    2
    46    63    65    1
    47     3     4    2
    48    61    62    2
    49     5     6    1
    50    80    79    2
    51    54    56   ar
    52     8     9    1
    53    13    15   ar
    54    17    15   ar
    55    17    18    1
    56    58    56   ar
    57     9    19   am
    58    79    78    1
    59    67    68    1
    60    19    20    1
    61    96    97    1
    62    78    77    1
    63    78    81    1
    64    20    21    1
    65    20    23    1
    66    68    69    1
    67    68    71    1
    68   101   103    1
    69   101   100    1
    70    70    69    2
    71    38    37    2
    72    83    84    1
    73    83    82    1
    74    21    22    2
    75    97   100    1
    76    97    98    1
    77    81    82    1
    78    23    24    1
    79    76    74   ar
    80    76    75   ar
    81    74    72   ar
    82    75    73   ar
    83    72    73   ar
    84    72    71    1
    85   100   102    1
    86    39    40    1
    87    39    36    1
    88    37    36    1
    89    98    99    2
    90    98   104   am
    91    36    35    1
    92    24    25    2
    93    24    26   am
    94   104   105    1
    95   105   106    1
    96    35    29   am
    97    30    29    2
    98    29    28    1
    99   106   108   am
   100   106   107    2
   101   108   109    1
   102   114   112    1
   103    28    27    1
   104    28    31    1
   105   112   109    1
   106   112   113    1
   107   109   110    1
   108    31    32    1
   109   111   110    2
   110   115   113    1
   111    32    34   ar
   112    32    33   ar
   113   123   121   ar
   114   121   120    1
   115   121   122   ar
   116   120   117    1
   117   117   118    1
   118   117   116    1
   119   118   119    2
