@<TRIPOS>MOLECULE
tmp/3g5aE00.pdb
 201 193 0 0 0
SMALL
GASTEIGER

@<TRIPOS>ATOM
      1  N         54.9150   19.1720   30.3810 N.3    60  SER60      -0.1202
      2  CA        55.0320   20.2050   29.3350 C.3    60  SER60       0.2020
      3  C         56.4300   20.2020   28.6570 C.2    60  SER60       0.2619
      4  O         57.4660   20.4710   29.2830 O.2    60  SER60      -0.2717
      5  CB        54.5590   21.6090   29.7730 C.3    60  SER60       0.2103
      6  OG        55.5280   22.2200   30.5980 O.3    60  SER60      -0.2182
      7  N         56.4310   19.9090   27.3550 N.am   61  TYR61      -0.1961
      8  CA        57.6670   19.6890   26.6110 C.3    61  TYR61       0.1771
      9  C         57.7120   20.5130   25.3410 C.2    61  TYR61       0.2619
     10  O         56.7960   20.4590   24.5260 O.2    61  TYR61      -0.2715
     11  CB        57.8280   18.1950   26.2960 C.3    61  TYR61       0.0574
     12  CG        59.0980   17.8180   25.5350 C.ar   61  TYR61      -0.0198
     13  CD1       60.3340   17.8600   26.1620 C.ar   61  TYR61      -0.0009
     14  CD2       59.0470   17.3860   24.1980 C.ar   61  TYR61      -0.0009
     15  CE1       61.5070   17.5030   25.4820 C.ar   61  TYR61       0.0417
     16  CE2       60.2310   17.0240   23.4990 C.ar   61  TYR61       0.0417
     17  CZ        61.4540   17.0990   24.1720 C.ar   61  TYR61       0.1957
     18  OH        62.6510   16.7680   23.5790 O.3    61  TYR61      -0.2866
     19  N         58.7650   21.3080   25.1970 N.am   62  ASN62      -0.1972
     20  CA        58.9810   22.0570   23.9570 C.3    62  ASN62       0.1688
     21  C         60.4190   21.9510   23.4340 C.2    62  ASN62       0.2292
     22  O         60.8810   22.8380   22.7170 O.2    62  ASN62      -0.2864
     23  CB        58.4780   23.5120   24.0620 C.3    62  ASN62       0.1181
     24  CG        59.3350   24.3940   24.9760 C.2    62  ASN62       0.2629
     25  OD1       60.0020   23.9230   25.9100 O.2    62  ASN62      -0.2716
     26  ND2       59.3270   25.6870   24.6910 N.am   62  ASN62      -0.0877
     27  N         63.4110   22.3440   24.4050 N.3    64  GLY64      -0.1210
     28  CA        64.5070   23.1260   24.9980 C.3    64  GLY64       0.1956
     29  C         65.3870   22.2980   25.9320 C.2    64  GLY64       0.2612
     30  O         64.9830   21.2210   26.3970 O.2    64  GLY64      -0.2717
     31  N         66.5810   22.8280   26.2260 N.am   65  LYS65      -0.1965
     32  CA        67.5800   22.1440   27.0300 C.3    65  LYS65       0.1728
     33  C         67.1000   21.8190   28.4540 C.2    65  LYS65       0.2616
     34  O         67.4400   20.7810   29.0240 O.2    65  LYS65      -0.2715
     35  CB        68.8600   22.9860   27.1140 C.3    65  LYS65       0.0311
     36  CG        68.7490   24.2900   27.9180 C.3    65  LYS65       0.0038
     37  CD        69.9040   25.2700   27.6810 C.3    65  LYS65       0.0206
     38  CE        69.8560   26.4700   28.6950 C.3    65  LYS65       0.1093
     39  NZ        68.6150   27.3100   28.5150 N.3    65  LYS65      -0.1314
     40  N         66.3760   22.7610   29.0370 N.am   66  ASP66      -0.1957
     41  CA        65.9200   22.6400   30.3970 C.3    66  ASP66       0.1840
     42  C         64.8130   21.5980   30.4970 C.2    66  ASP66       0.2622
     43  O         64.9240   20.7010   31.3310 O.2    66  ASP66      -0.2715
     44  CB        65.4970   24.0090   30.9130 C.3    66  ASP66       0.1450
     45  CG        66.6250   25.0380   30.7860 C.2    66  ASP66       0.3671
     46  OD1       67.7120   24.7850   31.3090 O.co2  66  ASP66      -0.2456
     47  OD2       66.4400   26.0880   30.1470 O.co2  66  ASP66      -0.2456
     48  N         63.7740   21.6700   29.6490 N.am   67  CYS67      -0.1968
     49  CA        62.7400   20.6200   29.7420 C.3    67  CYS67       0.1712
     50  C         63.2630   19.2670   29.2740 C.2    67  CYS67       0.2296
     51  O         62.7630   18.2470   29.7410 O.2    67  CYS67      -0.2864
     52  CB        61.3890   20.9430   29.0950 C.3    67  CYS67       0.0983
     53  SG        61.5060   21.3690   27.4230 S.3    67  CYS67      -0.0798
     54  N         52.4730   17.5690   26.5720 N.3    92  VAL92      -0.1231
     55  CA        51.7820   18.7040   25.9640 C.3    92  VAL92       0.1692
     56  C         52.7500   19.7580   25.4210 C.2    92  VAL92       0.2592
     57  O         53.6310   20.2480   26.1470 O.2    92  VAL92      -0.2718
     58  CB        50.7570   19.3620   26.9420 C.3    92  VAL92       0.0266
     59  CG1       51.4110   19.7240   28.3020 C.3    92  VAL92       0.0020
     60  CG2       50.1320   20.5920   26.3100 C.3    92  VAL92       0.0020
     61  N         52.5660   20.0900   24.1420 N.am   93  PHE93      -0.1962
     62  CA        53.3120   21.1370   23.4780 C.3    93  PHE93       0.1771
     63  C         52.3710   22.1650   22.8650 C.2    93  PHE93       0.2619
     64  O         51.5370   21.8130   22.0220 O.2    93  PHE93      -0.2715
     65  CB        54.2510   20.5420   22.4110 C.3    93  PHE93       0.0574
     66  CG        54.8570   21.5760   21.4800 C.ar   93  PHE93      -0.0200
     67  CD1       55.5950   22.6560   21.9900 C.ar   93  PHE93      -0.0042
     68  CD2       54.6990   21.4590   20.0980 C.ar   93  PHE93      -0.0042
     69  CE1       56.1610   23.6130   21.1480 C.ar   93  PHE93      -0.0003
     70  CE2       55.2620   22.3940   19.2400 C.ar   93  PHE93      -0.0003
     71  CZ        55.9960   23.4870   19.7610 C.ar   93  PHE93      -0.0000
     72  N         52.5100   23.4250   23.2950 N.am   94  ILE94      -0.1977
     73  CA        51.7800   24.5260   22.7070 C.3    94  ILE94       0.1596
     74  C         52.5810   25.0970   21.5360 C.2    94  ILE94       0.2287
     75  O         53.6410   25.7310   21.7200 O.2    94  ILE94      -0.2864
     76  CB        51.4460   25.6390   23.7470 C.3    94  ILE94       0.0276
     77  CG1       50.7060   25.0550   24.9640 C.3    94  ILE94       0.0022
     78  CG2       50.6660   26.8320   23.0560 C.3    94  ILE94       0.0022
     79  CD1       49.5590   24.0190   24.6170 C.3    94  ILE94       0.0001
     80  N         53.4330   27.3420   18.1310 N.3    96  HIS96      -0.1241
     81  CA        53.2370   28.7200   17.6750 C.3    96  HIS96       0.1621
     82  C         53.7690   28.8880   16.2580 C.2    96  HIS96       0.2264
     83  O         54.7620   28.2540   15.8850 O.2    96  HIS96      -0.2867
     84  CB        53.9520   29.7260   18.5800 C.3    96  HIS96       0.0745
     85  CG        53.4430   29.7450   19.9830 C.ar   96  HIS96       0.0817
     86  ND1       53.9530   28.9240   20.9660 N.ar   96  HIS96      -0.2268
     87  CD2       52.4450   30.4530   20.5600 C.ar   96  HIS96       0.1154
     88  CE1       53.2900   29.1270   22.0900 C.ar   96  HIS96       0.1986
     89  NE2       52.3710   30.0510   21.8700 N.ar   96  HIS96      -0.2212
     90  N         63.3880   23.6870   16.2240 N.3   103  LEU103     -0.1245
     91  CA        62.7180   23.2540   17.4720 C.3   103  LEU103      0.1561
     92  C         61.5260   22.3260   17.2070 C.2   103  LEU103      0.2260
     93  O         61.4300   21.2510   17.8150 O.2   103  LEU103     -0.2867
     94  CB        62.2860   24.4780   18.3210 C.3   103  LEU103      0.0270
     95  CG        62.0310   24.2420   19.8130 C.3   103  LEU103      0.0019
     96  CD1       63.2110   23.4650   20.4890 C.3   103  LEU103      0.0001
     97  CD2       61.7600   25.5380   20.5500 C.3   103  LEU103      0.0001
     98  N         49.0900   31.5350   26.0920 N.3   129  MET129     -0.1245
     99  CA        49.4830   30.2350   26.6020 C.3   129  MET129      0.1570
    100  C         48.4010   29.7250   27.5530 C.2   129  MET129      0.2261
    101  O         48.0050   28.5470   27.4780 O.2   129  MET129     -0.2867
    102  CB        50.8390   30.3140   27.3080 C.3   129  MET129      0.0387
    103  CG        52.0210   30.2990   26.3520 C.3   129  MET129      0.0595
    104  SD        52.3520   28.6180   25.7970 S.3   129  MET129     -0.1393
    105  CE        53.2730   27.9630   27.1990 C.3   129  MET129      0.0692
    106  N         46.1540   26.2230   27.1850 N.3   133  PHE133     -0.1241
    107  CA        46.0890   25.2130   28.2180 C.3   133  PHE133      0.1605
    108  C         44.6770   24.9940   28.6970 C.2   133  PHE133      0.2264
    109  O         44.3340   23.8850   29.1100 O.2   133  PHE133     -0.2867
    110  CB        47.0320   25.5220   29.3740 C.3   133  PHE133      0.0534
    111  CG        48.3980   24.9250   29.1850 C.ar  133  PHE133     -0.0203
    112  CD1       48.6410   23.6060   29.5470 C.ar  133  PHE133     -0.0042
    113  CD2       49.4160   25.6620   28.5800 C.ar  133  PHE133     -0.0042
    114  CE1       49.8920   23.0160   29.3580 C.ar  133  PHE133     -0.0003
    115  CE2       50.6860   25.0920   28.3800 C.ar  133  PHE133     -0.0003
    116  CZ        50.9270   23.7560   28.7650 C.ar  133  PHE133     -0.0000
    117  N         56.8850   21.2680   34.5510 N.3   148  ILE148     -0.1231
    118  CA        57.4950   22.4190   33.8620 C.3   148  ILE148      0.1692
    119  C         59.0040   22.5450   34.1180 C.2   148  ILE148      0.2593
    120  O         59.4740   22.4610   35.2650 O.2   148  ILE148     -0.2718
    121  CB        56.8020   23.7860   34.2680 C.3   148  ILE148      0.0266
    122  CG1       55.2720   23.6410   34.2930 C.3   148  ILE148      0.0019
    123  CG2       57.2490   24.9390   33.3450 C.3   148  ILE148      0.0020
    124  CD1       54.5460   24.7820   34.9960 C.3   148  ILE148      0.0001
    125  N         59.7530   22.7810   33.0530 N.am  149  GLY149     -0.1942
    126  CA        61.2070   22.8230   33.1180 C.3   149  GLY149      0.2014
    127  C         61.6800   24.2700   33.2370 C.2   149  GLY149      0.2638
    128  O         62.4880   24.7480   32.4260 O.2   149  GLY149     -0.2714
    129  N         61.1420   24.9630   34.2400 N.am  150  ILE150     -0.1977
    130  CA        61.4830   26.3540   34.5410 C.3   150  ILE150      0.1596
    131  C         62.4820   26.3660   35.7120 C.2   150  ILE150      0.2287
    132  O         62.5120   25.4390   36.5110 O.2   150  ILE150     -0.2864
    133  CB        60.2030   27.1390   34.8870 C.3   150  ILE150      0.0276
    134  CG1       60.5190   28.6160   35.1590 C.3   150  ILE150      0.0022
    135  CG2       59.4580   26.4360   36.0790 C.3   150  ILE150      0.0022
    136  CD1       59.4650   29.5710   34.6540 C.3   150  ILE150      0.0001
    137  N         65.2460   31.9600   35.5690 N.3   154  ASP154     -0.1239
    138  CA        64.3970   32.4380   34.4660 C.3   154  ASP154      0.1674
    139  C         63.5630   33.6430   34.8670 C.2   154  ASP154      0.2266
    140  O         63.3780   33.8880   36.0600 O.2   154  ASP154     -0.2867
    141  CB        63.4500   31.3490   33.9280 C.3   154  ASP154      0.1410
    142  CG        64.1970   30.1580   33.3660 C.2   154  ASP154      0.3668
    143  OD1       65.3250   30.3350   32.8440 O.co2 154  ASP154     -0.2456
    144  OD2       63.6790   29.0340   33.5030 O.co2 154  ASP154     -0.2456
    145  N         71.5030   25.2280   19.8750 N.3   202  TYR202     -0.1241
    146  CA        72.5140   25.4050   20.9350 C.3   202  TYR202      0.1605
    147  C         73.9340   25.2450   20.3680 C.2   202  TYR202      0.2264
    148  O         74.8390   26.0230   20.6980 O.2   202  TYR202     -0.2867
    149  CB        72.2640   24.4710   22.1410 C.3   202  TYR202      0.0534
    150  CG        70.9140   24.7130   22.8440 C.ar  202  TYR202     -0.0201
    151  CD1       70.5650   25.9740   23.3540 C.ar  202  TYR202     -0.0009
    152  CD2       69.9920   23.6800   22.9720 C.ar  202  TYR202     -0.0009
    153  CE1       69.2990   26.1890   23.9930 C.ar  202  TYR202      0.0417
    154  CE2       68.7330   23.8810   23.6040 C.ar  202  TYR202      0.0417
    155  CZ        68.4070   25.1390   24.1060 C.ar  202  TYR202      0.1957
    156  OH        67.1750   25.2950   24.6910 O.3   202  TYR202     -0.2866
    157  N         69.3370   30.2620   24.8160 N.3   208  SER208     -0.1202
    158  CA        67.9540   30.4330   25.2560 C.3   208  SER208      0.2020
    159  C         67.1460   30.5670   23.9580 C.2   208  SER208      0.2618
    160  O         67.6340   31.1630   23.0000 O.2   208  SER208     -0.2717
    161  CB        67.8530   31.7000   26.1030 C.3   208  SER208      0.2103
    162  OG        66.5250   31.9670   26.4880 O.3   208  SER208     -0.2182
    163  N         65.9480   29.9930   23.9080 N.am  209  LEU209     -0.1979
    164  CA        65.1720   29.9420   22.6510 C.3   209  LEU209      0.1596
    165  C         63.8460   30.6910   22.8010 C.2   209  LEU209      0.2287
    166  O         62.9880   30.2800   23.5730 O.2   209  LEU209     -0.2864
    167  CB        64.8900   28.4900   22.2340 C.3   209  LEU209      0.0297
    168  CG        66.0960   27.5760   22.0500 C.3   209  LEU209      0.0022
    169  CD1       65.6620   26.2060   21.5350 C.3   209  LEU209      0.0001
    170  CD2       67.1900   28.2370   21.1570 C.3   209  LEU209      0.0001
    171  N         72.2620   34.3110   30.1030 N.3   282  GLU282     -0.1231
    172  CA        71.5360   33.2510   29.3880 C.3   282  GLU282      0.1699
    173  C         70.6450   33.8700   28.3000 C.2   282  GLU282      0.2592
    174  O         70.5510   33.3660   27.1810 O.2   282  GLU282     -0.2718
    175  CB        70.6960   32.3900   30.3760 C.3   282  GLU282      0.0402
    176  CG        70.0160   31.1570   29.7280 C.3   282  GLU282      0.1161
    177  CD        69.6580   30.0750   30.7200 C.2   282  GLU282      0.3649
    178  OE1       70.0780   30.1550   31.8990 O.co2 282  GLU282     -0.2457
    179  OE2       68.9360   29.1330   30.3290 O.co2 282  GLU282     -0.2457
    180  N         70.0160   34.9880   28.6230 N.am  283  ARG283     -0.1980
    181  CA        69.0980   35.5960   27.6700 C.3   283  ARG283      0.1597
    182  C         69.6580   36.7690   26.8690 C.2   283  ARG283      0.2287
    183  O         68.8910   37.5600   26.3200 O.2   283  ARG283     -0.2864
    184  CB        67.7760   35.9310   28.3490 C.3   283  ARG283      0.0334
    185  CG        67.1070   34.6760   28.8590 C.3   283  ARG283      0.0492
    186  CD        65.9520   34.9950   29.7760 C.3   283  ARG283      0.2205
    187  NE        64.7360   35.2910   29.0330 N.pl3 283  ARG283     -0.0865
    188  CZ        63.7490   34.4140   28.7980 C.cat 283  ARG283      0.5346
    189  NH1       63.7990   33.1540   29.2440 N.pl3 283  ARG283      0.1354
    190  NH2       62.6920   34.8060   28.1040 N.pl3 283  ARG283      0.1354
    191  N         68.3050   37.3780   23.4600 N.3   286  ARG286     -0.1245
    192  CA        66.8660   37.6810   23.4290 C.3   286  ARG286      0.1563
    193  C         66.6580   39.1950   23.6100 C.2   286  ARG286      0.2260
    194  O         65.8340   39.7960   22.9090 O.2   286  ARG286     -0.2867
    195  CB        66.0970   36.9060   24.5140 C.3   286  ARG286      0.0307
    196  CG        66.4760   35.4080   24.6680 C.3   286  ARG286      0.0489
    197  CD        65.5010   34.4080   24.0140 C.3   286  ARG286      0.2205
    198  NE        64.0740   34.6330   24.3240 N.pl3 286  ARG286     -0.0865
    199  CZ        63.3040   33.8530   25.0860 C.cat 286  ARG286      0.5346
    200  NH1       62.0220   34.1590   25.2400 N.pl3 286  ARG286      0.1354
    201  NH2       63.7890   32.7700   25.6920 N.pl3 286  ARG286      0.1354
@<TRIPOS>BOND
     1    83    82    2
     2    90    91    1
     3    82    81    1
     4    92    91    1
     5    92    93    2
     6    91    94    1
     7    81    80    1
     8    81    84    1
     9    94    95    1
    10    84    85    1
    11    70    71   ar
    12    70    68   ar
    13    71    69   ar
    14    95    96    1
    15    95    97    1
    16   145   146    1
    17    85    87   ar
    18    85    86   ar
    19    68    66   ar
    20   147   148    2
    21   147   146    1
    22    87    89   ar
    23   146   149    1
    24    86    88   ar
    25    69    67   ar
    26   170   168    1
    27    66    67   ar
    28    66    65    1
    29   169   168    1
    30    74    75    2
    31    74    73    1
    32    89    88   ar
    33    64    63    2
    34   168   167    1
    35   149   150    1
    36   167   164    1
    37    65    62    1
    38   164   165    1
    39   164   163    1
    40    73    72    1
    41    73    76    1
    42    22    21    2
    43   165   166    2
    44   150   152   ar
    45   150   151   ar
    46    63    72   am
    47    63    62    1
    48   194   193    2
    49   152   154   ar
    50   160   159    2
    51    78    76    1
    52   151   153   ar
    53   192   191    1
    54   192   193    1
    55   192   195    1
    56    21    20    1
    57    62    61    1
    58    16    17   ar
    59    16    14   ar
    60    18    17    1
    61   154   155   ar
    62    76    77    1
    63   163   159   am
    64    20    23    1
    65    20    19    1
    66   159   158    1
    67   153   155   ar
    68   197   198    1
    69   197   196    1
    70    23    24    1
    71   155   156    1
    72    61    56   am
    73    17    15   ar
    74    14    12   ar
    75   198   199    2
    76    27    28    1
    77   195   196    1
    78    10     9    2
    79    79    77    1
    80    26    24   am
    81   157   158    1
    82    24    25    2
    83    28    29    1
    84   199   200    1
    85   199   201    1
    86    19     9   am
    87   158   161    1
    88     9     8    1
    89    56    55    1
    90    56    57    2
    91    15    13   ar
    92    12    13   ar
    93    12    11    1
    94   104   103    1
    95   104   105    1
    96    29    31   am
    97    29    30    2
    98    55    54    1
    99    55    58    1
   100    98    99    1
   101   161   162    1
   102    31    32    1
   103    11     8    1
   104    60    58    1
   105   183   182    2
   106   103   102    1
   107    99   102    1
   108    99   100    1
   109     8     7    1
   110   182   181    1
   111    58    59    1
   112    32    35    1
   113    32    33    1
   114    35    36    1
   115   174   173    2
   116   106   107    1
   117     7     3   am
   118    53    52    1
   119   101   100    2
   120   181   184    1
   121   181   180    1
   122    37    36    1
   123    37    38    1
   124   190   188    1
   125   107   108    1
   126   107   110    1
   127   173   180   am
   128   173   172    1
   129   184   185    1
   130   115   113   ar
   131   115   116   ar
   132    33    34    2
   133    33    40   am
   134    39    38    1
   135   113   111   ar
   136     3     4    2
   137     3     2    1
   138   108   109    2
   139   116   114   ar
   140   188   187    2
   141   188   189    1
   142   185   186    1
   143   187   186    1
   144    40    41    1
   145    52    49    1
   146   111   110    1
   147   111   112   ar
   148    50    51    2
   149    50    49    1
   150     2     5    1
   151     2     1    1
   152   114   112   ar
   153   172   171    1
   154   172   175    1
   155    48    49    1
   156    48    42   am
   157   176   175    1
   158   176   177    1
   159     5     6    1
   160    47    45   ar
   161   179   177   ar
   162    41    42    1
   163    41    44    1
   164    42    43    2
   165   177   178   ar
   166    45    44    1
   167    45    46   ar
   168   128   127    2
   169   143   142   ar
   170   125   126    1
   171   125   119   am
   172   126   127    1
   173   127   129   am
   174   123   121    1
   175   142   144   ar
   176   142   141    1
   177   118   119    1
   178   118   121    1
   179   118   117    1
   180   141   138    1
   181   119   120    2
   182   129   130    1
   183   121   122    1
   184   122   124    1
   185   138   139    1
   186   138   137    1
   187   130   133    1
   188   130   131    1
   189   136   134    1
   190   139   140    2
   191   133   134    1
   192   133   135    1
   193   131   132    2
