@<TRIPOS>MOLECULE
tmp/3g5aE01.pdb
 172 165 0 0 0
SMALL
GASTEIGER

@<TRIPOS>ATOM
      1  N         54.9150   19.1720   30.3810 N.3    60  SER60      -0.1217
      2  CA        55.0320   20.2050   29.3350 C.3    60  SER60       0.1889
      3  C         56.4300   20.2020   28.6570 C.2    60  SER60       0.2288
      4  O         57.4660   20.4710   29.2830 O.2    60  SER60      -0.2866
      5  CB        54.5590   21.6090   29.7730 C.3    60  SER60       0.2089
      6  OG        55.5280   22.2200   30.5980 O.3    60  SER60      -0.2183
      7  N         49.0900   31.5350   26.0920 N.3   129  MET129     -0.1245
      8  CA        49.4830   30.2350   26.6020 C.3   129  MET129      0.1570
      9  C         48.4010   29.7250   27.5530 C.2   129  MET129      0.2261
     10  O         48.0050   28.5470   27.4780 O.2   129  MET129     -0.2867
     11  CB        50.8390   30.3140   27.3080 C.3   129  MET129      0.0387
     12  CG        52.0210   30.2990   26.3520 C.3   129  MET129      0.0595
     13  SD        52.3520   28.6180   25.7970 S.3   129  MET129     -0.1393
     14  CE        53.2730   27.9630   27.1990 C.3   129  MET129      0.0692
     15  N         46.1540   26.2230   27.1850 N.3   133  PHE133     -0.1241
     16  CA        46.0890   25.2130   28.2180 C.3   133  PHE133      0.1605
     17  C         44.6770   24.9940   28.6970 C.2   133  PHE133      0.2264
     18  O         44.3340   23.8850   29.1100 O.2   133  PHE133     -0.2867
     19  CB        47.0320   25.5220   29.3740 C.3   133  PHE133      0.0534
     20  CG        48.3980   24.9250   29.1850 C.ar  133  PHE133     -0.0203
     21  CD1       48.6410   23.6060   29.5470 C.ar  133  PHE133     -0.0042
     22  CD2       49.4160   25.6620   28.5800 C.ar  133  PHE133     -0.0042
     23  CE1       49.8920   23.0160   29.3580 C.ar  133  PHE133     -0.0003
     24  CE2       50.6860   25.0920   28.3800 C.ar  133  PHE133     -0.0003
     25  CZ        50.9270   23.7560   28.7650 C.ar  133  PHE133     -0.0000
     26  N         50.9070   19.6080   36.0650 N.3   146  ILE146     -0.1245
     27  CA        51.6700   19.6410   34.8100 C.3   146  ILE146      0.1561
     28  C         53.1350   19.9440   35.0970 C.2   146  ILE146      0.2260
     29  O         53.4460   20.8820   35.8350 O.2   146  ILE146     -0.2867
     30  CB        51.0920   20.6480   33.7750 C.3   146  ILE146      0.0252
     31  CG1       49.6470   20.2670   33.4230 C.3   146  ILE146      0.0019
     32  CG2       52.0040   20.7530   32.5230 C.3   146  ILE146      0.0019
     33  CD1       49.0310   20.9310   32.1720 C.3   146  ILE146      0.0001
     34  N         56.8850   21.2680   34.5510 N.3   148  ILE148     -0.1245
     35  CA        57.4950   22.4190   33.8620 C.3   148  ILE148      0.1561
     36  C         59.0040   22.5450   34.1180 C.2   148  ILE148      0.2260
     37  O         59.4740   22.4610   35.2650 O.2   148  ILE148     -0.2867
     38  CB        56.8020   23.7860   34.2680 C.3   148  ILE148      0.0252
     39  CG1       55.2720   23.6410   34.2930 C.3   148  ILE148      0.0019
     40  CG2       57.2490   24.9390   33.3450 C.3   148  ILE148      0.0019
     41  CD1       54.5460   24.7820   34.9960 C.3   148  ILE148      0.0001
     42  N         61.1420   24.9630   34.2400 N.3   150  ILE150     -0.1245
     43  CA        61.4830   26.3540   34.5410 C.3   150  ILE150      0.1561
     44  C         62.4820   26.3660   35.7120 C.2   150  ILE150      0.2260
     45  O         62.5120   25.4390   36.5110 O.2   150  ILE150     -0.2867
     46  CB        60.2030   27.1390   34.8870 C.3   150  ILE150      0.0252
     47  CG1       60.5190   28.6160   35.1590 C.3   150  ILE150      0.0019
     48  CG2       59.4580   26.4360   36.0790 C.3   150  ILE150      0.0019
     49  CD1       59.4650   29.5710   34.6540 C.3   150  ILE150      0.0001
     50  N         65.2460   31.9600   35.5690 N.3   154  ASP154     -0.1225
     51  CA        64.3970   32.4380   34.4660 C.3   154  ASP154      0.1790
     52  C         63.5630   33.6430   34.8670 C.2   154  ASP154      0.2440
     53  O         63.3780   33.8880   36.0600 O.2   154  ASP154     -0.2733
     54  CB        63.4500   31.3490   33.9280 C.3   154  ASP154      0.1423
     55  CG        64.1970   30.1580   33.3660 C.2   154  ASP154      0.3668
     56  OD1       65.3250   30.3350   32.8440 O.co2 154  ASP154     -0.2456
     57  OD2       63.6790   29.0340   33.5030 O.co2 154  ASP154     -0.2456
     58  N         63.0790   34.4180   33.8730 N.am  155  PRO155     -0.2718
     59  CA        62.1760   35.5270   34.1670 C.3   155  PRO155      0.1535
     60  C         60.9770   35.1510   35.0550 C.2   155  PRO155      0.2598
     61  O         60.2800   34.1620   34.7840 O.2   155  PRO155     -0.2715
     62  CB        61.7210   35.9810   32.7730 C.3   155  PRO155      0.0310
     63  CG        62.9410   35.7400   31.9170 C.3   155  PRO155      0.0237
     64  CD        63.4430   34.3840   32.4350 C.3   155  PRO155      0.0939
     65  N         60.7670   35.9620   36.1000 N.am  156  PHE156     -0.1974
     66  CA        59.7450   35.7250   37.1420 C.3   156  PHE156      0.1639
     67  C         59.9210   34.3690   37.8120 C.2   156  PHE156      0.2290
     68  O         58.9520   33.7520   38.2450 O.2   156  PHE156     -0.2864
     69  CB        58.3180   35.8840   36.5850 C.3   156  PHE156      0.0560
     70  CG        57.8470   37.3190   36.4880 C.ar  156  PHE156     -0.0200
     71  CD1       58.7160   38.3870   36.7230 C.ar  156  PHE156     -0.0042
     72  CD2       56.5370   37.5960   36.1390 C.ar  156  PHE156     -0.0042
     73  CE1       58.2830   39.6980   36.6310 C.ar  156  PHE156     -0.0003
     74  CE2       56.0850   38.9030   36.0430 C.ar  156  PHE156     -0.0003
     75  CZ        56.9640   39.9570   36.2900 C.ar  156  PHE156     -0.0000
     76  N         60.1190   33.6160   42.5900 N.3   159  HIS159     -0.1226
     77  CA        58.9880   33.2930   43.4620 C.3   159  HIS159      0.1752
     78  C         58.4680   31.8560   43.3290 C.2   159  HIS159      0.2595
     79  O         57.5790   31.4460   44.0770 O.2   159  HIS159     -0.2718
     80  CB        57.8130   34.2650   43.1740 C.3   159  HIS159      0.0759
     81  CG        56.9640   33.8680   41.9960 C.ar  159  HIS159      0.0818
     82  ND1       57.3780   34.0320   40.6900 N.ar  159  HIS159     -0.2268
     83  CD2       55.7220   33.3260   41.9290 C.ar  159  HIS159      0.1154
     84  CE1       56.4320   33.6090   39.8700 C.ar  159  HIS159      0.1986
     85  NE2       55.4180   33.1690   40.5950 N.ar  159  HIS159     -0.2212
     86  N         59.0100   31.0870   42.3900 N.am  160  LEU160     -0.1980
     87  CA        58.4220   29.7650   42.0900 C.3   160  LEU160      0.1596
     88  C         58.6970   28.6990   43.1490 C.2   160  LEU160      0.2287
     89  O         59.6790   28.7860   43.8780 O.2   160  LEU160     -0.2864
     90  CB        58.8650   29.2700   40.7250 C.3   160  LEU160      0.0297
     91  CG        58.4680   30.1170   39.5320 C.3   160  LEU160      0.0022
     92  CD1       59.0300   29.4950   38.2900 C.3   160  LEU160      0.0001
     93  CD2       56.9590   30.2270   39.4410 C.3   160  LEU160      0.0001
     94  N         48.7400   27.1910   39.6550 N.3   166  THR166     -0.1203
     95  CA        48.7650   28.2360   38.6200 C.3   166  THR166      0.1994
     96  C         48.2160   29.5700   39.1810 C.2   166  THR166      0.2617
     97  O         47.6920   29.5960   40.3060 O.2   166  THR166     -0.2717
     98  CB        47.8800   27.8380   37.4020 C.3   166  THR166      0.1784
     99  OG1       46.5790   27.4190   37.8540 O.3   166  THR166     -0.2211
    100  CG2       48.5370   26.6920   36.5560 C.3   166  THR166      0.0376
    101  N         48.3400   30.6480   38.3990 N.am  167  ASP167     -0.1973
    102  CA        47.7910   31.9790   38.7340 C.3   167  ASP167      0.1709
    103  C         46.3350   32.1050   38.3010 C.2   167  ASP167      0.2293
    104  O         45.8250   31.2480   37.5790 O.2   167  ASP167     -0.2864
    105  CB        48.5890   33.0780   38.0310 C.3   167  ASP167      0.1436
    106  CG        49.9530   33.2550   38.6040 C.2   167  ASP167      0.3671
    107  OD1       50.0780   33.1550   39.8490 O.co2 167  ASP167     -0.2456
    108  OD2       50.8990   33.5150   37.8100 O.co2 167  ASP167     -0.2456
    109  N         44.8230   33.9430   36.0510 N.3   169  ASN169     -0.1225
    110  CA        44.5750   34.0130   34.6020 C.3   169  ASN169      0.1785
    111  C         44.5590   32.6490   33.9210 C.2   169  ASN169      0.2597
    112  O         43.9710   32.4660   32.8460 O.2   169  ASN169     -0.2718
    113  CB        45.5700   34.9610   33.8990 C.3   169  ASN169      0.1169
    114  CG        47.0260   34.6330   34.1970 C.2   169  ASN169      0.2627
    115  OD1       47.4100   34.4300   35.3460 O.2   169  ASN169     -0.2716
    116  ND2       47.8580   34.6140   33.1470 N.am  169  ASN169     -0.0877
    117  N         45.1790   31.6930   34.5990 N.am  170  TRP170     -0.1976
    118  CA        45.3820   30.3620   34.1080 C.3   170  TRP170      0.1640
    119  C         44.2780   29.3990   34.5100 C.2   170  TRP170      0.2290
    120  O         43.5990   29.6170   35.5160 O.2   170  TRP170     -0.2864
    121  CB        46.7140   29.8650   34.6580 C.3   170  TRP170      0.0576
    122  CG        47.8130   30.2640   33.7940 C.ar  170  TRP170      0.0006
    123  CD1       48.3940   31.4950   33.7330 C.ar  170  TRP170      0.0946
    124  CD2       48.4850   29.4430   32.8420 C.ar  170  TRP170      0.0152
    125  NE1       49.3980   31.4940   32.8050 N.ar  170  TRP170     -0.2442
    126  CE2       49.4670   30.2510   32.2220 C.ar  170  TRP170      0.0810
    127  CE3       48.3550   28.0960   32.4430 C.ar  170  TRP170      0.0012
    128  CZ2       50.3340   29.7600   31.2310 C.ar  170  TRP170      0.0191
    129  CZ3       49.2140   27.6100   31.4530 C.ar  170  TRP170      0.0001
    130  CH2       50.1890   28.4440   30.8510 C.ar  170  TRP170      0.0015
    131  N         45.3220   24.2540   37.7330 N.3   173  PHE173     -0.1241
    132  CA        46.0560   23.0280   37.9910 C.3   173  PHE173      0.1605
    133  C         47.2840   23.3480   38.8510 C.2   173  PHE173      0.2264
    134  O         47.6140   24.5150   39.0830 O.2   173  PHE173     -0.2867
    135  CB        46.4320   22.2630   36.6700 C.3   173  PHE173      0.0534
    136  CG        47.2800   23.0730   35.6850 C.ar  173  PHE173     -0.0203
    137  CD1       46.6870   23.7520   34.6190 C.ar  173  PHE173     -0.0042
    138  CD2       48.6730   23.1210   35.8140 C.ar  173  PHE173     -0.0042
    139  CE1       47.4770   24.4820   33.7020 C.ar  173  PHE173     -0.0003
    140  CE2       49.4450   23.8220   34.9210 C.ar  173  PHE173     -0.0003
    141  CZ        48.8490   24.5280   33.8720 C.ar  173  PHE173     -0.0000
    142  N         51.2050   23.4100   39.0930 N.3   175  ARG175     -0.1245
    143  CA        52.5120   23.4010   38.4780 C.3   175  ARG175      0.1563
    144  C         53.4600   22.5240   39.2460 C.2   175  ARG175      0.2260
    145  O         53.6570   22.7110   40.4540 O.2   175  ARG175     -0.2867
    146  CB        53.0740   24.8190   38.3910 C.3   175  ARG175      0.0307
    147  CG        52.2800   25.7180   37.4560 C.3   175  ARG175      0.0489
    148  CD        52.8460   27.1230   37.4500 C.3   175  ARG175      0.2205
    149  NE        52.4310   27.8770   38.6340 N.pl3 175  ARG175     -0.0865
    150  CZ        52.7300   29.1540   38.8600 C.cat 175  ARG175      0.5346
    151  NH1       53.4700   29.8310   37.9950 N.pl3 175  ARG175      0.1354
    152  NH2       52.2700   29.7560   39.9410 N.pl3 175  ARG175      0.1354
    153  N         57.3340   21.8590   39.3690 N.3   177  GLN177     -0.1245
    154  CA        58.5470   22.5710   38.9590 C.3   177  GLN177      0.1566
    155  C         59.7700   22.0320   39.7360 C.2   177  GLN177      0.2260
    156  O         60.2740   22.6700   40.6510 O.2   177  GLN177     -0.2867
    157  CB        58.3320   24.0920   39.1530 C.3   177  GLN177      0.0367
    158  CG        57.2070   24.6350   38.2620 C.3   177  GLN177      0.0905
    159  CD        56.6490   25.9960   38.6600 C.2   177  GLN177      0.2608
    160  OE1       56.2450   26.7670   37.7860 O.2   177  GLN177     -0.2717
    161  NE2       56.5660   26.2810   39.9660 N.am  177  GLN177     -0.0878
    162  N         70.0160   34.9880   28.6230 N.3   283  ARG283     -0.1245
    163  CA        69.0980   35.5960   27.6700 C.3   283  ARG283      0.1563
    164  C         69.6580   36.7690   26.8690 C.2   283  ARG283      0.2260
    165  O         68.8910   37.5600   26.3200 O.2   283  ARG283     -0.2867
    166  CB        67.7760   35.9310   28.3490 C.3   283  ARG283      0.0307
    167  CG        67.1070   34.6760   28.8590 C.3   283  ARG283      0.0489
    168  CD        65.9520   34.9950   29.7760 C.3   283  ARG283      0.2205
    169  NE        64.7360   35.2910   29.0330 N.pl3 283  ARG283     -0.0865
    170  CZ        63.7490   34.4140   28.7980 C.cat 283  ARG283      0.5346
    171  NH1       63.7990   33.1540   29.2440 N.pl3 283  ARG283      0.1354
    172  NH2       62.6920   34.8060   28.1040 N.pl3 283  ARG283      0.1354
@<TRIPOS>BOND
     1    13    12    1
     2    13    14    1
     3     7     8    1
     4   165   164    2
     5    12    11    1
     6     8    11    1
     7     8     9    1
     8   164   163    1
     9    15    16    1
    10    10     9    2
    11   163   166    1
    12   163   162    1
    13   172   170    1
    14    16    17    1
    15    16    19    1
    16   166   167    1
    17    24    22   ar
    18    24    25   ar
    19    22    20   ar
    20     3     4    2
    21     3     2    1
    22    17    18    2
    23    25    23   ar
    24   170   169    2
    25   170   171    1
    26   167   168    1
    27   169   168    1
    28    20    19    1
    29    20    21   ar
    30     2     5    1
    31     2     1    1
    32    23    21   ar
    33     5     6    1
    34   130   128   ar
    35   130   129   ar
    36   128   126   ar
    37   129   127   ar
    38    63    64    1
    39    63    62    1
    40    33    31    1
    41   126   125   ar
    42   126   124   ar
    43    64    58    1
    44   127   124   ar
    45    32    30    1
    46    62    59    1
    47   125   123   ar
    48   124   122   ar
    49    56    55   ar
    50   112   111    2
    51   116   114   am
    52    40    38    1
    53    55    57   ar
    54    55    54    1
    55    31    30    1
    56   139   141   ar
    57   139   137   ar
    58   123   122   ar
    59    30    27    1
    60   122   121    1
    61    35    36    1
    62    35    38    1
    63    35    34    1
    64   141   140   ar
    65    58    59    1
    66    58    52   am
    67   113   114    1
    68   113   110    1
    69   111   117   am
    70   111   110    1
    71    54    51    1
    72   118   119    1
    73   118   117    1
    74   118   121    1
    75    36    37    2
    76    59    60    1
    77   114   115    2
    78    42    43    1
    79    38    39    1
    80    39    41    1
    81    51    52    1
    82    51    50    1
    83   119   120    2
    84    43    46    1
    85    43    44    1
    86   110   109    1
    87   137   136   ar
    88    49    47    1
    89    61    60    2
    90    27    28    1
    91    27    26    1
    92    52    53    2
    93    46    47    1
    94    46    48    1
    95   140   138   ar
    96    60    65   am
    97    28    29    2
    98   136   138   ar
    99   136   135    1
   100    44    45    2
   101    74    72   ar
   102    74    75   ar
   103    65    66    1
   104    72    70   ar
   105    75    73   ar
   106    70    69    1
   107    70    71   ar
   108   100    98    1
   109    69    66    1
   110    73    71   ar
   111   135   132    1
   112    66    67    1
   113    98    99    1
   114    98    95    1
   115   148   147    1
   116   148   149    1
   117   147   146    1
   118   104   103    2
   119   131   132    1
   120   160   159    2
   121   108   106   ar
   122    67    68    2
   123   132   133    1
   124   151   150    1
   125   105   106    1
   126   105   102    1
   127   158   159    1
   128   158   157    1
   129    92    91    1
   130   103   102    1
   131   146   143    1
   132   101   102    1
   133   101    96   am
   134   143   142    1
   135   143   144    1
   136   106   107   ar
   137    95    96    1
   138    95    94    1
   139   149   150    2
   140   159   161   am
   141   133   134    2
   142   150   152    1
   143   154   157    1
   144   154   153    1
   145   154   155    1
   146    96    97    2
   147   144   145    2
   148    93    91    1
   149    91    90    1
   150   155   156    2
   151    84    85   ar
   152    84    82   ar
   153    85    83   ar
   154    82    81   ar
   155    90    87    1
   156    83    81   ar
   157    81    80    1
   158    87    86    1
   159    87    88    1
   160    86    78   am
   161    76    77    1
   162    88    89    2
   163    80    77    1
   164    78    77    1
   165    78    79    2
