@<TRIPOS>MOLECULE
tmp/3g5dA00.pdb
 177 169 0 0 0
SMALL
GASTEIGER

@<TRIPOS>ATOM
      1  N          9.3810  -44.1740   -7.1750 N.3    17  LEU17      -0.1231
      2  CA         9.3360  -43.5160   -5.8680 C.3    17  LEU17       0.1693
      3  C          8.1270  -43.9960   -5.0570 C.2    17  LEU17       0.2592
      4  O          8.2480  -44.2990   -3.8640 O.2    17  LEU17      -0.2718
      5  CB         9.2780  -41.9880   -6.0470 C.3    17  LEU17       0.0284
      6  CG        10.5270  -41.0940   -6.1720 C.3    17  LEU17       0.0019
      7  CD1       11.8020  -41.8350   -6.5350 C.3    17  LEU17       0.0001
      8  CD2       10.2670  -39.9370   -7.1320 C.3    17  LEU17       0.0001
      9  N          6.9680  -44.0510   -5.7150 N.am   18  GLY18      -0.1957
     10  CA         5.7150  -44.4990   -5.0970 C.3    18  GLY18       0.1869
     11  C          4.7630  -45.1950   -6.0640 C.2    18  GLY18       0.2309
     12  O          4.9720  -45.1790   -7.2840 O.2    18  GLY18      -0.2863
     13  N          4.4170  -42.4640   -8.6170 N.3    22  VAL22      -0.1245
     14  CA         5.3860  -41.4270   -9.0040 C.3    22  VAL22       0.1561
     15  C          6.8090  -41.9470   -9.2340 C.2    22  VAL22       0.2260
     16  O          7.2920  -42.7820   -8.4840 O.2    22  VAL22      -0.2867
     17  CB         5.4020  -40.2610   -7.9840 C.3    22  VAL22       0.0252
     18  CG1        6.2330  -39.0960   -8.5000 C.3    22  VAL22       0.0019
     19  CG2        3.9850  -39.7920   -7.6940 C.3    22  VAL22       0.0019
     20  N         10.0530  -35.2600  -11.7610 N.3    34  ALA34      -0.1231
     21  CA         9.2040  -36.2840  -11.2010 C.3    34  ALA34       0.1694
     22  C          8.0250  -36.5060  -12.1380 C.2    34  ALA34       0.2592
     23  O          7.4840  -35.5490  -12.7060 O.2    34  ALA34      -0.2718
     24  CB         8.7280  -35.8980   -9.7830 C.3    34  ALA34       0.0304
     25  N          7.6280  -37.7680  -12.2940 N.am   35  ILE35      -0.1966
     26  CA         6.5930  -38.1450  -13.2580 C.3    35  ILE35       0.1727
     27  C          5.5000  -38.9860  -12.6040 C.2    35  ILE35       0.2616
     28  O          5.7770  -40.0210  -12.0240 O.2    35  ILE35      -0.2715
     29  CB         7.2030  -38.9100  -14.4950 C.3    35  ILE35       0.0290
     30  CG1        8.4060  -38.1580  -15.0840 C.3    35  ILE35       0.0022
     31  CG2        6.1450  -39.1550  -15.5780 C.3    35  ILE35       0.0023
     32  CD1        9.4700  -39.0520  -15.6610 C.3    35  ILE35       0.0001
     33  N          4.2580  -38.5350  -12.7190 N.am   36  LYS36      -0.1977
     34  CA         3.1200  -39.2330  -12.1390 C.3    36  LYS36       0.1596
     35  C          2.2440  -39.9060  -13.2030 C.2    36  LYS36       0.2287
     36  O          1.4540  -39.2460  -13.8850 O.2    36  LYS36      -0.2864
     37  CB         2.2900  -38.2640  -11.3020 C.3    36  LYS36       0.0298
     38  CG         1.1580  -38.8910  -10.5150 C.3    36  LYS36       0.0038
     39  CD         0.4520  -37.8460   -9.6730 C.3    36  LYS36       0.0206
     40  CE        -0.5780  -38.5110   -8.7650 C.3    36  LYS36       0.1093
     41  NZ        -0.8860  -37.6900   -7.5530 N.3    36  LYS36      -0.1314
     42  N         -6.0660  -32.4910  -12.0600 N.3    46  GLU46      -0.1245
     43  CA        -4.9770  -32.0840  -11.1530 C.3    46  GLU46       0.1567
     44  C         -3.9840  -31.1620  -11.8520 C.2    46  GLU46       0.2260
     45  O         -3.5860  -30.1300  -11.3080 O.2    46  GLU46      -0.2867
     46  CB        -4.2290  -33.3010  -10.5690 C.3    46  GLU46       0.0388
     47  CG        -2.9150  -32.9140   -9.8550 C.3    46  GLU46       0.1160
     48  CD        -2.2950  -34.0370   -9.0330 C.2    46  GLU46       0.3649
     49  OE1       -1.6070  -33.7320   -8.0270 O.co2  46  GLU46      -0.2457
     50  OE2       -2.4960  -35.2170   -9.3800 O.co2  46  GLU46      -0.2457
     51  N         -2.8880  -27.1810  -11.4780 N.3    50  MET50      -0.1245
     52  CA        -1.4410  -26.9140  -11.4170 C.3    50  MET50       0.1570
     53  C         -0.9090  -25.9730  -12.5040 C.2    50  MET50       0.2261
     54  O          0.1260  -25.3480  -12.3100 O.2    50  MET50      -0.2867
     55  CB        -0.6450  -28.2180  -11.4430 C.3    50  MET50       0.0387
     56  CG        -0.6050  -28.9470  -10.0970 C.3    50  MET50       0.0595
     57  SD         0.1330  -30.5640  -10.2510 S.3    50  MET50      -0.1393
     58  CE         1.8550  -30.2100   -9.9070 C.3    50  MET50       0.0692
     59  N          4.9090  -27.2020   -5.4800 N.3    59  VAL59      -0.1245
     60  CA         5.5940  -28.0530   -6.4750 C.3    59  VAL59       0.1561
     61  C          5.2320  -27.5900   -7.8940 C.2    59  VAL59       0.2260
     62  O          4.0450  -27.4250   -8.2300 O.2    59  VAL59      -0.2867
     63  CB         5.2650  -29.5800   -6.2530 C.3    59  VAL59       0.0252
     64  CG1        5.8830  -30.4820   -7.3500 C.3    59  VAL59       0.0019
     65  CG2        5.7030  -30.0440   -4.8580 C.3    59  VAL59       0.0019
     66  N          1.9600  -36.6700  -15.6640 N.3    72  ILE72      -0.1245
     67  CA         2.1480  -35.3040  -15.1810 C.3    72  ILE72       0.1561
     68  C          3.6270  -35.1790  -14.7790 C.2    72  ILE72       0.2260
     69  O          4.2000  -36.1010  -14.1920 O.2    72  ILE72      -0.2867
     70  CB         1.1570  -34.9380  -14.0400 C.3    72  ILE72       0.0252
     71  CG1       -0.2920  -35.2380  -14.4730 C.3    72  ILE72       0.0019
     72  CG2        1.3030  -33.4710  -13.6460 C.3    72  ILE72       0.0019
     73  CD1       -1.3670  -35.0550  -13.3890 C.3    72  ILE72       0.0001
     74  N          6.7540  -32.6950  -12.9960 N.3    74  THR74      -0.1203
     75  CA         7.0630  -31.5710  -12.1000 C.3    74  THR74       0.1994
     76  C          8.5590  -31.5030  -11.7680 C.2    74  THR74       0.2618
     77  O          9.3190  -32.4280  -12.0710 O.2    74  THR74      -0.2717
     78  CB         6.2880  -31.6770  -10.7410 C.3    74  THR74       0.1784
     79  OG1        6.8440  -32.7210   -9.9410 O.3    74  THR74      -0.2211
     80  CG2        4.7980  -31.9410  -10.9470 C.3    74  THR74       0.0376
     81  N          8.9760  -30.4130  -11.1260 N.am   75  GLU75      -0.1965
     82  CA        10.2470  -30.3840  -10.3820 C.3    75  GLU75       0.1733
     83  C         10.3820  -31.6070   -9.4710 C.2    75  GLU75       0.2616
     84  O          9.3810  -32.1710   -9.0090 O.2    75  GLU75      -0.2715
     85  CB        10.3930  -29.0870   -9.5680 C.3    75  GLU75       0.0429
     86  CG         9.5080  -28.9790   -8.3200 C.3    75  GLU75       0.1163
     87  CD         9.6490  -27.6510   -7.6210 C.2    75  GLU75       0.3649
     88  OE1        8.6420  -26.9240   -7.5450 O.co2  75  GLU75      -0.2457
     89  OE2       10.7650  -27.3220   -7.1510 O.co2  75  GLU75      -0.2457
     90  N         11.6210  -32.0300   -9.2500 N.am   76  TYR76      -0.1960
     91  CA        11.9050  -33.1470   -8.3700 C.3    76  TYR76       0.1771
     92  C         12.2950  -32.6120   -6.9970 C.2    76  TYR76       0.2619
     93  O         13.1750  -31.7320   -6.8790 O.2    76  TYR76      -0.2715
     94  CB        13.0090  -34.0420   -8.9330 C.3    76  TYR76       0.0574
     95  CG        13.4220  -35.1630   -8.0070 C.ar   76  TYR76      -0.0198
     96  CD1       12.5210  -36.1910   -7.6710 C.ar   76  TYR76      -0.0009
     97  CD2       14.6990  -35.1870   -7.4380 C.ar   76  TYR76      -0.0009
     98  CE1       12.8800  -37.2110   -6.8070 C.ar   76  TYR76       0.0417
     99  CE2       15.0800  -36.2340   -6.5630 C.ar   76  TYR76       0.0417
    100  CZ        14.1650  -37.2350   -6.2620 C.ar   76  TYR76       0.1957
    101  OH        14.5220  -38.2590   -5.3890 O.3    76  TYR76      -0.2866
    102  N         11.6130  -33.1450   -5.9750 N.am   77  MET77      -0.1963
    103  CA        11.8900  -32.8130   -4.5850 C.3    77  MET77       0.1736
    104  C         12.7130  -33.9220   -3.9750 C.2    77  MET77       0.2617
    105  O         12.2080  -35.0410   -3.7610 O.2    77  MET77      -0.2715
    106  CB        10.5790  -32.5990   -3.8210 C.3    77  MET77       0.0427
    107  CG         9.7200  -31.5220   -4.4670 C.3    77  MET77       0.0599
    108  SD        10.5310  -29.9080   -4.4950 S.3    77  MET77      -0.1393
    109  CE        10.8820  -29.6520   -2.7650 C.3    77  MET77       0.0692
    110  N         13.9810  -33.6070   -3.7120 N.am   78  SER78      -0.1936
    111  CA        15.0180  -34.6180   -3.3810 C.3    78  SER78       0.2055
    112  C         14.8560  -35.4250   -2.0880 C.2    78  SER78       0.2643
    113  O         15.4580  -36.4840   -1.9550 O.2    78  SER78      -0.2714
    114  CB        16.4180  -33.9790   -3.3950 C.3    78  SER78       0.2130
    115  OG        16.4620  -32.8560   -2.5290 O.3    78  SER78      -0.2179
    116  N         14.0690  -34.9250   -1.1340 N.am   79  LYS79      -0.1963
    117  CA        14.0140  -35.5470    0.2080 C.3    79  LYS79       0.1728
    118  C         12.7140  -36.2800    0.5200 C.2    79  LYS79       0.2617
    119  O         12.5130  -36.7180    1.6640 O.2    79  LYS79      -0.2715
    120  CB        14.3000  -34.5140    1.3250 C.3    79  LYS79       0.0311
    121  CG        15.6000  -33.7100    1.2040 C.3    79  LYS79       0.0038
    122  CD        16.8100  -34.5580    1.4870 C.3    79  LYS79       0.0206
    123  CE        18.1030  -33.8210    1.0690 C.3    79  LYS79       0.1093
    124  NZ        19.2260  -34.8070    0.9710 N.3    79  LYS79      -0.1314
    125  N         11.8160  -36.3890   -0.4660 N.am   80  GLY80      -0.1940
    126  CA        10.5470  -37.1340   -0.2860 C.3    80  GLY80       0.2014
    127  C          9.5510  -36.4000    0.6000 C.2    80  GLY80       0.2639
    128  O          9.7730  -35.2480    0.9420 O.2    80  GLY80      -0.2714
    129  N          8.4650  -37.0550    1.0030 N.am   81  CYS81      -0.1967
    130  CA         7.4380  -36.3380    1.7860 C.3    81  CYS81       0.1712
    131  C          7.8700  -35.9500    3.1980 C.2    81  CYS81       0.2296
    132  O          8.7390  -36.6100    3.7880 O.2    81  CYS81      -0.2864
    133  CB         6.0870  -37.0690    1.8140 C.3    81  CYS81       0.0983
    134  SG         6.0760  -38.5310    2.8100 S.3    81  CYS81      -0.0798
    135  N         10.1120  -37.9030    6.3330 N.3    85  PHE85      -0.1241
    136  CA        11.2700  -37.1020    6.7780 C.3    85  PHE85       0.1605
    137  C         11.2670  -36.8860    8.2950 C.2    85  PHE85       0.2264
    138  O         12.3120  -37.0170    8.9690 O.2    85  PHE85      -0.2867
    139  CB        11.2250  -35.7280    6.1010 C.3    85  PHE85       0.0534
    140  CG        12.5200  -34.9790    6.1910 C.ar   85  PHE85      -0.0203
    141  CD1       13.6100  -35.3390    5.3720 C.ar   85  PHE85      -0.0042
    142  CD2       12.6770  -33.9280    7.0920 C.ar   85  PHE85      -0.0042
    143  CE1       14.8570  -34.6460    5.4400 C.ar   85  PHE85      -0.0003
    144  CE2       13.9300  -33.2450    7.1840 C.ar   85  PHE85      -0.0003
    145  CZ        15.0090  -33.6120    6.3370 C.ar   85  PHE85      -0.0000
    146  N          6.3360  -31.9450    0.3700 N.3   129  LEU129     -0.1245
    147  CA         7.5820  -32.5140   -0.1210 C.3   129  LEU129      0.1561
    148  C          8.7940  -31.6680    0.2870 C.2   129  LEU129      0.2260
    149  O          8.7290  -30.4480    0.3270 O.2   129  LEU129     -0.2867
    150  CB         7.5590  -32.6650   -1.6360 C.3   129  LEU129      0.0270
    151  CG         6.8100  -33.8480   -2.2430 C.3   129  LEU129      0.0019
    152  CD1        6.7230  -33.6390   -3.7140 C.3   129  LEU129      0.0001
    153  CD2        7.5270  -35.1780   -1.9360 C.3   129  LEU129      0.0001
    154  N          2.2390  -30.0790   -2.0230 N.3   139  ALA139     -0.1231
    155  CA         2.0480  -31.0180   -3.1250 C.3   139  ALA139      0.1694
    156  C          0.5990  -31.5160   -3.2200 C.2   139  ALA139      0.2592
    157  O         -0.2730  -31.0410   -2.4830 O.2   139  ALA139     -0.2718
    158  CB         3.0180  -32.2150   -2.9810 C.3   139  ALA139      0.0304
    159  N          0.3700  -32.4800   -4.1200 N.am  140  ASP140     -0.1960
    160  CA        -0.8880  -33.2520   -4.2710 C.3   140  ASP140      0.1840
    161  C         -2.1630  -32.4230   -4.4090 C.2   140  ASP140      0.2622
    162  O         -2.9540  -32.3040   -3.4690 O.2   140  ASP140     -0.2715
    163  CB        -1.0390  -34.3370   -3.1880 C.3   140  ASP140      0.1450
    164  CG        -2.0440  -35.4520   -3.5820 C.2   140  ASP140      0.3671
    165  OD1       -1.9180  -36.6010   -3.0690 O.co2 140  ASP140     -0.2456
    166  OD2       -2.9620  -35.1890   -4.4020 O.co2 140  ASP140     -0.2456
    167  N         -2.3710  -31.8900   -5.6120 N.am  141  PHE141     -0.1974
    168  CA        -3.5070  -30.9980   -5.8890 C.3   141  PHE141      0.1639
    169  C         -4.7270  -31.7120   -6.5050 C.2   141  PHE141      0.2290
    170  O         -5.6080  -31.0650   -7.0940 O.2   141  PHE141     -0.2864
    171  CB        -3.0440  -29.8170   -6.7500 C.3   141  PHE141      0.0560
    172  CG        -1.9700  -28.9920   -6.1010 C.ar  141  PHE141     -0.0200
    173  CD1       -2.3010  -27.9070   -5.2920 C.ar  141  PHE141     -0.0042
    174  CD2       -0.6170  -29.3150   -6.2790 C.ar  141  PHE141     -0.0042
    175  CE1       -1.3130  -27.1370   -4.6910 C.ar  141  PHE141     -0.0003
    176  CE2        0.3900  -28.5400   -5.6750 C.ar  141  PHE141     -0.0003
    177  CZ         0.0340  -27.4530   -4.8840 C.ar  141  PHE141     -0.0000
@<TRIPOS>BOND
     1    66    67    1
     2    32    30    1
     3    31    29    1
     4    67    68    1
     5    67    70    1
     6    30    29    1
     7    68    69    2
     8    29    26    1
     9    71    70    1
    10    71    73    1
    11    70    72    1
    12    36    35    2
    13    26    27    1
    14    26    25    1
    15    35    34    1
    16    74    75    1
    17    33    27   am
    18    33    34    1
    19    23    22    2
    20    27    28    2
    21    53    54    2
    22    53    52    1
    23    25    22   am
    24    34    37    1
    25    22    21    1
    26    75    76    1
    27    75    78    1
    28    77    76    2
    29    42    43    1
    30    44    45    2
    31    44    43    1
    32    76    81   am
    33    20    21    1
    34    51    52    1
    35    55    52    1
    36    55    56    1
    37    37    38    1
    38    21    24    1
    39    43    46    1
    40    81    82    1
    41    80    78    1
    42    78    79    1
    43    46    47    1
    44    38    39    1
    45    82    85    1
    46    82    83    1
    47    57    56    1
    48    57    58    1
    49    47    48    1
    50    39    40    1
    51    85    86    1
    52    83    90   am
    53    83    84    2
    54    50    48   ar
    55    90    91    1
    56    15    14    1
    57    15    16    2
    58    48    49   ar
    59    14    13    1
    60    14    17    1
    61    94    91    1
    62    94    95    1
    63    40    41    1
    64    18    17    1
    65    91    92    1
    66    86    87    1
    67    62    61    2
    68    95    96   ar
    69    95    97   ar
    70    17    19    1
    71    61    60    1
    72    96    98   ar
    73    87    88   ar
    74    87    89   ar
    75    97    99   ar
    76    64    63    1
    77    12    11    2
    78     1     2    1
    79     8     6    1
    80   170   169    2
    81    92    93    2
    82    92   102   am
    83    98   100   ar
    84   171   172    1
    85   171   168    1
    86    99   100   ar
    87     7     6    1
    88   169   168    1
    89    60    63    1
    90    60    59    1
    91   174   172   ar
    92   174   176   ar
    93   100   101    1
    94    63    65    1
    95     6     5    1
    96   172   173   ar
    97    11    10    1
    98     5     2    1
    99   102   103    1
   100   168   167    1
   101     2     3    1
   102     9    10    1
   103     9     3   am
   104   176   177   ar
   105   167   161   am
   106   173   175   ar
   107     3     4    2
   108   177   175   ar
   109   103   104    1
   110   103   106    1
   111   108   107    1
   112   108   109    1
   113   107   106    1
   114   161   160    1
   115   161   162    2
   116   166   164   ar
   117   160   159    1
   118   160   163    1
   119   159   156   am
   120   104   105    2
   121   104   110   am
   122   152   151    1
   123   110   111    1
   124   164   163    1
   125   164   165   ar
   126   114   111    1
   127   114   115    1
   128   111   112    1
   129   156   155    1
   130   156   157    2
   131   155   158    1
   132   155   154    1
   133   151   153    1
   134   151   150    1
   135   112   113    2
   136   112   116   am
   137   150   147    1
   138   116   117    1
   139   125   126    1
   140   125   118   am
   141   126   127    1
   142   147   148    1
   143   147   146    1
   144   117   118    1
   145   117   120    1
   146   148   149    2
   147   118   119    2
   148   127   128    2
   149   127   129   am
   150   124   123    1
   151   129   130    1
   152   123   122    1
   153   121   120    1
   154   121   122    1
   155   130   133    1
   156   130   131    1
   157   133   134    1
   158   131   132    2
   159   141   143   ar
   160   141   140   ar
   161   143   145   ar
   162   139   140    1
   163   139   136    1
   164   140   142   ar
   165   135   136    1
   166   145   144   ar
   167   136   137    1
   168   142   144   ar
   169   137   138    2
