@<TRIPOS>MOLECULE
tmp/3g5eA01.pdb
 202 206 0 0 0
SMALL
GASTEIGER

@<TRIPOS>ATOM
      1  N         15.2030   -8.7390   25.7010 N.3    21  TRP21      -0.1241
      2  CA        15.6840   -9.4140   24.4830 C.3    21  TRP21       0.1605
      3  C         16.7580  -10.4120   24.8600 C.2    21  TRP21       0.2264
      4  O         17.7160  -10.0540   25.5440 O.2    21  TRP21      -0.2867
      5  CB        16.2360   -8.3980   23.4810 C.3    21  TRP21       0.0550
      6  CG        16.8670   -9.0270   22.2270 C.ar   21  TRP21       0.0003
      7  CD1       16.4240  -10.1220   21.5180 C.ar   21  TRP21       0.0946
      8  CD2       18.0320   -8.5500   21.5420 C.ar   21  TRP21       0.0152
      9  NE1       17.2810  -10.3730   20.4630 N.ar   21  TRP21      -0.2442
     10  CE2       18.2670   -9.4200   20.4500 C.ar   21  TRP21       0.0810
     11  CE3       18.9170   -7.4760   21.7570 C.ar   21  TRP21       0.0012
     12  CZ2       19.3450   -9.2450   19.5760 C.ar   21  TRP21       0.0191
     13  CZ3       19.9910   -7.2950   20.8790 C.ar   21  TRP21       0.0001
     14  CH2       20.1940   -8.1820   19.7990 C.ar   21  TRP21       0.0015
     15  N          8.5910  -10.1470   19.1120 N.3    48  VAL48      -0.1231
     16  CA         9.7000  -10.8550   18.4340 C.3    48  VAL48       0.1692
     17  C         10.6780  -11.5250   19.4160 C.2    48  VAL48       0.2592
     18  O         11.4650  -12.3860   19.0170 O.2    48  VAL48      -0.2718
     19  CB        10.4140   -9.9110   17.4030 C.3    48  VAL48       0.0266
     20  CG1       11.3810   -8.9340   18.0890 C.3    48  VAL48       0.0020
     21  CG2       11.1240  -10.7070   16.3180 C.3    48  VAL48       0.0020
     22  N         10.6440  -11.1230   20.6920 N.am   49  TYR49      -0.1976
     23  CA        11.5330  -11.7410   21.6950 C.3    49  TYR49       0.1639
     24  C         11.0720  -13.1240   22.1290 C.2    49  TYR49       0.2290
     25  O         11.8230  -13.8440   22.7880 O.2    49  TYR49      -0.2864
     26  CB        11.7100  -10.8410   22.9460 C.3    49  TYR49       0.0560
     27  CG        12.2560   -9.4530   22.6420 C.ar   49  TYR49      -0.0198
     28  CD1       12.8750   -9.1620   21.4190 C.ar   49  TYR49      -0.0009
     29  CD2       12.1860   -8.4380   23.5960 C.ar   49  TYR49      -0.0009
     30  CE1       13.3810   -7.8780   21.1540 C.ar   49  TYR49       0.0417
     31  CE2       12.6770   -7.1480   23.3300 C.ar   49  TYR49       0.0417
     32  CZ        13.2720   -6.8800   22.1260 C.ar   49  TYR49       0.1957
     33  OH        13.7500   -5.6050   21.8700 O.3    49  TYR49      -0.2866
     34  N          6.0410   -5.6150   15.3920 N.3    80  TRP80      -0.1227
     35  CA         7.1010   -6.2080   14.5670 C.3    80  TRP80       0.1737
     36  C          6.9120   -5.8400   13.0810 C.2    80  TRP80       0.2595
     37  O          5.8200   -5.4370   12.6770 O.2    80  TRP80      -0.2718
     38  CB         7.2450   -7.7310   14.8110 C.3    80  TRP80       0.0564
     39  CG         8.4370   -8.2710   14.0160 C.ar   80  TRP80       0.0003
     40  CD1        8.3920   -9.1250   12.9480 C.ar   80  TRP80       0.0946
     41  CD2        9.8080   -7.8580   14.1440 C.ar   80  TRP80       0.0152
     42  NE1        9.6620   -9.3080   12.4390 N.ar   80  TRP80      -0.2442
     43  CE2       10.5450   -8.5320   13.1460 C.ar   80  TRP80       0.0810
     44  CE3       10.4810   -6.9940   15.0150 C.ar   80  TRP80       0.0012
     45  CZ2       11.9350   -8.3740   13.0010 C.ar   80  TRP80       0.0191
     46  CZ3       11.8700   -6.8230   14.8660 C.ar   80  TRP80       0.0001
     47  CH2       12.5750   -7.5270   13.8750 C.ar   80  TRP80       0.0015
     48  N          7.9820   -5.9630   12.2990 N.am   81  CYS81      -0.1970
     49  CA         8.0610   -5.4970   10.9080 C.3    81  CYS81       0.1712
     50  C          7.0810   -6.1570    9.9260 C.2    81  CYS81       0.2296
     51  O          6.7400   -5.5600    8.8890 O.2    81  CYS81      -0.2864
     52  CB         9.4790   -5.6900   10.3940 C.3    81  CYS81       0.0983
     53  SG        10.7460   -4.8420   11.3470 S.3    81  CYS81      -0.0798
     54  N          8.6340   -1.0560   15.9360 N.3   111  HIS111     -0.1226
     55  CA         9.9260   -1.6610   16.3290 C.3   111  HIS111      0.1752
     56  C         11.0690   -1.2120   15.4300 C.2   111  HIS111      0.2596
     57  O         12.1510   -0.8840   15.9110 O.2   111  HIS111     -0.2718
     58  CB         9.8210   -3.1970   16.3460 C.3   111  HIS111      0.0759
     59  CG        10.8280   -3.8800   17.2340 C.ar  111  HIS111      0.0818
     60  ND1       10.5450   -5.0490   17.9070 N.ar  111  HIS111     -0.2268
     61  CD2       12.1070   -3.5670   17.5460 C.ar  111  HIS111      0.1154
     62  CE1       11.6160   -5.4410   18.5780 C.ar  111  HIS111      0.1986
     63  NE2       12.5680   -4.5400   18.4020 N.ar  111  HIS111     -0.2212
     64  N         10.8250   -1.2020   14.1170 N.am  112  TRP112     -0.1976
     65  CA        11.8110   -0.7330   13.1280 C.3   112  TRP112      0.1640
     66  C         11.0040   -0.0220   12.0350 C.2   112  TRP112      0.2290
     67  O          9.8400   -0.3390   11.8470 O.2   112  TRP112     -0.2864
     68  CB        12.5470   -1.9510   12.5160 C.3   112  TRP112      0.0576
     69  CG        13.5460   -2.6100   13.4610 C.ar  112  TRP112      0.0006
     70  CD1       13.2920   -3.5920   14.4030 C.ar  112  TRP112      0.0946
     71  CD2       14.9420   -2.3230   13.5560 C.ar  112  TRP112      0.0152
     72  NE1       14.4600   -3.9290   15.0610 N.ar  112  TRP112     -0.2442
     73  CE2       15.4830   -3.1680   14.5650 C.ar  112  TRP112      0.0810
     74  CE3       15.7940   -1.4230   12.8970 C.ar  112  TRP112      0.0012
     75  CZ2       16.8370   -3.1300   14.9310 C.ar  112  TRP112      0.0191
     76  CZ3       17.1340   -1.4030   13.2380 C.ar  112  TRP112      0.0001
     77  CH2       17.6440   -2.2500   14.2570 C.ar  112  TRP112      0.0015
     78  N         11.2400   -0.3470    8.8930 N.3   114  THR114     -0.1218
     79  CA        11.1100   -1.2370    7.7340 C.3   114  THR114      0.1862
     80  C          9.9230   -2.2180    7.8330 C.2   114  THR114      0.2287
     81  O          9.8220   -3.0120    8.7910 O.2   114  THR114     -0.2866
     82  CB        12.4000   -2.0730    7.6160 C.3   114  THR114      0.1770
     83  OG1       12.6170   -2.7440    8.8700 O.3   114  THR114     -0.2211
     84  CG2       13.5820   -1.1930    7.3470 C.3   114  THR114      0.0375
     85  N          8.1100   -5.5940    6.4900 N.3   116  PHE116     -0.1241
     86  CA         8.4710   -6.8400    5.7760 C.3   116  PHE116      0.1605
     87  C          7.1930   -7.5310    5.3100 C.2   116  PHE116      0.2264
     88  O          6.1360   -7.2920    5.8740 O.2   116  PHE116     -0.2867
     89  CB         9.2020   -7.8590    6.6880 C.3   116  PHE116      0.0534
     90  CG        10.5150   -7.3880    7.2800 C.ar  116  PHE116     -0.0203
     91  CD1       11.2140   -6.2940    6.7850 C.ar  116  PHE116     -0.0042
     92  CD2       11.0600   -8.1010    8.3700 C.ar  116  PHE116     -0.0042
     93  CE1       12.4260   -5.8760    7.3810 C.ar  116  PHE116     -0.0003
     94  CE2       12.2530   -7.7020    8.9630 C.ar  116  PHE116     -0.0003
     95  CZ        12.9510   -6.5940    8.4630 C.ar  116  PHE116     -0.0000
     96  N         11.6550  -12.8320    9.6480 N.3   123  PHE123     -0.1241
     97  CA        12.5330  -12.2670    8.6370 C.3   123  PHE123      0.1605
     98  C         12.3790  -13.0700    7.3370 C.2   123  PHE123      0.2264
     99  O         13.1650  -13.9890    7.0820 O.2   123  PHE123     -0.2867
    100  CB        13.9990  -12.2850    9.0810 C.3   123  PHE123      0.0534
    101  CG        14.3090  -11.4180   10.2780 C.ar  123  PHE123     -0.0203
    102  CD1       14.2010  -11.9380   11.5640 C.ar  123  PHE123     -0.0042
    103  CD2       14.7760  -10.1130   10.1130 C.ar  123  PHE123     -0.0042
    104  CE1       14.5100  -11.1410   12.6880 C.ar  123  PHE123     -0.0003
    105  CE2       15.0900   -9.3180   11.2210 C.ar  123  PHE123     -0.0003
    106  CZ        14.9690   -9.8390   12.5020 C.ar  123  PHE123     -0.0000
    107  N         14.5080    2.9860   16.3100 N.3   161  ASN161     -0.1240
    108  CA        15.4350    2.8690   15.1650 C.3   161  ASN161      0.1653
    109  C         15.0700    3.7760   13.9790 C.2   161  ASN161      0.2266
    110  O         15.3760    3.4590   12.8280 O.2   161  ASN161     -0.2867
    111  CB        15.5670    1.4060   14.7130 C.3   161  ASN161      0.1155
    112  CG        16.0270    0.4830   15.8490 C.2   161  ASN161      0.2627
    113  OD1       17.1450    0.6080   16.3440 O.2   161  ASN161     -0.2716
    114  ND2       15.1660   -0.4500   16.2440 N.am  161  ASN161     -0.0877
    115  N         18.9790    1.8620   24.1350 N.3   210  TYR210     -0.1241
    116  CA        19.0730    0.4080   24.2220 C.3   210  TYR210      0.1605
    117  C         20.5090   -0.1050   24.0390 C.2   210  TYR210      0.2264
    118  O         21.3750    0.6520   23.6120 O.2   210  TYR210     -0.2867
    119  CB        18.0490   -0.2700   23.3090 C.3   210  TYR210      0.0534
    120  CG        18.3220   -0.3790   21.8030 C.ar  210  TYR210     -0.0201
    121  CD1       19.4140   -1.1060   21.3010 C.ar  210  TYR210     -0.0009
    122  CD2       17.4190    0.1660   20.8870 C.ar  210  TYR210     -0.0009
    123  CE1       19.5960   -1.2640   19.9220 C.ar  210  TYR210      0.0417
    124  CE2       17.5750    0.0010   19.5000 C.ar  210  TYR210      0.0417
    125  CZ        18.6700   -0.7130   19.0330 C.ar  210  TYR210      0.1957
    126  OH        18.8370   -0.9100   17.6850 O.3   210  TYR210     -0.2866
    127  N         23.8320  -12.4630   19.4860 N.3   219  PRO219     -0.2102
    128  CA        24.2150  -13.7600   18.8900 C.3   219  PRO219      0.1504
    129  C         25.3800  -13.6730   17.9040 C.2   219  PRO219      0.2575
    130  O         26.0780  -14.6740   17.6940 O.2   219  PRO219     -0.2718
    131  CB        22.9520  -14.2140   18.1530 C.3   219  PRO219      0.0282
    132  CG        21.8390  -13.4060   18.6890 C.3   219  PRO219      0.0208
    133  CD        22.3870  -12.1880   19.3670 C.3   219  PRO219      0.0893
    134  N         25.5900  -12.5000   17.3050 N.am  220  TRP220     -0.1977
    135  CA        26.6150  -12.3360   16.2680 C.3   220  TRP220      0.1640
    136  C         27.9200  -11.7570   16.8000 C.2   220  TRP220      0.2290
    137  O         28.7980  -11.4130   16.0080 O.2   220  TRP220     -0.2864
    138  CB        26.1020  -11.4830   15.0990 C.3   220  TRP220      0.0576
    139  CG        25.4710  -10.1940   15.5400 C.ar  220  TRP220      0.0006
    140  CD1       26.1020   -9.0020   15.7780 C.ar  220  TRP220      0.0946
    141  CD2       24.0810   -9.9780   15.8060 C.ar  220  TRP220      0.0152
    142  NE1       25.1790   -8.0490   16.1730 N.ar  220  TRP220     -0.2442
    143  CE2       23.9330   -8.6240   16.1960 C.ar  220  TRP220      0.0810
    144  CE3       22.9440  -10.7940   15.7410 C.ar  220  TRP220      0.0012
    145  CZ2       22.6930   -8.0700   16.5260 C.ar  220  TRP220      0.0191
    146  CZ3       21.7030  -10.2430   16.0670 C.ar  220  TRP220      0.0001
    147  CH2       21.5910   -8.8850   16.4560 C.ar  220  TRP220      0.0015
    148  N         23.5450   -3.2310   16.5640 N.3   299  CYS299     -0.1221
    149  CA        22.2690   -3.7090   16.0370 C.3   299  CYS299      0.1808
    150  C         21.9930   -3.1850   14.6490 C.2   299  CYS299      0.2601
    151  O         21.5090   -2.0710   14.4720 O.2   299  CYS299     -0.2717
    152  CB        21.1180   -3.3350   16.9690 C.3   299  CYS299      0.0970
    153  SG        21.0140   -4.4260   18.3660 S.3   299  CYS299     -0.0800
    154  N         22.3320   -4.0110   13.6680 N.am  300  ALA300     -0.1965
    155  CA        22.0330   -3.7500   12.2790 C.3   300  ALA300      0.1728
    156  C         22.1310   -5.1280   11.6060 C.2   300  ALA300      0.2616
    157  O         22.7390   -6.0710   12.1520 O.2   300  ALA300     -0.2715
    158  CB        23.0210   -2.7570   11.6730 C.3   300  ALA300      0.0334
    159  N         21.4990   -5.2800   10.4600 N.am  301  LEU301     -0.1977
    160  CA        21.5000   -6.5680    9.8110 C.3   301  LEU301      0.1596
    161  C         21.7440   -6.3340    8.3350 C.2   301  LEU301      0.2287
    162  O         21.0240   -5.5750    7.6970 O.2   301  LEU301     -0.2864
    163  CB        20.1510   -7.2330   10.0490 C.3   301  LEU301      0.0297
    164  CG        19.9650   -8.7310   10.1680 C.3   301  LEU301      0.0022
    165  CD1       20.9100   -9.3880   11.1800 C.3   301  LEU301      0.0001
    166  CD2       18.4910   -8.9710   10.5450 C.3   301  LEU301      0.0001
    167  N         19.0260   -6.4850    5.5900 N.3   304  CYS304     -0.1235
    168  CA        18.0470   -5.3920    5.5210 C.3   304  CYS304      0.1677
    169  C         18.5360   -4.1220    4.8100 C.2   304  CYS304      0.2270
    170  O         17.7800   -3.1550    4.6560 O.2   304  CYS304     -0.2867
    171  CB        17.5790   -5.0440    6.9420 C.3   304  CYS304      0.0956
    172  SG        16.6770   -6.3830    7.7050 S.3   304  CYS304     -0.0801
    173  N         15.5480    1.2830    5.2590 N.3   310  TYR310     -0.1228
    174  CA        16.7040    1.0020    6.1180 C.3   310  TYR310      0.1721
    175  C         17.2040    2.3000    6.7560 C.2   310  TYR310      0.2437
    176  O         17.4550    3.2890    6.0500 O.2   310  TYR310     -0.2733
    177  CB        17.8270    0.3320    5.3250 C.3   310  TYR310      0.0547
    178  CG        19.0360   -0.0250    6.1540 C.ar  310  TYR310     -0.0200
    179  CD1       19.0160   -1.1340    7.0100 C.ar  310  TYR310     -0.0009
    180  CD2       20.2010    0.7310    6.0770 C.ar  310  TYR310     -0.0009
    181  CE1       20.1360   -1.4720    7.7680 C.ar  310  TYR310      0.0417
    182  CE2       21.3220    0.4000    6.8350 C.ar  310  TYR310      0.0417
    183  CZ        21.2790   -0.7050    7.6700 C.ar  310  TYR310      0.1957
    184  OH        22.3840   -1.0410    8.4140 O.3   310  TYR310     -0.2866
    185  N         17.3260    2.3260    8.0970 N.am  311  PRO311     -0.2718
    186  CA        17.5180    3.6340    8.7110 C.3   311  PRO311      0.1535
    187  C         18.9640    4.1370    8.8200 C.2   311  PRO311      0.2598
    188  O         19.1750    5.3030    9.1550 O.2   311  PRO311     -0.2715
    189  CB        16.9260    3.4410   10.1140 C.3   311  PRO311      0.0310
    190  CG        17.1910    1.9820   10.4220 C.3   311  PRO311      0.0237
    191  CD        16.9360    1.2920    9.0890 C.3   311  PRO311      0.0939
    192  N         19.9440    3.2720    8.5770 N.am  312  PHE312     -0.1974
    193  CA        21.3280    3.6170    8.9080 C.3   312  PHE312      0.1639
    194  C         22.2450    4.0110    7.7360 C.2   312  PHE312      0.2290
    195  O         23.4550    4.0340    7.9130 O.2   312  PHE312     -0.2864
    196  CB        21.9790    2.5090    9.7530 C.3   312  PHE312      0.0560
    197  CG        21.1620    2.1010   10.9470 C.ar  312  PHE312     -0.0200
    198  CD1       20.5500    3.0680   11.7580 C.ar  312  PHE312     -0.0042
    199  CD2       21.0210    0.7560   11.2770 C.ar  312  PHE312     -0.0042
    200  CE1       19.7850    2.6840   12.8790 C.ar  312  PHE312     -0.0003
    201  CE2       20.2560    0.3610   12.3920 C.ar  312  PHE312     -0.0003
    202  CZ        19.6450    1.3300   13.1960 C.ar  312  PHE312     -0.0000
@<TRIPOS>BOND
     1   170   169    2
     2   169   168    1
     3   173   174    1
     4    87    86    1
     5    87    88    2
     6   177   174    1
     7   177   178    1
     8   168   167    1
     9   168   171    1
    10    86    85    1
    11    86    89    1
    12   176   175    2
    13   180   178   ar
    14   180   182   ar
    15   174   175    1
    16   178   179   ar
    17    89    90    1
    18   175   185   am
    19    91    90   ar
    20    91    93   ar
    21   182   183   ar
    22   171   172    1
    23   179   181   ar
    24    99    98    2
    25    90    92   ar
    26    98    97    1
    27    84    82    1
    28    93    95   ar
    29    82    79    1
    30    82    83    1
    31   183   181   ar
    32   183   184    1
    33   162   161    2
    34    79    80    1
    35    79    78    1
    36   194   195    2
    37   194   193    1
    38    80    81    2
    39   185   186    1
    40   185   191    1
    41   161   160    1
    42    92    94   ar
    43    95    94   ar
    44   192   187   am
    45   192   193    1
    46    97   100    1
    47    97    96    1
    48   186   187    1
    49   186   189    1
    50   187   188    2
    51    51    50    2
    52   193   196    1
    53   100   101    1
    54   191   190    1
    55   196   197    1
    56   160   163    1
    57   160   159    1
    58    50    49    1
    59   163   164    1
    60   103   101   ar
    61   103   105   ar
    62   189   190    1
    63   164   166    1
    64   164   165    1
    65   101   102   ar
    66    52    49    1
    67    52    53    1
    68   159   156   am
    69    49    48    1
    70   197   199   ar
    71   197   198   ar
    72   105   106   ar
    73   199   201   ar
    74   102   104   ar
    75   156   157    2
    76   156   155    1
    77   158   155    1
    78   198   200   ar
    79    67    66    2
    80    66    65    1
    81   155   154    1
    82    48    36   am
    83   201   202   ar
    84    42    40   ar
    85    42    43   ar
    86   106   104   ar
    87    68    65    1
    88    68    69    1
    89    37    36    2
    90   110   109    2
    91   200   202   ar
    92    74    76   ar
    93    74    71   ar
    94    40    39   ar
    95    45    43   ar
    96    45    47   ar
    97    36    35    1
    98    65    64    1
    99    43    41   ar
   100    76    77   ar
   101    69    71   ar
   102    69    70   ar
   103    71    73   ar
   104   154   150   am
   105    47    46   ar
   106   109   108    1
   107    39    41   ar
   108    39    38    1
   109    64    56   am
   110    41    44   ar
   111    77    75   ar
   112    70    72   ar
   113   151   150    2
   114    73    75   ar
   115    73    72   ar
   116    35    38    1
   117    35    34    1
   118   150   149    1
   119   111   108    1
   120   111   112    1
   121    46    44   ar
   122   138   139    1
   123   138   135    1
   124   108   107    1
   125    56    57    2
   126    56    55    1
   127   139   140   ar
   128   139   141   ar
   129   144   141   ar
   130   144   146   ar
   131   140   142   ar
   132   141   143   ar
   133   112   114   am
   134   112   113    2
   135    54    55    1
   136   137   136    2
   137   149   148    1
   138   149   152    1
   139   146   147   ar
   140   142   143   ar
   141   143   145   ar
   142   135   136    1
   143   135   134    1
   144    21    19    1
   145    55    58    1
   146    58    59    1
   147   147   145   ar
   148   152   153    1
   149    59    61   ar
   150    59    60   ar
   151   134   129   am
   152    19    20    1
   153    19    16    1
   154    61    63   ar
   155   126   125    1
   156   130   129    2
   157   129   128    1
   158    60    62   ar
   159   131   132    1
   160   131   128    1
   161    63    62   ar
   162    16    15    1
   163    16    17    1
   164   132   133    1
   165   128   127    1
   166    18    17    2
   167   125   124   ar
   168   125   123   ar
   169   133   127    1
   170    17    22   am
   171   124   122   ar
   172    12    14   ar
   173    12    10   ar
   174    14    13   ar
   175   123   121   ar
   176    10     9   ar
   177    10     8   ar
   178     9     7   ar
   179    22    23    1
   180    13    11   ar
   181   122   120   ar
   182    30    28   ar
   183    30    32   ar
   184   121   120   ar
   185    28    27   ar
   186     7     6   ar
   187     8    11   ar
   188     8     6   ar
   189    23    24    1
   190    23    26    1
   191   120   119    1
   192    33    32    1
   193    32    31   ar
   194    24    25    2
   195     6     5    1
   196    27    26    1
   197    27    29   ar
   198   119   116    1
   199    31    29   ar
   200     5     2    1
   201   118   117    2
   202   117   116    1
   203   115   116    1
   204     2     3    1
   205     2     1    1
   206     3     4    2
