@<TRIPOS>MOLECULE
tmp/3g5iA00.pdb
 155 150 0 0 0
SMALL
GASTEIGER

@<TRIPOS>ATOM
      1  N         39.1550    5.2340   33.3910 N.3     9  ASP9       -0.1239
      2  CA        39.4500    6.4900   33.9820 C.3     9  ASP9        0.1674
      3  C         39.5510    7.6200   32.9550 C.2     9  ASP9        0.2266
      4  O         40.5910    8.2540   32.8510 O.2     9  ASP9       -0.2867
      5  CB        40.7290    6.3660   34.8370 C.3     9  ASP9        0.1410
      6  CG        41.9800    6.0780   33.9860 C.2     9  ASP9        0.3668
      7  OD1       41.8300    5.3720   32.9610 O.co2   9  ASP9       -0.2456
      8  OD2       43.1100    6.5520   34.3390 O.co2   9  ASP9       -0.2456
      9  N         41.4060    8.2660   25.6330 N.3    13  ASP13      -0.1225
     10  CA        41.3640    6.9600   25.0260 C.3    13  ASP13       0.1805
     11  C         40.3310    6.0080   25.6560 C.2    13  ASP13       0.2597
     12  O         39.6710    5.2660   24.9540 O.2    13  ASP13      -0.2718
     13  CB        42.7800    6.3550   24.8480 C.3    13  ASP13       0.1424
     14  CG        43.5030    6.1850   26.1370 C.2    13  ASP13       0.3668
     15  OD1       43.3790    7.0390   27.0400 O.co2  13  ASP13      -0.2456
     16  OD2       44.2040    5.1620   26.2490 O.co2  13  ASP13      -0.2456
     17  N         40.1540    6.0710   26.9670 N.am   14  ASP14      -0.1974
     18  CA        39.0270    5.4130   27.6230 C.3    14  ASP14       0.1709
     19  C         37.7220    5.8110   26.9670 C.2    14  ASP14       0.2293
     20  O         36.8890    4.9410   26.6810 O.2    14  ASP14      -0.2864
     21  CB        38.9220    5.8190   29.1080 C.3    14  ASP14       0.1436
     22  CG        40.2170    5.5810   29.8830 C.2    14  ASP14       0.3671
     23  OD1       41.1220    6.4760   29.8790 O.co2  14  ASP14      -0.2456
     24  OD2       40.3210    4.4910   30.4810 O.co2  14  ASP14      -0.2456
     25  N         44.1750    8.7300   35.4920 N.3    38  ASN38      -0.1240
     26  CA        44.2080    9.8600   34.5230 C.3    38  ASN38       0.1653
     27  C         43.7930   11.1820   35.1860 C.2    38  ASN38       0.2266
     28  O         44.3890   12.2320   34.9090 O.2    38  ASN38      -0.2867
     29  CB        43.3500    9.6050   33.2470 C.3    38  ASN38       0.1155
     30  CG        44.1100    8.8220   32.1430 C.2    38  ASN38       0.2627
     31  OD1       45.3600    8.8340   32.0920 O.2    38  ASN38      -0.2716
     32  ND2       43.3550    8.0930   31.2830 N.am   38  ASN38      -0.0877
     33  N         47.5470   11.4230   35.6130 N.3    77  ALA77      -0.1245
     34  CA        48.1070   11.8090   34.3050 C.3    77  ALA77       0.1562
     35  C         47.5310   13.1890   33.9110 C.2    77  ALA77       0.2260
     36  O         46.6560   13.3170   33.0190 O.2    77  ALA77      -0.2867
     37  CB        47.8470   10.7440   33.2500 C.3    77  ALA77       0.0290
     38  N         49.0250   15.6870   30.4310 N.3    80  VAL80      -0.1231
     39  CA        48.8760   14.7860   29.2700 C.3    80  VAL80       0.1692
     40  C         47.4320   14.8000   28.7200 C.2    80  VAL80       0.2592
     41  O         47.2160   14.9830   27.5050 O.2    80  VAL80      -0.2718
     42  CB        49.2690   13.3140   29.6340 C.3    80  VAL80       0.0266
     43  CG1       48.9240   12.3640   28.4960 C.3    80  VAL80       0.0020
     44  CG2       50.7440   13.2060   30.0130 C.3    80  VAL80       0.0020
     45  N         46.4690   14.6160   29.6330 N.am   81  HIS81      -0.1976
     46  CA        45.0230   14.5530   29.3480 C.3    81  HIS81       0.1656
     47  C         44.2800   15.8870   29.5920 C.2    81  HIS81       0.2291
     48  O         43.0350   15.9770   29.4350 O.2    81  HIS81      -0.2864
     49  CB        44.3910   13.4290   30.1930 C.3    81  HIS81       0.0771
     50  CG        44.8830   12.0660   29.8260 C.ar   81  HIS81       0.0820
     51  ND1       44.3400   11.3290   28.7900 N.ar   81  HIS81      -0.2267
     52  CD2       45.8990   11.3250   30.3270 C.ar   81  HIS81       0.1154
     53  CE1       44.9920   10.1820   28.6820 C.ar   81  HIS81       0.1986
     54  NE2       45.9440   10.1550   29.6040 N.ar   81  HIS81      -0.2212
     55  N         40.7450   -0.3010   32.1100 N.3   123  THR123     -0.1218
     56  CA        41.6150    0.5230   31.3040 C.3   123  THR123      0.1862
     57  C         42.2150    1.7000   32.0740 C.2   123  THR123      0.2287
     58  O         42.8620    2.5750   31.4900 O.2   123  THR123     -0.2866
     59  CB        40.8790    1.0010   29.9840 C.3   123  THR123      0.1770
     60  OG1       39.7590    1.8540   30.2820 O.3   123  THR123     -0.2211
     61  CG2       40.4140   -0.1670   29.2270 C.3   123  THR123      0.0375
     62  N         44.2190   -2.5490   29.8410 N.3   149  MET149     -0.1245
     63  CA        45.2410   -1.7470   29.2000 C.3   149  MET149      0.1570
     64  C         46.2200   -1.3850   30.3340 C.2   149  MET149      0.2261
     65  O         45.8480   -0.7910   31.3780 O.2   149  MET149     -0.2867
     66  CB        44.6600   -0.5230   28.5010 C.3   149  MET149      0.0387
     67  CG        45.7290    0.1890   27.6340 C.3   149  MET149      0.0595
     68  SD        46.9170    1.0580   28.6750 S.3   149  MET149     -0.1393
     69  CE        48.4330    0.7370   27.7490 C.3   149  MET149      0.0692
     70  N         56.3370    4.1090   30.0110 N.3   157  ASN157     -0.1225
     71  CA        56.0820    5.4870   29.6150 C.3   157  ASN157      0.1785
     72  C         55.9610    6.4350   30.7990 C.2   157  ASN157      0.2597
     73  O         55.7920    7.6540   30.6060 O.2   157  ASN157     -0.2718
     74  CB        54.8400    5.6040   28.6590 C.3   157  ASN157      0.1169
     75  CG        53.4960    5.2040   29.3360 C.2   157  ASN157      0.2627
     76  OD1       53.4710    4.7210   30.4900 O.2   157  ASN157     -0.2716
     77  ND2       52.3620    5.4270   28.6120 N.am  157  ASN157     -0.0877
     78  N         56.0560    5.9120   32.0200 N.am  158  TRP158     -0.1976
     79  CA        55.9110    6.7600   33.1830 C.3   158  TRP158      0.1640
     80  C         57.2330    6.9240   33.9870 C.2   158  TRP158      0.2290
     81  O         57.7120    8.0590   34.2390 O.2   158  TRP158     -0.2864
     82  CB        54.7680    6.2570   34.0590 C.3   158  TRP158      0.0576
     83  CG        54.3710    7.3370   35.0400 C.ar  158  TRP158      0.0006
     84  CD1       54.5770    7.3420   36.3950 C.ar  158  TRP158      0.0946
     85  CD2       53.7430    8.6040   34.7160 C.ar  158  TRP158      0.0152
     86  NE1       54.1220    8.5360   36.9210 N.ar  158  TRP158     -0.2442
     87  CE2       53.5910    9.3110   35.9240 C.ar  158  TRP158      0.0810
     88  CE3       53.3070    9.1980   33.5090 C.ar  158  TRP158      0.0012
     89  CZ2       53.0280   10.6190   35.9800 C.ar  158  TRP158      0.0191
     90  CZ3       52.7250   10.4820   33.5500 C.ar  158  TRP158      0.0001
     91  CH2       52.6020   11.1820   34.7830 C.ar  158  TRP158      0.0015
     92  N         54.8090    1.3520   33.1050 N.3   163  GLU163     -0.1231
     93  CA        53.7330    2.0450   32.4160 C.3   163  GLU163      0.1699
     94  C         52.8060    2.6490   33.4730 C.2   163  GLU163      0.2592
     95  O         52.6970    2.1480   34.5650 O.2   163  GLU163     -0.2718
     96  CB        53.0180    1.0750   31.4340 C.3   163  GLU163      0.0402
     97  CG        51.7820    1.6430   30.6660 C.3   163  GLU163      0.1161
     98  CD        50.5090    1.6520   31.5180 C.2   163  GLU163      0.3649
     99  OE1       50.3400    0.7650   32.3740 O.co2 163  GLU163     -0.2457
    100  OE2       49.6690    2.5350   31.3200 O.co2 163  GLU163     -0.2457
    101  N         52.1490    3.7590   33.1450 N.am  164  PHE164     -0.1962
    102  CA        51.3900    4.5500   34.1220 C.3   164  PHE164      0.1771
    103  C         50.3170    3.8070   34.9430 C.2   164  PHE164      0.2619
    104  O         50.2830    3.8770   36.1420 O.2   164  PHE164     -0.2715
    105  CB        50.7260    5.7200   33.3810 C.3   164  PHE164      0.0574
    106  CG        49.8300    6.5530   34.2710 C.ar  164  PHE164     -0.0200
    107  CD1       50.3610    7.6090   35.0200 C.ar  164  PHE164     -0.0042
    108  CD2       48.4390    6.2950   34.3320 C.ar  164  PHE164     -0.0042
    109  CE1       49.5470    8.3920   35.8620 C.ar  164  PHE164     -0.0003
    110  CE2       47.5920    7.0820   35.1730 C.ar  164  PHE164     -0.0003
    111  CZ        48.1460    8.1360   35.9310 C.ar  164  PHE164     -0.0000
    112  N         49.3800    3.1570   34.2690 N.am  165  ASN165     -0.1972
    113  CA        48.2670    2.4620   34.9440 C.3   165  ASN165      0.1688
    114  C         48.7660    1.4950   35.9690 C.2   165  ASN165      0.2292
    115  O         48.2060    1.3880   37.0650 O.2   165  ASN165     -0.2864
    116  CB        47.4370    1.6720   33.9630 C.3   165  ASN165      0.1181
    117  CG        46.5160    2.5210   33.1740 C.2   165  ASN165      0.2629
    118  OD1       46.4090    3.7760   33.3540 O.2   165  ASN165     -0.2716
    119  ND2       45.8240    1.8590   32.2480 N.am  165  ASN165     -0.0877
    120  N         45.3670   15.1100   21.6370 N.3   222  PHE222     -0.1241
    121  CA        46.5640   14.2600   21.7810 C.3   222  PHE222      0.1605
    122  C         47.6840   14.5270   20.7830 C.2   222  PHE222      0.2264
    123  O         48.5790   13.6840   20.6460 O.2   222  PHE222     -0.2867
    124  CB        46.2340   12.7870   21.5910 C.3   222  PHE222      0.0534
    125  CG        45.6000   12.1240   22.7640 C.ar  222  PHE222     -0.0203
    126  CD1       46.1640   12.2180   24.0280 C.ar  222  PHE222     -0.0042
    127  CD2       44.4640   11.3190   22.5700 C.ar  222  PHE222     -0.0042
    128  CE1       45.5730   11.5640   25.1120 C.ar  222  PHE222     -0.0003
    129  CE2       43.8580   10.6500   23.6230 C.ar  222  PHE222     -0.0003
    130  CZ        44.4080   10.7650   24.9100 C.ar  222  PHE222     -0.0000
    131  N         49.6350    6.9680   19.5580 N.3   232  PRO232     -0.2116
    132  CA        49.1030    5.6570   20.0450 C.3   232  PRO232      0.1372
    133  C         47.7410    5.8080   20.7000 C.2   232  PRO232      0.2244
    134  O         47.4900    6.8080   21.3410 O.2   232  PRO232     -0.2868
    135  CB        50.1170    5.2230   21.0960 C.3   232  PRO232      0.0268
    136  CG        50.9050    6.5030   21.4420 C.3   232  PRO232      0.0207
    137  CD        50.9440    7.2960   20.1570 C.3   232  PRO232      0.0892
    138  N         45.5850    3.7950   23.1730 N.3   234  HIS234     -0.1226
    139  CA        45.8340    2.6770   24.0660 C.3   234  HIS234      0.1752
    140  C         44.5630    1.8900   24.4050 C.2   234  HIS234      0.2596
    141  O         44.4250    0.6970   24.0690 O.2   234  HIS234     -0.2718
    142  CB        46.5060    3.1630   25.3860 C.3   234  HIS234      0.0759
    143  CG        47.7370    4.0070   25.1710 C.ar  234  HIS234      0.0818
    144  ND1       48.9940    3.4630   24.9840 N.ar  234  HIS234     -0.2268
    145  CD2       47.9020    5.3520   25.1480 C.ar  234  HIS234      0.1154
    146  CE1       49.8760    4.4360   24.8510 C.ar  234  HIS234      0.1986
    147  NE2       49.2330    5.5910   24.9040 N.ar  234  HIS234     -0.2212
    148  N         43.6180    2.5570   25.0680 N.am  235  ASP235     -0.1974
    149  CA        42.4980    1.8190   25.6760 C.3   235  ASP235      0.1709
    150  C         41.5830    1.0530   24.6940 C.2   235  ASP235      0.2293
    151  O         41.1840   -0.1150   24.9620 O.2   235  ASP235     -0.2864
    152  CB        41.7280    2.7790   26.6140 C.3   235  ASP235      0.1436
    153  CG        42.5900    3.2190   27.8010 C.2   235  ASP235      0.3671
    154  OD1       43.6890    2.6010   27.9810 O.co2 235  ASP235     -0.2456
    155  OD2       42.1950    4.1330   28.5850 O.co2 235  ASP235     -0.2456
@<TRIPOS>BOND
     1   131   132    1
     2   131   137    1
     3   132   133    1
     4   132   135    1
     5   137   136    1
     6   123   122    2
     7   133   134    2
     8   122   121    1
     9   135   136    1
    10   124   121    1
    11   124   125    1
    12   120   121    1
    13   127   125   ar
    14   127   129   ar
    15   125   126   ar
    16   138   139    1
    17   129   130   ar
    18   126   128   ar
    19   139   140    1
    20   139   142    1
    21   141   140    2
    22   140   148   am
    23   150   151    2
    24   150   149    1
    25    13    10    1
    26    13    14    1
    27   146   147   ar
    28   146   144   ar
    29   147   145   ar
    30   130   128   ar
    31    12    11    2
    32   144   143   ar
    33    10     9    1
    34    10    11    1
    35   148   149    1
    36   145   143   ar
    37   143   142    1
    38    11    17   am
    39   149   152    1
    40    14    16   ar
    41    14    15   ar
    42   152   153    1
    43    20    19    2
    44    17    18    1
    45    19    18    1
    46    41    40    2
    47    18    21    1
    48    67    66    1
    49    67    68    1
    50    69    68    1
    51   153   154   ar
    52   153   155   ar
    53    43    42    1
    54    66    63    1
    55    77    75   am
    56    74    75    1
    57    74    71    1
    58    53    51   ar
    59    53    54   ar
    60    40    39    1
    61    40    45   am
    62    51    50   ar
    63    21    22    1
    64    63    62    1
    65    63    64    1
    66    61    59    1
    67    39    42    1
    68    39    38    1
    69    75    76    2
    70    46    47    1
    71    46    45    1
    72    46    49    1
    73    48    47    2
    74    54    52   ar
    75    71    70    1
    76    71    72    1
    77    42    44    1
    78    50    49    1
    79    50    52   ar
    80    23    22   ar
    81    22    24   ar
    82    59    60    1
    83    59    56    1
    84    64    65    2
    85    73    72    2
    86    97    96    1
    87    97    98    1
    88    72    78   am
    89    32    30   am
    90    56    57    1
    91    56    55    1
    92   100    98   ar
    93    96    93    1
    94    58    57    2
    95    98    99   ar
    96    78    79    1
    97    31    30    2
    98    30    29    1
    99   119   117   am
   100    93    92    1
   101    93    94    1
   102     4     3    2
   103     3     2    1
   104     7     6   ar
   105    36    35    2
   106   101    94   am
   107   101   102    1
   108   117   118    2
   109   117   116    1
   110    79    80    1
   111    79    82    1
   112    29    26    1
   113    37    34    1
   114   105   102    1
   115   105   106    1
   116     1     2    1
   117    94    95    2
   118    88    90   ar
   119    88    85   ar
   120    90    91   ar
   121    35    34    1
   122   116   113    1
   123     2     5    1
   124     6     8   ar
   125     6     5    1
   126    80    81    2
   127    82    83    1
   128   102   103    1
   129   112   103   am
   130   112   113    1
   131   106   108   ar
   132   106   107   ar
   133    34    33    1
   134   108   110   ar
   135    26    27    1
   136    26    25    1
   137    85    83   ar
   138    85    87   ar
   139    91    89   ar
   140    28    27    2
   141   103   104    2
   142   113   114    1
   143   107   109   ar
   144    83    84   ar
   145   110   111   ar
   146   109   111   ar
   147    87    89   ar
   148    87    86   ar
   149   114   115    2
   150    84    86   ar
