@<TRIPOS>MOLECULE
tmp/3g5jA00.pdb
 123 115 0 0 0
SMALL
GASTEIGER

@<TRIPOS>ATOM
      1  N         41.8260   22.6160   16.7920 N.3    37  LEU37      -0.1231
      2  CA        40.4180   22.9380   16.4760 C.3    37  LEU37       0.1693
      3  C         39.6560   21.6450   16.0950 C.2    37  LEU37       0.2592
      4  O         38.5130   21.4290   16.5070 O.2    37  LEU37      -0.2718
      5  CB        40.3990   23.8790   15.3300 C.3    37  LEU37       0.0284
      6  CG        39.9550   25.3030   15.4840 C.3    37  LEU37       0.0019
      7  CD1       39.6000   25.8330   14.0900 C.3    37  LEU37       0.0001
      8  CD2       38.7200   25.3850   16.4480 C.3    37  LEU37       0.0001
      9  N         40.3240   20.7880   15.3160 N.am   38  PHE38      -0.1976
     10  CA        39.7390   19.5340   14.8190 C.3    38  PHE38       0.1639
     11  C         40.5380   18.3000   15.1920 C.2    38  PHE38       0.2290
     12  O         41.7430   18.3250   15.1950 O.2    38  PHE38      -0.2864
     13  CB        39.6250   19.5430   13.2640 C.3    38  PHE38       0.0560
     14  CG        38.8270   20.6550   12.7260 C.ar   38  PHE38      -0.0200
     15  CD1       37.5440   20.8780   13.1850 C.ar   38  PHE38      -0.0042
     16  CD2       39.3510   21.5150   11.7820 C.ar   38  PHE38      -0.0042
     17  CE1       36.7820   21.9440   12.6870 C.ar   38  PHE38      -0.0003
     18  CE2       38.5830   22.5930   11.2900 C.ar   38  PHE38      -0.0003
     19  CZ        37.3100   22.7750   11.7450 C.ar   38  PHE38      -0.0000
     20  N         36.3050   17.9380    6.8590 N.3    46  VAL46      -0.1245
     21  CA        36.1370   19.3650    6.5520 C.3    46  VAL46       0.1561
     22  C         36.8370   19.7250    5.2350 C.2    46  VAL46       0.2260
     23  O         36.2830   20.4540    4.4280 O.2    46  VAL46      -0.2867
     24  CB        36.6300   20.2650    7.6870 C.3    46  VAL46       0.0252
     25  CG1       36.7670   21.7420    7.2160 C.3    46  VAL46       0.0019
     26  CG2       35.7020   20.0910    8.8860 C.3    46  VAL46       0.0019
     27  N         35.1040   20.9870    1.8210 N.3    50  TYR50      -0.1241
     28  CA        35.5430   22.2100    1.2010 C.3    50  TYR50       0.1605
     29  C         35.8480   22.0280   -0.3070 C.2    50  TYR50       0.2264
     30  O         35.4500   22.8180   -1.1140 O.2    50  TYR50      -0.2867
     31  CB        36.7890   22.6970    1.9300 C.3    50  TYR50       0.0534
     32  CG        37.3870   23.9730    1.4080 C.ar   50  TYR50      -0.0201
     33  CD1       36.6020   25.0880    1.1960 C.ar   50  TYR50      -0.0009
     34  CD2       38.7350   24.0670    1.1360 C.ar   50  TYR50      -0.0009
     35  CE1       37.1570   26.3030    0.7170 C.ar   50  TYR50       0.0417
     36  CE2       39.3160   25.2780    0.6910 C.ar   50  TYR50       0.0417
     37  CZ        38.5170   26.3870    0.4810 C.ar   50  TYR50       0.1957
     38  OH        39.0970   27.5600    0.0280 O.3    50  TYR50      -0.2866
     39  N         33.2950   26.4460    0.4670 N.3    54  LYS54      -0.1245
     40  CA        33.5250   27.0670    1.7760 C.3    54  LYS54       0.1561
     41  C         32.3020   27.1000    2.6940 C.2    54  LYS54       0.2260
     42  O         32.4120   26.8390    3.8960 O.2    54  LYS54      -0.2867
     43  CB        34.0220   28.4920    1.5170 C.3    54  LYS54       0.0271
     44  CG        34.3920   29.2670    2.6970 C.3    54  LYS54       0.0035
     45  CD        35.0490   30.5960    2.2710 C.3    54  LYS54       0.0206
     46  CE        34.3090   31.8290    2.6880 C.3    54  LYS54       0.1093
     47  NZ        35.3020   32.9960    2.9160 N.3    54  LYS54      -0.1314
     48  N         31.7340   23.8440    4.1980 N.3    57  ALA57      -0.1231
     49  CA        32.8970   23.4440    5.0170 C.3    57  ALA57       0.1694
     50  C         32.8180   24.1580    6.3750 C.2    57  ALA57       0.2591
     51  O         33.0580   23.5630    7.4120 O.2    57  ALA57      -0.2718
     52  CB        34.2070   23.7300    4.3190 C.3    57  ALA57       0.0304
     53  N         32.3770   25.4170    6.3550 N.am   58  ILE58      -0.1980
     54  CA        32.1470   26.1870    7.5680 C.3    58  ILE58       0.1595
     55  C         31.0650   25.5490    8.4150 C.2    58  ILE58       0.2287
     56  O         31.1920   25.4830    9.6240 O.2    58  ILE58      -0.2864
     57  CB        31.7880   27.6720    7.2670 C.3    58  ILE58       0.0276
     58  CG1       33.0360   28.4180    6.7360 C.3    58  ILE58       0.0022
     59  CG2       31.2380   28.3930    8.5580 C.3    58  ILE58       0.0022
     60  CD1       32.7550   29.6790    6.0600 C.3    58  ILE58       0.0001
     61  N         32.5850   22.6340   10.1470 N.3    61  GLY61      -0.1210
     62  CA        33.3650   23.1870   11.1950 C.3    61  GLY61       0.1956
     63  C         32.6050   23.5260   12.4690 C.2    61  GLY61       0.2611
     64  O         33.0370   23.1370   13.5410 O.2    61  GLY61      -0.2717
     65  N         31.4930   24.2690   12.3610 N.am   62  PHE62      -0.1976
     66  CA        30.6200   24.5180   13.5050 C.3    62  PHE62       0.1639
     67  C         30.1570   23.2330   14.1710 C.2    62  PHE62       0.2290
     68  O         30.1400   23.1500   15.4120 O.2    62  PHE62      -0.2864
     69  CB        29.4030   25.4060   13.1450 C.3    62  PHE62       0.0560
     70  CG        29.7200   26.8740   13.0610 C.ar   62  PHE62      -0.0200
     71  CD1       30.0350   27.5780   14.1970 C.ar   62  PHE62      -0.0042
     72  CD2       29.7170   27.5540   11.8450 C.ar   62  PHE62      -0.0042
     73  CE1       30.3400   28.9430   14.1280 C.ar   62  PHE62      -0.0003
     74  CE2       30.0210   28.9230   11.7820 C.ar   62  PHE62      -0.0003
     75  CZ        30.3210   29.6020   12.9100 C.ar   62  PHE62      -0.0000
     76  N         33.3180   22.0920   16.2380 N.3    65  VAL65      -0.1245
     77  CA        34.0530   22.9670   17.1420 C.3    65  VAL65       0.1561
     78  C         33.1930   23.8500   18.0600 C.2    65  VAL65       0.2260
     79  O         33.7190   24.4290   19.0030 O.2    65  VAL65      -0.2867
     80  CB        35.0040   23.9290   16.3840 C.3    65  VAL65       0.0252
     81  CG1       35.7120   23.2600   15.2720 C.3    65  VAL65       0.0019
     82  CG2       34.2640   25.1680   15.8980 C.3    65  VAL65       0.0019
     83  N         34.5330   25.6490   22.0170 N.3    69  LEU69      -0.1245
     84  CA        34.9670   27.0540   22.0090 C.3    69  LEU69       0.1561
     85  C         35.1370   27.6740   23.4100 C.2    69  LEU69       0.2260
     86  O         36.0390   28.4820   23.6290 O.2    69  LEU69      -0.2867
     87  CB        34.0250   27.9540   21.1880 C.3    69  LEU69       0.0270
     88  CG        33.8860   27.7850   19.6550 C.3    69  LEU69       0.0019
     89  CD1       32.8810   28.8390   19.1360 C.3    69  LEU69       0.0001
     90  CD2       35.2200   27.9410   18.9550 C.3    69  LEU69       0.0001
     91  N         41.2130   28.8780   10.1790 N.3    95  ARG95      -0.1245
     92  CA        41.3060   28.1650   11.4470 C.3    95  ARG95       0.1563
     93  C         41.8910   29.1030   12.5320 C.2    95  ARG95       0.2260
     94  O         41.2530   29.3370   13.5640 O.2    95  ARG95      -0.2867
     95  CB        42.1470   26.8970   11.3100 C.3    95  ARG95       0.0307
     96  CG        41.3660   25.7080   10.7760 C.3    95  ARG95       0.0489
     97  CD        42.3290   24.5900   10.4280 C.3    95  ARG95       0.2205
     98  NE        41.6900   23.6190    9.5600 N.pl3  95  ARG95      -0.0865
     99  CZ        41.4520   23.8100    8.2620 C.cat  95  ARG95       0.5346
    100  NH1       41.7810   24.9500    7.6560 N.pl3  95  ARG95       0.1354
    101  NH2       40.8510   22.8570    7.5780 N.pl3  95  ARG95       0.1354
    102  N         39.7240   32.7900   12.7420 N.3    98  SER98      -0.1202
    103  CA        38.4840   32.7860   13.5020 C.3    98  SER98       0.2020
    104  C         38.7870   32.7740   14.9960 C.2    98  SER98       0.2618
    105  O         38.1510   33.4900   15.7630 O.2    98  SER98      -0.2717
    106  CB        37.5860   31.5960   13.0980 C.3    98  SER98       0.2103
    107  OG        38.2150   30.3450   13.4030 O.3    98  SER98      -0.2182
    108  N         39.7340   31.9300   15.4300 N.am   99  ILE99      -0.1979
    109  CA        40.0550   31.8570   16.8500 C.3    99  ILE99       0.1595
    110  C         40.6080   33.1660   17.3610 C.2    99  ILE99       0.2287
    111  O         40.2560   33.5840   18.4530 O.2    99  ILE99      -0.2864
    112  CB        41.0560   30.7230   17.1480 C.3    99  ILE99       0.0276
    113  CG1       40.3750   29.4080   16.8680 C.3    99  ILE99       0.0022
    114  CG2       41.5730   30.7610   18.5920 C.3    99  ILE99       0.0022
    115  CD1       39.0680   29.2560   17.6000 C.3    99  ILE99       0.0001
    116  N         37.7970   35.8830   17.5150 N.3   102  LEU102     -0.1245
    117  CA        36.8810   35.6630   18.6100 C.3   102  LEU102      0.1561
    118  C         37.5090   35.9900   19.9510 C.2   102  LEU102      0.2260
    119  O         36.9200   36.7500   20.7350 O.2   102  LEU102     -0.2867
    120  CB        36.4320   34.2350   18.6320 C.3   102  LEU102      0.0270
    121  CG        35.3970   33.9370   19.7470 C.3   102  LEU102      0.0019
    122  CD1       34.1290   34.7790   19.6260 C.3   102  LEU102      0.0001
    123  CD2       35.0740   32.4480   19.7050 C.3   102  LEU102      0.0001
@<TRIPOS>BOND
     1    30    29    2
     2    29    28    1
     3    38    37    1
     4    39    40    1
     5    37    36   ar
     6    37    35   ar
     7    36    34   ar
     8    35    33   ar
     9    34    32   ar
    10    33    32   ar
    11    28    27    1
    12    28    31    1
    13    32    31    1
    14    43    40    1
    15    43    44    1
    16    40    41    1
    17    45    46    1
    18    45    44    1
    19    46    47    1
    20    41    42    2
    21    48    49    1
    22    52    49    1
    23    23    22    2
    24    49    50    1
    25    22    21    1
    26    60    58    1
    27    53    50   am
    28    53    54    1
    29    50    51    2
    30    21    20    1
    31    21    24    1
    32    58    57    1
    33    25    24    1
    34    57    54    1
    35    57    59    1
    36    54    55    1
    37   101    99    1
    38   100    99    1
    39    24    26    1
    40    99    98    2
    41    55    56    2
    42    98    97    1
    43    61    62    1
    44    91    92    1
    45    97    96    1
    46    96    95    1
    47    62    63    1
    48    18    19   ar
    49    18    16   ar
    50    95    92    1
    51    92    93    1
    52    19    17   ar
    53    74    72   ar
    54    74    75   ar
    55    16    14   ar
    56    72    70   ar
    57    65    63   am
    58    65    66    1
    59    63    64    2
    60    93    94    2
    61    17    15   ar
    62    14    15   ar
    63    14    13    1
    64   102   103    1
    65    75    73   ar
    66    70    69    1
    67    70    71   ar
    68   106   107    1
    69   106   103    1
    70    69    66    1
    71    13    10    1
    72   103   104    1
    73    66    67    1
    74     7     6    1
    75    73    71   ar
    76    67    68    2
    77    10    11    1
    78    10     9    1
    79   104   108   am
    80   104   105    2
    81    11    12    2
    82    81    80    1
    83     9     3   am
    84     5     6    1
    85     5     2    1
    86   108   109    1
    87     6     8    1
    88    82    80    1
    89     3     2    1
    90     3     4    2
    91    76    77    1
    92    80    77    1
    93     2     1    1
    94   109   112    1
    95   109   110    1
    96   113   112    1
    97   113   115    1
    98    77    78    1
    99   112   114    1
   100   110   111    2
   101   116   117    1
   102    78    79    2
   103   117   120    1
   104   117   118    1
   105   120   121    1
   106    90    88    1
   107    89    88    1
   108   122   121    1
   109    88    87    1
   110   123   121    1
   111   118   119    2
   112    87    84    1
   113    84    83    1
   114    84    85    1
   115    85    86    2
