@<TRIPOS>MOLECULE
tmp/3g5kC00.pdb
 191 187 0 0 0
SMALL
GASTEIGER

@<TRIPOS>ATOM
      1  N         11.8330  -36.1820  -15.9280 N.3    46  ARG46      -0.1231
      2  CA        12.6490  -35.3050  -16.7650 C.3    46  ARG46       0.1694
      3  C         12.1730  -33.8830  -16.8450 C.2    46  ARG46       0.2592
      4  O         12.8480  -33.0440  -17.4670 O.2    46  ARG46      -0.2718
      5  CB        12.7930  -35.9170  -18.1940 C.3    46  ARG46       0.0321
      6  CG        13.4720  -37.2970  -18.1340 C.3    46  ARG46       0.0489
      7  CD        15.0000  -37.1500  -17.8670 C.3    46  ARG46       0.2205
      8  NE        15.5310  -36.1360  -18.7560 N.pl3  46  ARG46      -0.0865
      9  CZ        16.2560  -35.1260  -18.3740 C.cat  46  ARG46       0.5346
     10  NH1       16.6420  -35.0550  -17.0800 N.pl3  46  ARG46       0.1354
     11  NH2       16.6280  -34.2560  -19.2940 N.pl3  46  ARG46       0.1354
     12  N         11.0570  -33.5980  -16.2010 N.am   47  ARG47      -0.1966
     13  CA        10.4960  -32.2300  -16.1790 C.3    47  ARG47       0.1729
     14  C         10.1650  -31.7380  -17.5760 C.2    47  ARG47       0.2616
     15  O         10.4550  -30.5900  -17.9340 O.2    47  ARG47      -0.2715
     16  CB        11.4690  -31.2250  -15.4730 C.3    47  ARG47       0.0348
     17  CG        12.2120  -31.7710  -14.1920 C.3    47  ARG47       0.0492
     18  CD        11.3170  -31.8790  -13.0290 C.3    47  ARG47       0.2205
     19  NE        12.1380  -32.4560  -11.9130 N.pl3  47  ARG47      -0.0865
     20  CZ        11.9050  -33.5970  -11.2390 C.cat  47  ARG47       0.5346
     21  NH1       10.8130  -34.3620  -11.4390 N.pl3  47  ARG47       0.1354
     22  NH2       12.7850  -33.9690  -10.3040 N.pl3  47  ARG47       0.1354
     23  N          9.7090  -32.6440  -18.4270 N.am   48  CYS48      -0.1954
     24  CA         9.4330  -32.2350  -19.8290 C.3    48  CYS48       0.1843
     25  C          7.9010  -32.2050  -19.8950 C.2    48  CYS48       0.2625
     26  O          7.2100  -32.5840  -18.9280 O.2    48  CYS48      -0.2714
     27  CB        10.1090  -33.1760  -20.8040 C.3    48  CYS48       0.0997
     28  SG         9.5930  -34.8120  -20.8270 S.3    48  CYS48      -0.0797
     29  N          7.3800  -31.7330  -20.9850 N.am   49  VAL49      -0.1963
     30  CA         5.9470  -31.3970  -21.0030 C.3    49  VAL49       0.1727
     31  C          5.1890  -32.3060  -21.9820 C.2    49  VAL49       0.2617
     32  O          3.9490  -32.2050  -22.0900 O.2    49  VAL49      -0.2715
     33  CB         5.7290  -29.9430  -21.4550 C.3    49  VAL49       0.0290
     34  CG1        6.3700  -29.0350  -20.3620 C.3    49  VAL49       0.0023
     35  CG2        6.4030  -29.7540  -22.7770 C.3    49  VAL49       0.0023
     36  N          5.8940  -33.2520  -22.5960 N.am   50  GLY50      -0.1940
     37  CA         5.1720  -34.2680  -23.4120 C.3    50  GLY50       0.2014
     38  C          6.1400  -35.4010  -23.6110 C.2    50  GLY50       0.2638
     39  O          7.3490  -35.2200  -23.5130 O.2    50  GLY50      -0.2714
     40  N          5.5730  -36.5880  -23.8880 N.am   51  LEU51      -0.1977
     41  CA         6.4200  -37.7590  -24.1980 C.3    51  LEU51       0.1596
     42  C          5.5650  -38.7240  -24.9870 C.2    51  LEU51       0.2287
     43  O          4.3320  -38.8850  -24.7170 O.2    51  LEU51      -0.2864
     44  CB         7.0290  -38.4080  -22.9310 C.3    51  LEU51       0.0297
     45  CG         8.1550  -39.3860  -23.1690 C.3    51  LEU51       0.0022
     46  CD1        9.3110  -38.6800  -23.6980 C.3    51  LEU51       0.0001
     47  CD2        8.5200  -39.9590  -21.7100 C.3    51  LEU51       0.0001
     48  N          9.3840  -43.1220  -27.8990 N.3    55  GLN55      -0.1245
     49  CA        10.6190  -42.6720  -27.2290 C.3    55  GLN55       0.1566
     50  C         10.9770  -43.5540  -26.0690 C.2    55  GLN55       0.2260
     51  O         12.1260  -43.4710  -25.5700 O.2    55  GLN55      -0.2867
     52  CB        10.4030  -41.2360  -26.7270 C.3    55  GLN55       0.0367
     53  CG        10.2270  -40.2010  -27.9350 C.3    55  GLN55       0.0905
     54  CD         9.8630  -38.8800  -27.3750 C.2    55  GLN55       0.2608
     55  OE1        8.6480  -38.6400  -27.2020 O.2    55  GLN55      -0.2717
     56  NE2       10.8720  -38.0360  -27.0820 N.am   55  GLN55      -0.0878
     57  N          5.5880  -16.3790  -25.7400 N.3    83  ARG83      -0.1245
     58  CA         5.2950  -17.7670  -26.1620 C.3    83  ARG83       0.1563
     59  C          3.8710  -18.2310  -25.9070 C.2    83  ARG83       0.2260
     60  O          3.5090  -19.3120  -26.3220 O.2    83  ARG83      -0.2867
     61  CB         6.2020  -18.7670  -25.4360 C.3    83  ARG83       0.0307
     62  CG         7.6600  -18.5530  -25.8200 C.3    83  ARG83       0.0489
     63  CD         8.6090  -19.3970  -25.0020 C.3    83  ARG83       0.2205
     64  NE         9.9430  -18.9720  -25.5620 N.pl3  83  ARG83      -0.0865
     65  CZ        11.0800  -19.5730  -25.4090 C.cat  83  ARG83       0.5346
     66  NH1       11.1110  -20.7610  -24.7660 N.pl3  83  ARG83       0.1354
     67  NH2       12.1480  -18.9890  -25.9730 N.pl3  83  ARG83       0.1354
     68  N          2.4180  -19.1160  -23.1300 N.3    85  MET85      -0.1245
     69  CA         2.5960  -20.3400  -22.3350 C.3    85  MET85       0.1570
     70  C          1.6310  -20.2770  -21.1810 C.2    85  MET85       0.2261
     71  O          1.6610  -19.3050  -20.4000 O.2    85  MET85      -0.2867
     72  CB         4.1010  -20.4650  -21.9110 C.3    85  MET85       0.0387
     73  CG         4.4380  -21.7410  -21.4110 C.3    85  MET85       0.0595
     74  SD         6.1930  -21.5960  -20.7470 S.3    85  MET85      -0.1393
     75  CE         6.9470  -23.0240  -21.4560 C.3    85  MET85       0.0692
     76  N         12.4900  -21.5730  -30.0270 N.3   109  PRO109     -0.2102
     77  CA        13.3670  -22.7320  -29.8320 C.3   109  PRO109      0.1504
     78  C         12.5820  -23.8600  -29.1260 C.2   109  PRO109      0.2576
     79  O         11.8150  -23.6150  -28.1920 O.2   109  PRO109     -0.2718
     80  CB        14.4880  -22.2280  -28.8910 C.3   109  PRO109      0.0282
     81  CG        14.5250  -20.6990  -29.1040 C.3   109  PRO109      0.0208
     82  CD        12.9600  -20.3800  -29.2910 C.3   109  PRO109      0.0893
     83  N         12.8900  -25.0810  -29.5590 N.am  110  GLU110     -0.1966
     84  CA        12.4180  -26.2490  -28.7900 C.3   110  GLU110      0.1733
     85  C         13.5070  -27.2910  -28.8440 C.2   110  GLU110      0.2617
     86  O         14.4290  -27.2050  -29.6250 O.2   110  GLU110     -0.2715
     87  CB        11.0670  -26.8060  -29.3140 C.3   110  GLU110      0.0429
     88  CG        11.0990  -27.1220  -30.6710 C.3   110  GLU110      0.1163
     89  CD         9.7190  -27.7410  -31.1790 C.2   110  GLU110      0.3649
     90  OE1        8.7200  -27.0310  -31.4880 O.co2 110  GLU110     -0.2457
     91  OE2        9.6650  -28.9870  -31.3210 O.co2 110  GLU110     -0.2457
     92  N         13.3890  -28.2380  -27.9260 N.am  111  GLY111     -0.1940
     93  CA        14.3620  -29.3780  -27.8520 C.3   111  GLY111      0.2014
     94  C         13.5520  -30.6490  -27.6890 C.2   111  GLY111      0.2639
     95  O         12.3260  -30.6210  -27.5280 O.2   111  GLY111     -0.2714
     96  N         14.2970  -31.7520  -27.7440 N.am  112  CYS112     -0.1953
     97  CA        13.5530  -33.0860  -27.6870 C.3   112  CYS112      0.1843
     98  C         14.4030  -33.9740  -26.7490 C.2   112  CYS112      0.2625
     99  O         15.6350  -34.0130  -26.8160 O.2   112  CYS112     -0.2714
    100  CB        13.5740  -33.7310  -29.0920 C.3   112  CYS112      0.0997
    101  SG        12.7450  -35.3200  -29.1400 S.3   112  CYS112     -0.0797
    102  N         13.7130  -34.7020  -25.8750 N.am  113  GLU113     -0.1977
    103  CA        14.4160  -35.6480  -25.0210 C.3   113  GLU113      0.1602
    104  C         15.1450  -36.7760  -25.7860 C.2   113  GLU113      0.2287
    105  O         16.0780  -37.3620  -25.2490 O.2   113  GLU113     -0.2864
    106  CB        13.3660  -36.3050  -24.0940 C.3   113  GLU113      0.0415
    107  CG        12.8130  -35.3430  -23.0920 C.3   113  GLU113      0.1163
    108  CD        13.9000  -34.9470  -22.0290 C.2   113  GLU113      0.3649
    109  OE1       14.5740  -35.8290  -21.5030 O.co2 113  GLU113     -0.2457
    110  OE2       13.9800  -33.7780  -21.6730 O.co2 113  GLU113     -0.2457
    111  N         20.2680  -30.4500  -27.1920 N.3   118  PHE118     -0.1227
    112  CA        20.2780  -29.4480  -28.2910 C.3   118  PHE118      0.1736
    113  C         18.9500  -28.7370  -28.3370 C.2   118  PHE118      0.2595
    114  O         17.8900  -29.2430  -27.8000 O.2   118  PHE118     -0.2718
    115  CB        20.4830  -30.1880  -29.6200 C.3   118  PHE118      0.0547
    116  CG        21.8810  -30.7900  -29.7670 C.ar  118  PHE118     -0.0202
    117  CD1       22.9350  -29.9740  -30.2050 C.ar  118  PHE118     -0.0042
    118  CD2       22.0830  -32.0720  -29.4090 C.ar  118  PHE118     -0.0042
    119  CE1       24.1620  -30.4860  -30.3580 C.ar  118  PHE118     -0.0003
    120  CE2       23.4170  -32.6610  -29.4560 C.ar  118  PHE118     -0.0003
    121  CZ        24.4500  -31.8090  -29.9510 C.ar  118  PHE118     -0.0000
    122  N         18.9440  -27.5380  -28.8990 N.am  119  LEU119     -0.1980
    123  CA        17.7350  -26.8000  -29.1890 C.3   119  LEU119      0.1596
    124  C         17.8050  -26.2640  -30.6490 C.2   119  LEU119      0.2287
    125  O         18.9150  -26.0940  -31.1940 O.2   119  LEU119     -0.2864
    126  CB        17.6640  -25.5900  -28.2550 C.3   119  LEU119      0.0297
    127  CG        17.5340  -25.8530  -26.7550 C.3   119  LEU119      0.0022
    128  CD1       17.5630  -24.4590  -26.0570 C.3   119  LEU119      0.0001
    129  CD2       16.0800  -26.3490  -26.5330 C.3   119  LEU119      0.0001
    130  N          1.7700  -22.0970  -26.9660 N.3   147  TRP147     -0.1241
    131  CA         2.7620  -23.1000  -26.5750 C.3   147  TRP147      0.1605
    132  C          2.1570  -24.4640  -26.4370 C.2   147  TRP147      0.2264
    133  O          2.7790  -25.4660  -26.7910 O.2   147  TRP147     -0.2867
    134  CB         3.3360  -22.6540  -25.1900 C.3   147  TRP147      0.0550
    135  CG         4.6690  -23.2750  -24.9840 C.ar  147  TRP147      0.0003
    136  CD1        4.9570  -24.2510  -24.0880 C.ar  147  TRP147      0.0946
    137  CD2        5.8970  -23.0130  -25.7440 C.ar  147  TRP147      0.0152
    138  NE1        6.3220  -24.6570  -24.2450 N.ar  147  TRP147     -0.2442
    139  CE2        6.9210  -23.8360  -25.1770 C.ar  147  TRP147      0.0810
    140  CE3        6.2400  -22.1030  -26.7120 C.ar  147  TRP147      0.0012
    141  CZ2        8.2550  -23.8610  -25.6930 C.ar  147  TRP147      0.0191
    142  CZ3        7.6080  -22.0790  -27.2050 C.ar  147  TRP147      0.0001
    143  CH2        8.5590  -22.9340  -26.6830 C.ar  147  TRP147      0.0015
    144  N          2.0800  -26.0490  -29.7360 N.3   150  ARG150     -0.1231
    145  CA         3.4540  -26.5110  -30.0900 C.3   150  ARG150      0.1694
    146  C          3.7850  -27.8290  -29.4630 C.2   150  ARG150      0.2591
    147  O          4.2980  -28.7300  -30.1330 O.2   150  ARG150     -0.2718
    148  CB         4.4900  -25.4740  -29.6350 C.3   150  ARG150      0.0321
    149  CG         5.9960  -26.0110  -29.6910 C.3   150  ARG150      0.0489
    150  CD         6.9620  -24.8410  -29.3130 C.3   150  ARG150      0.2205
    151  NE         6.7870  -23.7370  -30.2430 N.pl3 150  ARG150     -0.0865
    152  CZ         7.4220  -23.5650  -31.4310 C.cat 150  ARG150      0.5346
    153  NH1        8.4170  -24.4070  -31.8380 N.pl3 150  ARG150      0.1354
    154  NH2        7.0960  -22.4460  -32.1820 N.pl3 150  ARG150      0.1354
    155  N          3.4720  -28.0110  -28.1790 N.am  151  ILE151     -0.1980
    156  CA         3.7060  -29.3240  -27.5670 C.3   151  ILE151      0.1595
    157  C          2.9120  -30.4560  -28.2250 C.2   151  ILE151      0.2287
    158  O          3.4490  -31.5350  -28.4970 O.2   151  ILE151     -0.2864
    159  CB         3.3330  -29.2170  -26.0340 C.3   151  ILE151      0.0276
    160  CG1        4.2820  -28.1730  -25.4330 C.3   151  ILE151      0.0022
    161  CG2        3.5690  -30.5990  -25.4440 C.3   151  ILE151      0.0022
    162  CD1        3.8000  -27.6260  -23.8700 C.3   151  ILE151      0.0001
    163  N          4.6670  -31.2970  -31.5420 N.3   154  HIS154     -0.1226
    164  CA         5.9230  -32.0200  -31.3490 C.3   154  HIS154      0.1752
    165  C          5.6260  -33.4700  -31.0110 C.2   154  HIS154      0.2595
    166  O          6.2530  -34.4040  -31.5360 O.2   154  HIS154     -0.2718
    167  CB         6.6770  -31.3530  -30.1590 C.3   154  HIS154      0.0759
    168  CG         7.9790  -32.0180  -29.8270 C.ar  154  HIS154      0.0818
    169  ND1        9.1900  -31.4520  -30.1870 N.ar  154  HIS154     -0.2268
    170  CD2        8.2270  -33.1840  -29.1940 C.ar  154  HIS154      0.1154
    171  CE1       10.1750  -32.2330  -29.7150 C.ar  154  HIS154      0.1986
    172  NE2        9.6210  -33.3360  -29.1240 N.ar  154  HIS154     -0.2212
    173  N          4.6830  -33.7190  -30.0990 N.am  155  GLU155     -0.1979
    174  CA         4.4160  -35.0830  -29.6900 C.3   155  GLU155      0.1602
    175  C          3.7200  -35.8830  -30.7520 C.2   155  GLU155      0.2287
    176  O          4.0690  -37.0700  -31.0180 O.2   155  GLU155     -0.2864
    177  CB         3.6060  -35.0330  -28.3690 C.3   155  GLU155      0.0415
    178  CG         4.1750  -35.6770  -27.1830 C.3   155  GLU155      0.1163
    179  CD         5.7310  -35.5300  -27.0440 C.2   155  GLU155      0.3649
    180  OE1        6.1350  -34.4340  -26.5660 O.co2 155  GLU155     -0.2457
    181  OE2        6.3050  -36.5420  -27.2990 O.co2 155  GLU155     -0.2457
    182  N          6.1490  -37.2500  -33.2620 N.3   158  HIS158     -0.1241
    183  CA         6.8700  -38.4790  -32.9020 C.3   158  HIS158      0.1621
    184  C          6.0930  -39.7510  -33.3500 C.2   158  HIS158      0.2264
    185  O          6.7460  -40.7480  -33.6280 O.2   158  HIS158     -0.2867
    186  CB         7.0210  -38.5230  -31.3190 C.3   158  HIS158      0.0745
    187  CG         8.2320  -37.8120  -30.8160 C.ar  158  HIS158      0.0817
    188  ND1        9.5430  -38.2280  -31.0980 N.ar  158  HIS158     -0.2268
    189  CD2        8.3060  -36.7370  -29.9640 C.ar  158  HIS158      0.1154
    190  CE1       10.3830  -37.3990  -30.4470 C.ar  158  HIS158      0.1986
    191  NE2        9.6620  -36.4670  -29.7480 N.ar  158  HIS158     -0.2212
@<TRIPOS>BOND
     1   185   184    2
     2   184   183    1
     3   182   183    1
     4   183   186    1
     5   154   152    1
     6   153   152    1
     7   163   164    1
     8   166   165    2
     9    90    89   ar
    10   152   151    2
    11   164   165    1
    12   164   167    1
    13    91    89   ar
    14   186   187    1
    15   125   124    2
    16    89    88    1
    17   188   187   ar
    18   188   190   ar
    19   176   175    2
    20   165   173   am
    21   187   189   ar
    22   175   174    1
    23    88    87    1
    24   124   123    1
    25   190   191   ar
    26   119   117   ar
    27   119   121   ar
    28   151   150    1
    29   117   116   ar
    30   169   168   ar
    31   169   171   ar
    32   167   168    1
    33   147   146    2
    34   173   174    1
    35   145   144    1
    36   145   148    1
    37   145   146    1
    38    76    77    1
    39    76    82    1
    40   189   191   ar
    41   121   120   ar
    42    77    78    1
    43    77    80    1
    44   168   170   ar
    45   116   115    1
    46   116   118   ar
    47   171   172   ar
    48   149   148    1
    49   149   150    1
    50   174   177    1
    51    86    85    2
    52   115   112    1
    53    83    78   am
    54    83    84    1
    55   146   155   am
    56   120   118   ar
    57    87    84    1
    58    82    81    1
    59   170   172   ar
    60   123   122    1
    61   123   126    1
    62   101   100    1
    63    78    79    2
    64    81    80    1
    65   100    97    1
    66   122   113   am
    67    85    84    1
    68    85    92   am
    69   158   157    2
    70   177   178    1
    71   113   112    1
    72   113   114    2
    73   112   111    1
    74   126   127    1
    75   157   156    1
    76   155   156    1
    77    53    54    1
    78    53    52    1
    79    92    93    1
    80    48    49    1
    81    93    94    1
    82    96    94   am
    83    96    97    1
    84    94    95    2
    85    97    98    1
    86   156   159    1
    87    54    55    2
    88    54    56   am
    89   181   179   ar
    90    49    52    1
    91    49    50    1
    92   142   140   ar
    93   142   143   ar
    94   178   179    1
    95   179   180   ar
    96   130   131    1
    97    99    98    2
    98   133   132    2
    99   127   129    1
   100   127   128    1
   101    98   102   am
   102   140   137   ar
   103   143   141   ar
   104   131   132    1
   105   131   134    1
   106    60    59    2
   107    58    59    1
   108    58    57    1
   109    58    61    1
   110    50    51    2
   111   159   161    1
   112   159   160    1
   113    67    65    1
   114   102   103    1
   115    62    61    1
   116    62    63    1
   117   104   105    2
   118   104   103    1
   119   137   139   ar
   120   137   135   ar
   121   141   139   ar
   122    64    65    2
   123    64    63    1
   124   160   162    1
   125    65    66    1
   126   134   135    1
   127   139   138   ar
   128   103   106    1
   129    42    43    2
   130    42    41    1
   131   135   136   ar
   132   138   136   ar
   133    41    40    1
   134    41    44    1
   135   106   107    1
   136    40    38   am
   137    46    45    1
   138    38    39    2
   139    38    37    1
   140    37    36    1
   141    45    44    1
   142    45    47    1
   143    68    69    1
   144   107   108    1
   145    35    33    1
   146    36    31   am
   147    69    72    1
   148    69    70    1
   149    32    31    2
   150   108   110   ar
   151   108   109   ar
   152    31    30    1
   153    72    73    1
   154    75    74    1
   155    33    30    1
   156    33    34    1
   157    73    74    1
   158    70    71    2
   159    30    29    1
   160    29    25   am
   161    28    27    1
   162    27    24    1
   163    25    24    1
   164    25    26    2
   165    24    23    1
   166    11     9    1
   167     8     9    2
   168     8     7    1
   169    23    14   am
   170     9    10    1
   171     5     6    1
   172     5     2    1
   173     6     7    1
   174    15    14    2
   175    14    13    1
   176     4     3    2
   177     3     2    1
   178     3    12   am
   179     2     1    1
   180    12    13    1
   181    13    16    1
   182    16    17    1
   183    17    18    1
   184    18    19    1
   185    19    20    2
   186    21    20    1
   187    20    22    1
