@<TRIPOS>MOLECULE
tmp/3g5nC04.pdb
 129 121 0 0 0
SMALL
GASTEIGER

@<TRIPOS>ATOM
      1  N         -8.1990   -7.7630   66.2060 N.3    71  SER71      -0.1202
      2  CA        -7.2400   -8.8120   66.5700 C.3    71  SER71       0.2020
      3  C         -5.9700   -8.3210   67.3240 C.2    71  SER71       0.2619
      4  O         -5.0720   -9.0950   67.5980 O.2    71  SER71      -0.2717
      5  CB        -6.8280   -9.5810   65.3030 C.3    71  SER71       0.2103
      6  OG        -5.9410   -8.8090   64.4970 O.3    71  SER71      -0.2182
      7  N         -5.8710   -7.0320   67.6170 N.am   72  GLY72      -0.1942
      8  CA        -4.6200   -6.4850   68.1320 C.3    72  GLY72       0.2014
      9  C         -4.3620   -6.8240   69.5820 C.2    72  GLY72       0.2638
     10  O         -5.2860   -7.2200   70.3350 O.2    72  GLY72      -0.2714
     11  N         -3.0980   -6.6970   69.9780 N.am   73  ARG73      -0.1977
     12  CA        -2.6980   -6.9680   71.3700 C.3    73  ARG73       0.1597
     13  C         -2.5920   -5.6500   72.1360 C.2    73  ARG73       0.2287
     14  O         -2.7710   -4.5740   71.5690 O.2    73  ARG73      -0.2864
     15  CB        -1.4460   -7.8770   71.4310 C.3    73  ARG73       0.0334
     16  CG        -1.6160   -9.0810   70.5110 C.3    73  ARG73       0.0492
     17  CD        -0.4050  -10.0530   70.3450 C.3    73  ARG73       0.2205
     18  NE        -0.6690  -11.0560   71.3470 N.pl3  73  ARG73      -0.0865
     19  CZ        -1.3160  -12.1990   71.1530 C.cat  73  ARG73       0.5346
     20  NH1       -1.5380  -12.9620   72.2120 N.pl3  73  ARG73       0.1354
     21  NH2       -1.7050  -12.5780   69.9370 N.pl3  73  ARG73       0.1354
     22  N          2.5950   -5.6310   74.9200 N.3    77  ALA77      -0.1245
     23  CA         3.0630   -6.6410   73.9690 C.3    77  ALA77       0.1562
     24  C          3.4720   -6.0680   72.6310 C.2    77  ALA77       0.2260
     25  O          3.8260   -6.8060   71.7020 O.2    77  ALA77      -0.2867
     26  CB         1.9710   -7.6640   73.7450 C.3    77  ALA77       0.0290
     27  N         10.4440   -7.7390   65.5690 N.3    89  ILE89      -0.1245
     28  CA         8.9850   -7.6580   65.3600 C.3    89  ILE89       0.1561
     29  C          8.5250   -8.7440   64.4130 C.2    89  ILE89       0.2260
     30  O          7.5550   -9.4960   64.7100 O.2    89  ILE89      -0.2867
     31  CB         8.5120   -6.3130   64.8070 C.3    89  ILE89       0.0252
     32  CG1        8.8650   -5.1680   65.7560 C.3    89  ILE89       0.0019
     33  CG2        6.9710   -6.3730   64.5170 C.3    89  ILE89       0.0019
     34  CD1        8.2180   -3.8550   65.3280 C.3    89  ILE89       0.0001
     35  N          9.1420  -12.2800   65.7840 N.3    92  ASN92      -0.1225
     36  CA         8.0880  -12.7930   66.6430 C.3    92  ASN92       0.1785
     37  C          6.9330  -13.2460   65.8030 C.2    92  ASN92       0.2597
     38  O          6.3090  -14.2200   66.1500 O.2    92  ASN92      -0.2718
     39  CB         7.5910  -11.8020   67.6720 C.3    92  ASN92       0.1169
     40  CG         8.6840  -11.3380   68.6280 C.2    92  ASN92       0.2627
     41  OD1        9.7050  -12.0140   68.8300 O.2    92  ASN92      -0.2716
     42  ND2        8.4820  -10.1560   69.2030 N.am   92  ASN92      -0.0877
     43  N          6.6440  -12.5400   64.6980 N.am   93  GLY93      -0.1957
     44  CA         5.5220  -12.8880   63.8500 C.3    93  GLY93       0.1869
     45  C          5.6600  -14.3230   63.3550 C.2    93  GLY93       0.2309
     46  O          4.6730  -15.1030   63.3480 O.2    93  GLY93      -0.2863
     47  N          7.7630  -16.6800   64.5430 N.3    95  ARG95      -0.1231
     48  CA         7.7090  -17.6050   65.6590 C.3    95  ARG95       0.1694
     49  C          6.2360  -17.9170   66.0250 C.2    95  ARG95       0.2592
     50  O          5.8540  -19.0580   66.1940 O.2    95  ARG95      -0.2718
     51  CB         8.4580  -17.0270   66.8510 C.3    95  ARG95       0.0321
     52  CG         9.9690  -17.0130   66.7300 C.3    95  ARG95       0.0489
     53  CD        10.6030  -16.6630   68.0740 C.3    95  ARG95       0.2205
     54  NE        10.9190  -15.2440   68.2390 N.pl3  95  ARG95      -0.0865
     55  CZ        12.1030  -14.7280   67.9350 C.cat  95  ARG95       0.5346
     56  NH1       13.0200  -15.5400   67.4370 N.pl3  95  ARG95       0.1354
     57  NH2       12.3610  -13.4210   68.1120 N.pl3  95  ARG95       0.1354
     58  N          5.4100  -16.8950   66.1330 N.am   96  TRP96      -0.1976
     59  CA         4.0320  -17.0850   66.4930 C.3    96  TRP96       0.1640
     60  C          3.3640  -17.9830   65.4770 C.2    96  TRP96       0.2290
     61  O          2.5820  -18.8630   65.8390 O.2    96  TRP96      -0.2864
     62  CB         3.3300  -15.7310   66.5480 C.3    96  TRP96       0.0576
     63  CG         1.8780  -15.7990   66.8470 C.ar   96  TRP96       0.0006
     64  CD1        0.8570  -15.2010   66.1500 C.ar   96  TRP96       0.0946
     65  CD2        1.2670  -16.5330   67.8980 C.ar   96  TRP96       0.0152
     66  NE1       -0.3500  -15.5160   66.7110 N.ar   96  TRP96      -0.2442
     67  CE2       -0.1250  -16.3280   67.7950 C.ar   96  TRP96       0.0810
     68  CE3        1.7600  -17.3490   68.9220 C.ar   96  TRP96       0.0012
     69  CZ2       -1.0240  -16.8980   68.6830 C.ar   96  TRP96       0.0191
     70  CZ3        0.8750  -17.9140   69.8040 C.ar   96  TRP96       0.0001
     71  CH2       -0.5090  -17.6950   69.6750 C.ar   96  TRP96       0.0015
     72  N          4.4370  -21.6650   65.8430 N.3    99  LEU99      -0.1245
     73  CA         3.7620  -22.2320   66.9740 C.3    99  LEU99       0.1561
     74  C          2.3080  -22.4660   66.6770 C.2    99  LEU99       0.2260
     75  O          1.7330  -23.4250   67.1240 O.2    99  LEU99      -0.2867
     76  CB         3.9150  -21.3420   68.1890 C.3    99  LEU99       0.0270
     77  CG         3.2730  -21.9450   69.4250 C.3    99  LEU99       0.0019
     78  CD1        4.0590  -23.1020   69.8740 C.3    99  LEU99       0.0001
     79  CD2        3.1740  -20.9470   70.5170 C.3    99  LEU99       0.0001
     80  N         13.0090  -19.2610   74.9530 N.3   248  LEU248     -0.1245
     81  CA        11.8480  -19.4460   74.0950 C.3   248  LEU248      0.1561
     82  C         10.9810  -20.6240   74.5710 C.2   248  LEU248      0.2260
     83  O          9.7570  -20.5530   74.4890 O.2   248  LEU248     -0.2867
     84  CB        12.2350  -19.5700   72.6120 C.3   248  LEU248      0.0270
     85  CG        12.3710  -18.2320   71.8480 C.3   248  LEU248      0.0019
     86  CD1       11.0400  -17.7100   71.4410 C.3   248  LEU248      0.0001
     87  CD2       13.1100  -17.1190   72.6260 C.3   248  LEU248      0.0001
     88  N          9.0300  -19.6610   77.7760 N.3   251  THR251     -0.1203
     89  CA         7.8800  -18.8560   77.3680 C.3   251  THR251      0.1994
     90  C          6.7250  -19.7040   76.8140 C.2   251  THR251      0.2617
     91  O          5.6030  -19.5950   77.3040 O.2   251  THR251     -0.2717
     92  CB         8.2860  -17.8110   76.3260 C.3   251  THR251      0.1784
     93  OG1        9.2220  -16.8840   76.9210 O.3   251  THR251     -0.2211
     94  CG2        7.0680  -17.1070   75.8520 C.3   251  THR251      0.0376
     95  N          6.9850  -20.5370   75.7960 N.am  252  VAL252     -0.1979
     96  CA         5.9370  -21.4300   75.2810 C.3   252  VAL252      0.1595
     97  C          5.3310  -22.3270   76.4000 C.2   252  VAL252      0.2287
     98  O          4.1010  -22.5050   76.4880 O.2   252  VAL252     -0.2864
     99  CB         6.4380  -22.3350   74.1390 C.3   252  VAL252      0.0276
    100  CG1        5.4310  -23.4330   73.8780 C.3   252  VAL252      0.0022
    101  CG2        6.7230  -21.5430   72.8410 C.3   252  VAL252      0.0022
    102  N          2.8820  -20.1170   78.5070 N.3   255  LEU255     -0.1245
    103  CA         1.6350  -20.0310   77.7660 C.3   255  LEU255      0.1561
    104  C          0.7730  -21.3260   77.8520 C.2   255  LEU255      0.2260
    105  O         -0.4170  -21.2570   78.1700 O.2   255  LEU255     -0.2867
    106  CB         1.9410  -19.6580   76.3060 C.3   255  LEU255      0.0270
    107  CG         1.9180  -18.1720   75.9040 C.3   255  LEU255      0.0019
    108  CD1        2.0460  -17.1850   77.0810 C.3   255  LEU255      0.0001
    109  CD2        2.8770  -17.8910   74.7570 C.3   255  LEU255      0.0001
    110  N         -9.7620  -14.8930   64.9690 N.3   393  LYS393     -0.1231
    111  CA        -8.3790  -14.9960   64.5650 C.3   393  LYS393      0.1693
    112  C         -7.5690  -15.5260   65.7410 C.2   393  LYS393      0.2591
    113  O         -6.6110  -16.3040   65.5360 O.2   393  LYS393     -0.2718
    114  CB        -7.8470  -13.6430   64.0450 C.3   393  LYS393      0.0285
    115  CG        -6.4460  -13.7370   63.4430 C.3   393  LYS393      0.0035
    116  CD        -5.8730  -12.4220   63.0070 C.3   393  LYS393      0.0206
    117  CE        -4.5830  -12.6370   62.1900 C.3   393  LYS393      0.1093
    118  NZ        -3.7190  -11.3890   62.1760 N.3   393  LYS393     -0.1314
    119  N         -7.9720  -15.1640   66.9650 N.am  394  ARG394     -0.1980
    120  CA        -7.1960  -15.5730   68.1170 C.3   394  ARG394      0.1597
    121  C         -7.9110  -16.5260   69.0430 C.2   394  ARG394      0.2287
    122  O         -7.6600  -16.5430   70.2440 O.2   394  ARG394     -0.2864
    123  CB        -6.7570  -14.3380   68.9060 C.3   394  ARG394      0.0334
    124  CG        -5.8010  -13.4280   68.1520 C.3   394  ARG394      0.0492
    125  CD        -5.4400  -12.1530   68.8970 C.3   394  ARG394      0.2205
    126  NE        -5.1470  -12.4050   70.3050 N.pl3 394  ARG394     -0.0865
    127  CZ        -4.9170  -11.4550   71.2000 C.cat 394  ARG394      0.5346
    128  NH1       -4.9490  -10.1780   70.8390 N.pl3 394  ARG394      0.1354
    129  NH2       -4.6580  -11.7760   72.4610 N.pl3 394  ARG394      0.1354
@<TRIPOS>BOND
     1   118   117    1
     2   117   116    1
     3   116   115    1
     4    46    45    2
     5    45    44    1
     6   115   114    1
     7    44    43    1
     8   114   111    1
     9    29    30    2
    10    29    28    1
    11     6     5    1
    12    33    31    1
    13    47    48    1
    14   111   110    1
    15   111   112    1
    16    43    37   am
    17    31    28    1
    18    31    32    1
    19     5     2    1
    20    34    32    1
    21    28    27    1
    22    60    61    2
    23    60    59    1
    24   113   112    2
    25    48    49    1
    26    48    51    1
    27   112   119   am
    28    35    36    1
    29    37    38    2
    30    37    36    1
    31    72    73    1
    32    49    58   am
    33    49    50    2
    34    58    59    1
    35    64    66   ar
    36    64    63   ar
    37     1     2    1
    38    59    62    1
    39    62    63    1
    40     2     3    1
    41    36    39    1
    42    74    73    1
    43    74    75    2
    44    66    67   ar
    45    52    51    1
    46    52    53    1
    47    63    65   ar
    48   119   120    1
    49    73    76    1
    50     3     4    2
    51     3     7   am
    52    56    55    1
    53     7     8    1
    54    39    40    1
    55    67    65   ar
    56    67    69   ar
    57    65    68   ar
    58    55    57    1
    59    55    54    2
    60    53    54    1
    61   120   123    1
    62   120   121    1
    63     8     9    1
    64   124   125    1
    65   124   123    1
    66    76    77    1
    67    40    41    2
    68    40    42   am
    69    69    71   ar
    70   125   126    1
    71    68    70   ar
    72   121   122    2
    73    77    78    1
    74    77    79    1
    75     9    11   am
    76     9    10    2
    77    71    70   ar
    78    21    19    1
    79    11    12    1
    80   126   127    2
    81    17    16    1
    82    17    18    1
    83    16    15    1
    84   128   127    1
    85    19    18    2
    86    19    20    1
    87   127   129    1
    88    12    15    1
    89    12    13    1
    90    86    85    1
    91    14    13    2
    92    25    24    2
    93    85    84    1
    94    85    87    1
    95    84    81    1
    96    24    23    1
    97   101    99    1
    98    26    23    1
    99   100    99    1
   100    23    22    1
   101    81    82    1
   102    81    80    1
   103    99    96    1
   104    83    82    2
   105   109   107    1
   106    96    95    1
   107    96    97    1
   108    95    90   am
   109    94    92    1
   110   107   106    1
   111   107   108    1
   112   106   103    1
   113    92    93    1
   114    92    89    1
   115    97    98    2
   116    90    91    2
   117    90    89    1
   118    89    88    1
   119   103   104    1
   120   103   102    1
   121   104   105    2
