@<TRIPOS>MOLECULE
tmp/3g5nC02.pdb
 130 124 0 0 0
SMALL
GASTEIGER

@<TRIPOS>ATOM
      1  N        -10.7940    9.1260   88.0880 N.3    15  LEU15      -0.1245
      2  CA       -11.4460    7.8550   88.3630 C.3    15  LEU15       0.1561
      3  C        -12.1510    7.2320   87.1080 C.2    15  LEU15       0.2260
      4  O        -12.5150    6.0620   87.1130 O.2    15  LEU15      -0.2867
      5  CB       -12.4650    8.0390   89.5120 C.3    15  LEU15       0.0270
      6  CG       -12.0400    8.8090   90.7740 C.3    15  LEU15       0.0019
      7  CD1      -13.2700    8.9730   91.6790 C.3    15  LEU15       0.0001
      8  CD2      -10.9320    8.0790   91.5280 C.3    15  LEU15       0.0001
      9  N        -14.9230    5.7150   85.1330 N.3    17  ASN17      -0.1225
     10  CA       -16.2390    5.2400   85.5760 C.3    17  ASN17       0.1785
     11  C        -16.2030    4.3250   86.8140 C.2    17  ASN17       0.2597
     12  O        -17.1980    3.6190   87.1150 O.2    17  ASN17      -0.2718
     13  CB       -17.0180    4.5400   84.4640 C.3    17  ASN17       0.1169
     14  CG       -17.2120    5.3830   83.2810 C.2    17  ASN17       0.2627
     15  OD1      -16.8190    4.9990   82.1890 O.2    17  ASN17      -0.2716
     16  ND2      -17.7770    6.5410   83.4620 N.am   17  ASN17      -0.0877
     17  N        -15.0740    4.3480   87.5280 N.am   18  LEU18      -0.1980
     18  CA       -14.8930    3.5210   88.7280 C.3    18  LEU18       0.1596
     19  C        -16.0070    3.5570   89.7910 C.2    18  LEU18       0.2287
     20  O        -16.3500    2.5250   90.3730 O.2    18  LEU18      -0.2864
     21  CB       -13.5610    3.8230   89.3960 C.3    18  LEU18       0.0297
     22  CG       -13.4260    3.1990   90.7880 C.3    18  LEU18       0.0022
     23  CD1      -13.0360    1.7160   90.7070 C.3    18  LEU18       0.0001
     24  CD2      -12.3870    3.9360   91.5680 C.3    18  LEU18       0.0001
     25  N        -19.5090    1.3180   89.4030 N.3    21  MET21      -0.1245
     26  CA       -19.5430   -0.1510   89.5560 C.3    21  MET21       0.1570
     27  C        -20.4460   -0.4930   90.7610 C.2    21  MET21       0.2261
     28  O        -20.5070    0.3260   91.7130 O.2    21  MET21      -0.2867
     29  CB       -18.1310   -0.7400   89.8060 C.3    21  MET21       0.0387
     30  CG       -17.0830   -0.5790   88.6870 C.3    21  MET21       0.0595
     31  SD       -17.5050   -1.2170   87.0180 S.3    21  MET21      -0.1393
     32  CE       -18.2710    0.1530   86.1360 C.3    21  MET21       0.0692
     33  N        -18.0680   -6.5650   88.8850 N.3    26  LEU26      -0.1245
     34  CA       -17.9350   -6.0650   87.5360 C.3    26  LEU26       0.1561
     35  C        -18.9240   -6.6450   86.5730 C.2    26  LEU26       0.2260
     36  O        -19.4480   -5.9530   85.7460 O.2    26  LEU26      -0.2867
     37  CB       -16.5440   -6.3370   87.0250 C.3    26  LEU26       0.0270
     38  CG       -15.4560   -5.6380   87.7980 C.3    26  LEU26       0.0019
     39  CD1      -14.1770   -6.2870   87.4270 C.3    26  LEU26       0.0001
     40  CD2      -15.4460   -4.2000   87.4300 C.3    26  LEU26       0.0001
     41  N        -21.3640   -4.4600   84.5350 N.3    30  PHE30      -0.1241
     42  CA       -21.4000   -4.3840   83.0930 C.3    30  PHE30       0.1605
     43  C        -22.7710   -4.6810   82.5270 C.2    30  PHE30       0.2264
     44  O        -23.1990   -4.0630   81.5880 O.2    30  PHE30      -0.2867
     45  CB       -20.3180   -5.2460   82.4540 C.3    30  PHE30       0.0534
     46  CG       -18.9760   -4.5670   82.3760 C.ar   30  PHE30      -0.0203
     47  CD1      -18.0340   -4.7360   83.3400 C.ar   30  PHE30      -0.0042
     48  CD2      -18.6750   -3.7500   81.3480 C.ar   30  PHE30      -0.0042
     49  CE1      -16.8560   -4.0960   83.2560 C.ar   30  PHE30      -0.0003
     50  CE2      -17.4960   -3.1370   81.2860 C.ar   30  PHE30      -0.0003
     51  CZ       -16.5980   -3.3110   82.2300 C.ar   30  PHE30      -0.0000
     52  N        -16.6540    2.5870   78.3170 N.3    43  VAL43      -0.1231
     53  CA       -16.4390    2.6850   79.7360 C.3    43  VAL43       0.1692
     54  C        -15.0100    3.2470   79.9140 C.2    43  VAL43       0.2592
     55  O        -14.1740    3.0090   79.1000 O.2    43  VAL43      -0.2718
     56  CB       -16.6740    1.2620   80.3190 C.3    43  VAL43       0.0266
     57  CG1      -15.3910    0.6100   80.7440 C.3    43  VAL43       0.0020
     58  CG2      -17.6280    1.3110   81.4300 C.3    43  VAL43       0.0020
     59  N        -14.7370    4.0410   80.9370 N.am   44  TYR44      -0.1962
     60  CA       -13.4010    4.6080   81.0960 C.3    44  TYR44       0.1771
     61  C        -12.6270    3.9860   82.2610 C.2    44  TYR44       0.2619
     62  O        -13.0940    3.9980   83.4010 O.2    44  TYR44      -0.2715
     63  CB       -13.4520    6.1310   81.2840 C.3    44  TYR44       0.0574
     64  CG       -13.7620    6.8500   80.0150 C.ar   44  TYR44      -0.0198
     65  CD1      -15.0870    6.8920   79.5240 C.ar   44  TYR44      -0.0009
     66  CD2      -12.7690    7.5100   79.2940 C.ar   44  TYR44      -0.0009
     67  CE1      -15.3860    7.5150   78.3220 C.ar   44  TYR44       0.0417
     68  CE2      -13.0480    8.1290   78.0890 C.ar   44  TYR44       0.0417
     69  CZ       -14.3460    8.1390   77.6040 C.ar   44  TYR44       0.1957
     70  OH       -14.6280    8.7760   76.4180 O.3    44  TYR44      -0.2866
     71  N        -11.4470    3.4270   81.9910 N.am   45  LEU45      -0.1963
     72  CA       -10.5970    2.9620   83.0960 C.3    45  LEU45       0.1728
     73  C         -9.5170    4.0150   83.2540 C.2    45  LEU45       0.2616
     74  O         -8.7290    4.2140   82.3460 O.2    45  LEU45      -0.2715
     75  CB       -10.0170    1.5440   82.8590 C.3    45  LEU45       0.0311
     76  CG       -10.8590    0.3090   82.3990 C.3    45  LEU45       0.0022
     77  CD1      -10.2170   -1.0620   82.8580 C.3    45  LEU45       0.0001
     78  CD2      -12.3380    0.2890   82.7750 C.3    45  LEU45       0.0001
     79  N         -9.5030    4.7300   84.3750 N.am   46  GLY46      -0.1955
     80  CA        -8.6960    5.9380   84.4900 C.3    46  GLY46       0.1869
     81  C         -9.1750    6.9210   83.4410 C.2    46  GLY46       0.2309
     82  O        -10.3750    7.1920   83.3810 O.2    46  GLY46      -0.2863
     83  N         -4.1230    5.6160   89.5230 N.3   190  LEU190     -0.1245
     84  CA        -4.9020    6.2320   88.4330 C.3   190  LEU190      0.1561
     85  C         -4.3820    7.6680   88.1640 C.2   190  LEU190      0.2260
     86  O         -4.1170    8.0860   87.0390 O.2   190  LEU190     -0.2867
     87  CB        -6.4060    6.2330   88.7400 C.3   190  LEU190      0.0270
     88  CG        -7.0130    4.8290   88.8340 C.3   190  LEU190      0.0019
     89  CD1       -8.4570    4.9390   89.2080 C.3   190  LEU190      0.0001
     90  CD2       -6.8450    4.0890   87.5120 C.3   190  LEU190      0.0001
     91  N        -14.5760  -11.8970   80.9610 N.3   325  PHE325     -0.1227
     92  CA       -14.3270  -10.7590   80.0750 C.3   325  PHE325      0.1736
     93  C        -13.4780  -11.0960   78.8770 C.2   325  PHE325      0.2596
     94  O        -12.9790  -10.2270   78.2280 O.2   325  PHE325     -0.2718
     95  CB       -13.6860   -9.6330   80.8580 C.3   325  PHE325      0.0547
     96  CG       -14.4750   -9.2600   82.0970 C.ar  325  PHE325     -0.0202
     97  CD1      -14.2880   -9.9010   83.2820 C.ar  325  PHE325     -0.0042
     98  CD2      -15.4570   -8.2950   82.0210 C.ar  325  PHE325     -0.0042
     99  CE1      -15.0300   -9.5660   84.3920 C.ar  325  PHE325     -0.0003
    100  CE2      -16.2130   -7.9530   83.1140 C.ar  325  PHE325     -0.0003
    101  CZ       -15.9940   -8.5880   84.3010 C.ar  325  PHE325     -0.0000
    102  N        -13.3380  -12.3710   78.5380 N.am  326  GLY326     -0.1957
    103  CA       -12.4390  -12.7660   77.4460 C.3   326  GLY326      0.1869
    104  C        -11.0170  -12.2390   77.7520 C.2   326  GLY326      0.2309
    105  O        -10.6420  -11.9760   78.8960 O.2   326  GLY326     -0.2863
    106  N         -8.8170   -8.9840   76.6220 N.3   328  PRO328     -0.2116
    107  CA        -8.9050   -7.6750   75.9670 C.3   328  PRO328      0.1372
    108  C         -8.0660   -7.6920   74.7190 C.2   328  PRO328      0.2244
    109  O         -6.9810   -8.2930   74.6960 O.2   328  PRO328     -0.2868
    110  CB        -8.3080   -6.6820   76.9990 C.3   328  PRO328      0.0268
    111  CG        -8.2910   -7.4470   78.3270 C.3   328  PRO328      0.0207
    112  CD        -8.4230   -8.8970   78.0660 C.3   328  PRO328      0.0892
    113  N        -13.1080   -5.0110   75.2070 N.3   349  PHE349     -0.1241
    114  CA       -13.4170   -6.2030   76.0050 C.3   349  PHE349      0.1605
    115  C        -14.5070   -6.9740   75.3110 C.2   349  PHE349      0.2264
    116  O        -15.6250   -6.4870   75.2720 O.2   349  PHE349     -0.2867
    117  CB       -14.0160   -5.8330   77.3690 C.3   349  PHE349      0.0534
    118  CG       -13.0800   -5.1700   78.3190 C.ar  349  PHE349     -0.0203
    119  CD1      -13.5880   -4.4950   79.3840 C.ar  349  PHE349     -0.0042
    120  CD2      -11.6940   -5.2350   78.1530 C.ar  349  PHE349     -0.0042
    121  CE1      -12.7360   -3.8520   80.2960 C.ar  349  PHE349     -0.0003
    122  CE2      -10.8180   -4.6120   79.0610 C.ar  349  PHE349     -0.0003
    123  CZ       -11.3410   -3.9210   80.1340 C.ar  349  PHE349     -0.0000
    124  N        -11.3330  -10.7890   87.6530 N.3   437  VAL437     -0.1245
    125  CA       -11.4680  -10.9370   86.2280 C.3   437  VAL437      0.1561
    126  C        -11.7050  -12.3980   85.9940 C.2   437  VAL437      0.2260
    127  O        -11.6680  -12.8730   84.8860 O.2   437  VAL437     -0.2867
    128  CB       -10.1850  -10.5540   85.5230 C.3   437  VAL437      0.0252
    129  CG1       -9.5020  -11.7950   85.0180 C.3   437  VAL437      0.0019
    130  CG2      -10.4690   -9.6120   84.3790 C.3   437  VAL437      0.0019
@<TRIPOS>BOND
     1   109   108    2
     2   108   107    1
     3   113   114    1
     4   116   115    2
     5   115   114    1
     6   107   106    1
     7   107   110    1
     8   114   117    1
     9    70    69    1
    10   106   112    1
    11   110   111    1
    12   117   118    1
    13   103   104    1
    14   103   102    1
    15    69    68   ar
    16    69    67   ar
    17   104   105    2
    18   112   111    1
    19    68    66   ar
    20   120   118   ar
    21   120   122   ar
    22    94    93    2
    23    52    53    1
    24   118   119   ar
    25    67    65   ar
    26   102    93   am
    27    93    92    1
    28   122   123   ar
    29    55    54    2
    30    66    64   ar
    31   119   121   ar
    32    65    64   ar
    33    53    54    1
    34    53    56    1
    35    54    59   am
    36    64    63    1
    37    92    95    1
    38    92    91    1
    39   123   121   ar
    40    56    57    1
    41    56    58    1
    42    95    96    1
    43    59    60    1
    44    60    63    1
    45    60    61    1
    46    50    48   ar
    47    50    51   ar
    48    48    46   ar
    49    44    43    2
    50    71    61   am
    51    71    72    1
    52    98    96   ar
    53    98   100   ar
    54    96    97   ar
    55    15    14    2
    56    51    49   ar
    57    61    62    2
    58    74    73    2
    59    46    45    1
    60    46    47   ar
    61    76    78    1
    62    76    77    1
    63    76    75    1
    64    45    42    1
    65    43    42    1
    66    75    72    1
    67    42    41    1
    68    72    73    1
    69   100   101   ar
    70    73    79   am
    71    49    47   ar
    72    14    16   am
    73    14    13    1
    74    97    99   ar
    75    82    81    2
    76    81    80    1
    77   101    99   ar
    78    79    80    1
    79   130   128    1
    80    13    10    1
    81   127   126    2
    82   129   128    1
    83     9    10    1
    84   128   125    1
    85    10    11    1
    86    36    35    2
    87   126   125    1
    88    32    31    1
    89   125   124    1
    90    35    34    1
    91    11    12    2
    92    11    17   am
    93    31    30    1
    94    37    34    1
    95    37    38    1
    96    86    85    2
    97     3     4    2
    98     3     2    1
    99    39    38    1
   100    40    38    1
   101    90    88    1
   102    17    18    1
   103    34    33    1
   104     1     2    1
   105    85    84    1
   106     2     5    1
   107    84    87    1
   108    84    83    1
   109    30    29    1
   110    18    21    1
   111    18    19    1
   112    87    88    1
   113    88    89    1
   114    21    22    1
   115    25    26    1
   116     5     6    1
   117    26    29    1
   118    26    27    1
   119    19    20    2
   120    23    22    1
   121    27    28    2
   122     6     8    1
   123     6     7    1
   124    22    24    1
