@<TRIPOS>MOLECULE
tmp/3g5nC01.pdb
 74 69 0 0 0
SMALL
GASTEIGER

@<TRIPOS>ATOM
      1  N          2.8820  -20.1170   78.5070 N.3   255  LEU255     -0.1245
      2  CA         1.6350  -20.0310   77.7660 C.3   255  LEU255      0.1561
      3  C          0.7730  -21.3260   77.8520 C.2   255  LEU255      0.2260
      4  O         -0.4170  -21.2570   78.1700 O.2   255  LEU255     -0.2867
      5  CB         1.9410  -19.6580   76.3060 C.3   255  LEU255      0.0270
      6  CG         1.9180  -18.1720   75.9040 C.3   255  LEU255      0.0019
      7  CD1        2.0460  -17.1850   77.0810 C.3   255  LEU255      0.0001
      8  CD2        2.8770  -17.8910   74.7570 C.3   255  LEU255      0.0001
      9  N         -0.7450  -21.7460   81.2890 N.3   258  ALA258     -0.1231
     10  CA        -1.8520  -20.8330   81.5900 C.3   258  ALA258      0.1694
     11  C         -3.1960  -21.3740   81.0690 C.2   258  ALA258      0.2592
     12  O         -4.2230  -21.2690   81.7720 O.2   258  ALA258     -0.2718
     13  CB        -1.5660  -19.4410   81.0390 C.3   258  ALA258      0.0304
     14  N         -3.2050  -21.9200   79.8520 N.am  259  GLY259     -0.1957
     15  CA        -4.3950  -22.5530   79.3220 C.3   259  GLY259      0.1869
     16  C         -4.7280  -23.8440   80.0740 C.2   259  GLY259      0.2309
     17  O         -5.8920  -24.2540   80.1910 O.2   259  GLY259     -0.2863
     18  N         -6.6550  -23.3590   83.2040 N.3   262  THR262     -0.1218
     19  CA        -8.0780  -23.1310   82.9560 C.3   262  THR262      0.1862
     20  C         -8.7210  -24.4940   82.7520 C.2   262  THR262      0.2287
     21  O         -9.7710  -24.7850   83.3440 O.2   262  THR262     -0.2866
     22  CB        -8.3470  -22.2370   81.7040 C.3   262  THR262      0.1770
     23  OG1       -7.8040  -20.9390   81.9240 O.3   262  THR262     -0.2211
     24  CG2       -9.8230  -22.1020   81.4560 C.3   262  THR262      0.0375
     25  N        -13.3520  -17.3380   82.0960 N.3   323  ILE323     -0.1245
     26  CA       -12.7300  -16.1390   81.5170 C.3   323  ILE323      0.1561
     27  C        -13.8680  -15.2090   81.1080 C.2   323  ILE323      0.2260
     28  O        -14.1590  -15.0840   79.9040 O.2   323  ILE323     -0.2867
     29  CB       -11.9080  -16.5420   80.2720 C.3   323  ILE323      0.0252
     30  CG1      -10.9110  -17.6320   80.6750 C.3   323  ILE323      0.0019
     31  CG2      -11.0970  -15.3720   79.7060 C.3   323  ILE323      0.0019
     32  CD1      -10.4870  -18.5090   79.5520 C.3   323  ILE323      0.0001
     33  N        -14.5760  -11.8970   80.9610 N.3   325  PHE325     -0.1227
     34  CA       -14.3270  -10.7590   80.0750 C.3   325  PHE325      0.1736
     35  C        -13.4780  -11.0960   78.8770 C.2   325  PHE325      0.2596
     36  O        -12.9790  -10.2270   78.2280 O.2   325  PHE325     -0.2718
     37  CB       -13.6860   -9.6330   80.8580 C.3   325  PHE325      0.0547
     38  CG       -14.4750   -9.2600   82.0970 C.ar  325  PHE325     -0.0202
     39  CD1      -14.2880   -9.9010   83.2820 C.ar  325  PHE325     -0.0042
     40  CD2      -15.4570   -8.2950   82.0210 C.ar  325  PHE325     -0.0042
     41  CE1      -15.0300   -9.5660   84.3920 C.ar  325  PHE325     -0.0003
     42  CE2      -16.2130   -7.9530   83.1140 C.ar  325  PHE325     -0.0003
     43  CZ       -15.9940   -8.5880   84.3010 C.ar  325  PHE325     -0.0000
     44  N        -13.3380  -12.3710   78.5380 N.am  326  GLY326     -0.1942
     45  CA       -12.4390  -12.7660   77.4460 C.3   326  GLY326      0.2014
     46  C        -11.0170  -12.2390   77.7520 C.2   326  GLY326      0.2639
     47  O        -10.6420  -11.9760   78.8960 O.2   326  GLY326     -0.2714
     48  N        -10.2170  -12.1450   76.6960 N.am  327  VAL327     -0.1963
     49  CA        -8.9530  -11.4470   76.7240 C.3   327  VAL327      0.1712
     50  C         -9.1330  -10.1200   75.9560 C.2   327  VAL327      0.2458
     51  O         -9.5830  -10.1520   74.8130 O.2   327  VAL327     -0.2730
     52  CB        -7.8150  -12.2840   76.0740 C.3   327  VAL327      0.0289
     53  CG1       -6.6300  -11.4510   75.9470 C.3   327  VAL327      0.0023
     54  CG2       -7.4850  -13.5220   76.9870 C.3   327  VAL327      0.0023
     55  N         -8.8170   -8.9840   76.6220 N.am  328  PRO328     -0.2727
     56  CA        -8.9050   -7.6750   75.9670 C.3   328  PRO328      0.1402
     57  C         -8.0660   -7.6920   74.7190 C.2   328  PRO328      0.2269
     58  O         -6.9810   -8.2930   74.6960 O.2   328  PRO328     -0.2865
     59  CB        -8.3080   -6.6820   76.9990 C.3   328  PRO328      0.0296
     60  CG        -8.2910   -7.4470   78.3270 C.3   328  PRO328      0.0237
     61  CD        -8.4230   -8.8970   78.0660 C.3   328  PRO328      0.0939
     62  N         -8.7310  -19.6490   71.1560 N.3   396  CYS396     -0.1235
     63  CA        -7.8130  -20.4730   71.9480 C.3   396  CYS396      0.1677
     64  C         -6.9290  -21.4680   71.1610 C.2   396  CYS396      0.2270
     65  O         -7.4230  -22.4210   70.5530 O.2   396  CYS396     -0.2867
     66  CB        -8.6120  -21.2720   72.9680 C.3   396  CYS396      0.0956
     67  SG        -7.5280  -22.2210   74.0350 S.3   396  CYS396     -0.0801
     68  N        -11.3330  -10.7890   87.6530 N.3   437  VAL437     -0.1245
     69  CA       -11.4680  -10.9370   86.2280 C.3   437  VAL437      0.1561
     70  C        -11.7050  -12.3980   85.9940 C.2   437  VAL437      0.2260
     71  O        -11.6680  -12.8730   84.8860 O.2   437  VAL437     -0.2867
     72  CB       -10.1850  -10.5540   85.5230 C.3   437  VAL437      0.0252
     73  CG1       -9.5020  -11.7950   85.0180 C.3   437  VAL437      0.0019
     74  CG2      -10.4690   -9.6120   84.3790 C.3   437  VAL437      0.0019
@<TRIPOS>BOND
     1    65    64    2
     2    62    63    1
     3    64    63    1
     4    63    66    1
     5    66    67    1
     6    58    57    2
     7    57    56    1
     8     8     6    1
     9    51    50    2
    10     6     5    1
    11     6     7    1
    12    53    52    1
    13    50    55   am
    14    50    49    1
    15    56    55    1
    16    56    59    1
    17    52    49    1
    18    52    54    1
    19     5     2    1
    20    55    61    1
    21    48    49    1
    22    48    46   am
    23    59    60    1
    24    45    46    1
    25    45    44    1
    26    46    47    2
    27     2     3    1
    28     2     1    1
    29     3     4    2
    30    61    60    1
    31    36    35    2
    32    44    35   am
    33    35    34    1
    34    15    14    1
    35    15    16    1
    36    32    30    1
    37    31    29    1
    38    14    11   am
    39    28    27    2
    40    16    17    2
    41    34    37    1
    42    34    33    1
    43    29    30    1
    44    29    26    1
    45    37    38    1
    46    13    10    1
    47    11    10    1
    48    11    12    2
    49    27    26    1
    50     9    10    1
    51    24    22    1
    52    26    25    1
    53    22    23    1
    54    22    19    1
    55    40    38   ar
    56    40    42   ar
    57    38    39   ar
    58    20    19    1
    59    20    21    2
    60    19    18    1
    61    42    43   ar
    62    39    41   ar
    63    43    41   ar
    64    74    72    1
    65    71    70    2
    66    73    72    1
    67    72    69    1
    68    70    69    1
    69    69    68    1
