@<TRIPOS>MOLECULE
tmp/3g5qA01.pdb
 81 79 0 0 0
SMALL
GASTEIGER

@<TRIPOS>ATOM
      1  N        -16.2730   34.5240   22.7330 N.3   185  ASP185     -0.1239
      2  CA       -15.1490   35.2810   22.1980 C.3   185  ASP185      0.1674
      3  C        -14.4310   34.6270   21.0100 C.2   185  ASP185      0.2266
      4  O        -13.3430   35.0630   20.6370 O.2   185  ASP185     -0.2867
      5  CB       -14.1490   35.6190   23.3110 C.3   185  ASP185      0.1410
      6  CG       -13.7550   34.4050   24.1340 C.2   185  ASP185      0.3668
      7  OD1      -14.3200   33.3160   23.8980 O.co2 185  ASP185     -0.2456
      8  OD2      -12.8800   34.5410   25.0170 O.co2 185  ASP185     -0.2456
      9  N         -9.7950   31.0970   17.5560 N.3   248  ARG248     -0.1231
     10  CA        -9.6830   31.4440   18.9580 C.3   248  ARG248      0.1694
     11  C         -8.3520   32.1080   19.2480 C.2   248  ARG248      0.2592
     12  O         -7.3320   31.7710   18.6540 O.2   248  ARG248     -0.2718
     13  CB        -9.8870   30.2180   19.8520 C.3   248  ARG248      0.0321
     14  CG        -8.6500   29.3940   20.0330 C.3   248  ARG248      0.0489
     15  CD        -8.7760   28.3980   21.1850 C.3   248  ARG248      0.2205
     16  NE        -7.4480   27.8900   21.5070 N.pl3 248  ARG248     -0.0865
     17  CZ        -7.1800   26.9800   22.4380 C.cat 248  ARG248      0.5346
     18  NH1       -8.1520   26.4410   23.1570 N.pl3 248  ARG248      0.1354
     19  NH2       -5.9250   26.6140   22.6460 N.pl3 248  ARG248      0.1354
     20  N         -8.3750   33.0520   20.1800 N.am  249  GLN249     -0.1966
     21  CA        -7.1870   33.7910   20.5550 C.3   249  GLN249      0.1733
     22  C         -6.2100   32.8720   21.2800 C.2   249  GLN249      0.2616
     23  O         -6.5960   32.1440   22.2000 O.2   249  GLN249     -0.2715
     24  CB        -7.5830   34.9740   21.4400 C.3   249  GLN249      0.0408
     25  CG        -6.4290   35.8200   21.9630 C.3   249  GLN249      0.0908
     26  CD        -6.9220   36.9360   22.8560 C.2   249  GLN249      0.2608
     27  OE1       -6.1730   37.4830   23.6760 O.2   249  GLN249     -0.2717
     28  NE2       -8.1970   37.2710   22.7160 N.am  249  GLN249     -0.0878
     29  N         -4.9500   32.8930   20.8470 N.am  250  GLU250     -0.1963
     30  CA        -3.9260   32.0360   21.4400 C.3   250  GLU250      0.1733
     31  C         -2.9850   32.7910   22.3770 C.2   250  GLU250      0.2616
     32  O         -2.6370   32.2850   23.4330 O.2   250  GLU250     -0.2715
     33  CB        -3.1220   31.3040   20.3580 C.3   250  GLU250      0.0429
     34  CG        -3.9460   30.3350   19.5070 C.3   250  GLU250      0.1163
     35  CD        -4.5200   29.1750   20.3130 C.2   250  GLU250      0.3649
     36  OE1       -4.1700   29.0400   21.4990 O.co2 250  GLU250     -0.2457
     37  OE2       -5.3260   28.3960   19.7630 O.co2 250  GLU250     -0.2457
     38  N         -2.5620   33.9950   22.0020 N.am  251  ASP251     -0.1957
     39  CA        -1.6330   34.7320   22.8500 C.3   251  ASP251      0.1840
     40  C         -2.3640   35.7120   23.7520 C.2   251  ASP251      0.2621
     41  O         -3.4560   36.1830   23.4300 O.2   251  ASP251     -0.2715
     42  CB        -0.6050   35.5010   22.0200 C.3   251  ASP251      0.1450
     43  CG        -1.2490   36.5280   21.0890 C.2   251  ASP251      0.3671
     44  OD1       -2.3990   36.3020   20.6480 O.co2 251  ASP251     -0.2456
     45  OD2       -0.6030   37.5570   20.7870 O.co2 251  ASP251     -0.2456
     46  N         -1.7420   36.0350   24.8750 N.am  252  LYS252     -0.1977
     47  CA        -2.2730   37.0670   25.7630 C.3   252  LYS252      0.1596
     48  C         -2.5380   38.3960   25.0260 C.2   252  LYS252      0.2287
     49  O         -3.5910   39.0120   25.1990 O.2   252  LYS252     -0.2864
     50  CB        -1.3090   37.2810   26.9300 C.3   252  LYS252      0.0298
     51  CG        -1.8550   38.1450   28.0560 C.3   252  LYS252      0.0038
     52  CD        -0.8280   38.2490   29.1810 C.3   252  LYS252      0.0206
     53  CE        -1.2740   39.2070   30.2810 C.3   252  LYS252      0.1093
     54  NZ        -0.1640   39.4140   31.2600 N.3   252  LYS252     -0.1314
     55  N          2.1520   32.5780   29.0000 N.3   369  THR369     -0.1203
     56  CA         0.8360   33.2220   29.0860 C.3   369  THR369      0.1994
     57  C         -0.1330   32.8850   27.9510 C.2   369  THR369      0.2618
     58  O         -1.2120   33.4800   27.8560 O.2   369  THR369     -0.2717
     59  CB         0.9880   34.7610   29.1490 C.3   369  THR369      0.1784
     60  OG1        1.6230   35.2300   27.9480 O.3   369  THR369     -0.2211
     61  CG2        1.8390   35.1750   30.3570 C.3   369  THR369      0.0376
     62  N          0.2370   31.9510   27.0820 N.am  370  ALA370     -0.1965
     63  CA        -0.6490   31.6010   25.9720 C.3   370  ALA370      0.1728
     64  C         -1.8860   30.8980   26.5220 C.2   370  ALA370      0.2616
     65  O         -1.9130   30.5000   27.6870 O.2   370  ALA370     -0.2715
     66  CB         0.0810   30.7100   24.9550 C.3   370  ALA370      0.0334
     67  N         -2.9110   30.7610   25.6890 N.am  371  ASN371     -0.1959
     68  CA        -4.1070   30.0010   26.0400 C.3   371  ASN371      0.1804
     69  C         -3.7400   28.5680   26.4790 C.2   371  ASN371      0.2463
     70  O         -3.2020   27.7920   25.6950 O.2   371  ASN371     -0.2730
     71  CB        -5.0640   29.9800   24.8370 C.3   371  ASN371      0.1195
     72  CG        -6.4520   29.4530   25.1830 C.2   371  ASN371      0.2630
     73  OD1       -6.6120   28.6320   26.0810 O.2   371  ASN371     -0.2716
     74  ND2       -7.4620   29.9250   24.4590 N.am  371  ASN371     -0.0877
     75  N         -4.0460   28.2080   27.7350 N.am  372  PRO372     -0.2727
     76  CA        -3.6240   26.9070   28.2700 C.3   372  PRO372      0.1402
     77  C         -4.4550   25.7290   27.7690 C.2   372  PRO372      0.2269
     78  O         -3.9650   24.6040   27.7900 O.2   372  PRO372     -0.2865
     79  CB        -3.8580   27.0430   29.7870 C.3   372  PRO372      0.0296
     80  CG        -4.6250   28.3280   29.9850 C.3   372  PRO372      0.0237
     81  CD        -4.9420   28.9290   28.6550 C.3   372  PRO372      0.0939
@<TRIPOS>BOND
     1     9    10    1
     2    12    11    2
     3    10    11    1
     4    10    13    1
     5    11    20   am
     6    34    35    1
     7    34    33    1
     8    37    35   ar
     9    13    14    1
    10    14    15    1
    11    20    21    1
    12    35    36   ar
    13    33    30    1
    14    21    22    1
    15    21    24    1
    16     4     3    2
    17    44    43   ar
    18    45    43   ar
    19    29    22   am
    20    29    30    1
    21     3     2    1
    22    43    42    1
    23    15    16    1
    24    22    23    2
    25    30    31    1
    26    24    25    1
    27    16    17    2
    28    25    26    1
    29    38    31   am
    30    38    39    1
    31    42    39    1
    32     2     1    1
    33     2     5    1
    34    31    32    2
    35    17    19    1
    36    17    18    1
    37    28    26   am
    38    39    40    1
    39    26    27    2
    40     5     6    1
    41    41    40    2
    42    40    46   am
    43     7     6   ar
    44     6     8   ar
    45    74    72   am
    46    71    72    1
    47    71    68    1
    48    46    47    1
    49    66    63    1
    50    48    49    2
    51    48    47    1
    52    72    73    2
    53    67    68    1
    54    67    64   am
    55    70    69    2
    56    47    50    1
    57    63    64    1
    58    63    62    1
    59    68    69    1
    60    69    75   am
    61    64    65    2
    62    50    51    1
    63    62    57   am
    64    75    76    1
    65    75    81    1
    66    77    78    2
    67    77    76    1
    68    58    57    2
    69    60    59    1
    70    57    56    1
    71    51    52    1
    72    76    79    1
    73    81    80    1
    74    55    56    1
    75    56    59    1
    76    59    61    1
    77    52    53    1
    78    79    80    1
    79    53    54    1
