@<TRIPOS>MOLECULE
tmp/3g5tA01.pdb
 157 157 0 0 0
SMALL
GASTEIGER

@<TRIPOS>ATOM
      1  N         36.6310   43.8000   11.1850 N.3     4  PHE4       -0.1241
      2  CA        35.5080   42.9120   10.9080 C.3     4  PHE4        0.1605
      3  C         35.8640   41.4260   10.9910 C.2     4  PHE4        0.2264
      4  O         34.9710   40.6040   11.0510 O.2     4  PHE4       -0.2867
      5  CB        34.9260   43.1860    9.5130 C.3     4  PHE4        0.0534
      6  CG        34.4230   44.5950    9.3760 C.ar    4  PHE4       -0.0203
      7  CD1       33.3560   45.0440   10.1360 C.ar    4  PHE4       -0.0042
      8  CD2       35.0050   45.4930    8.4970 C.ar    4  PHE4       -0.0042
      9  CE1       32.8410   46.3340   10.0020 C.ar    4  PHE4       -0.0003
     10  CE2       34.5380   46.7670    8.3630 C.ar    4  PHE4       -0.0003
     11  CZ        33.4450   47.1870    9.1110 C.ar    4  PHE4       -0.0000
     12  N         25.5850   43.5740   13.2460 N.3    14  TYR14      -0.1241
     13  CA        25.7460   44.0570   11.8800 C.3    14  TYR14       0.1605
     14  C         24.5400   43.6090   11.0340 C.2    14  TYR14       0.2264
     15  O         23.8680   44.4020   10.3800 O.2    14  TYR14      -0.2867
     16  CB        27.0760   43.5960   11.2840 C.3    14  TYR14       0.0534
     17  CG        27.4090   44.2190    9.9410 C.ar   14  TYR14      -0.0201
     18  CD1       28.4040   45.1880    9.8390 C.ar   14  TYR14      -0.0009
     19  CD2       26.7290   43.8700    8.7680 C.ar   14  TYR14      -0.0009
     20  CE1       28.7180   45.7770    8.6280 C.ar   14  TYR14       0.0417
     21  CE2       27.0280   44.4850    7.5580 C.ar   14  TYR14       0.0417
     22  CZ        27.9800   45.4640    7.4910 C.ar   14  TYR14       0.1957
     23  OH        28.2970   46.1420    6.3530 O.3    14  TYR14      -0.2866
     24  N         22.3040   46.9560   10.1130 N.3    18  ARG18      -0.1245
     25  CA        22.8300   47.6040    8.9220 C.3    18  ARG18       0.1563
     26  C         21.7890   47.6650    7.8340 C.2    18  ARG18       0.2260
     27  O         20.9580   46.7460    7.7010 O.2    18  ARG18      -0.2867
     28  CB        24.0610   46.8820    8.4420 C.3    18  ARG18       0.0307
     29  CG        25.2930   47.1880    9.2930 C.3    18  ARG18       0.0489
     30  CD        26.0370   48.3470    8.7150 C.3    18  ARG18       0.2205
     31  NE        27.1870   48.7150    9.5310 N.pl3  18  ARG18      -0.0865
     32  CZ        28.3280   49.1340    9.0500 C.cat  18  ARG18       0.5346
     33  NH1       28.4540   49.4540    7.7540 N.pl3  18  ARG18       0.1354
     34  NH2       29.3840   49.2110    9.8560 N.pl3  18  ARG18       0.1354
     35  N         29.7860   47.7330   -0.1460 N.3   117  GLU117     -0.1245
     36  CA        30.2620   48.3310    1.1180 C.3   117  GLU117      0.1567
     37  C         31.5830   47.7440    1.5390 C.2   117  GLU117      0.2260
     38  O         31.8440   47.5400    2.7360 O.2   117  GLU117     -0.2867
     39  CB        29.1820   48.2880    2.2140 C.3   117  GLU117      0.0388
     40  CG        29.4080   49.2840    3.3470 C.3   117  GLU117      0.1160
     41  CD        29.2450   50.6970    2.9400 C.2   117  GLU117      0.3649
     42  OE1       29.1670   51.0400    1.7620 O.co2 117  GLU117     -0.2457
     43  OE2       29.2530   51.5650    3.9100 O.co2 117  GLU117     -0.2457
     44  N         36.2720   50.1190   -0.8450 N.3   120  HIS120     -0.1226
     45  CA        37.1430   51.1270   -0.2510 C.3   120  HIS120      0.1752
     46  C         38.2450   50.4950    0.6290 C.2   120  HIS120      0.2596
     47  O         39.2180   51.1760    0.9120 O.2   120  HIS120     -0.2718
     48  CB        36.3440   52.1310    0.5490 C.3   120  HIS120      0.0759
     49  CG        35.5090   51.5460    1.6010 C.ar  120  HIS120      0.0818
     50  ND1       34.4060   50.7460    1.2910 N.ar  120  HIS120     -0.2268
     51  CD2       35.6500   51.5960    2.9440 C.ar  120  HIS120      0.1154
     52  CE1       33.9330   50.3470    2.4640 C.ar  120  HIS120      0.1986
     53  NE2       34.6310   50.8480    3.4710 N.ar  120  HIS120     -0.2212
     54  N         38.0450   49.2520    1.0800 N.am  121  TRP121     -0.1976
     55  CA        39.0830   48.5590    1.8260 C.3   121  TRP121      0.1640
     56  C         40.1030   47.9010    0.9330 C.2   121  TRP121      0.2290
     57  O         41.1230   47.4360    1.4280 O.2   121  TRP121     -0.2864
     58  CB        38.4390   47.4330    2.6890 C.3   121  TRP121      0.0576
     59  CG        37.4190   47.8740    3.6840 C.ar  121  TRP121      0.0006
     60  CD1       36.1530   47.4560    3.7960 C.ar  121  TRP121      0.0946
     61  CD2       37.5790   48.8570    4.7030 C.ar  121  TRP121      0.0152
     62  NE1       35.4980   48.0310    4.8360 N.ar  121  TRP121     -0.2442
     63  CE2       36.3620   48.9360    5.4290 C.ar  121  TRP121      0.0810
     64  CE3       38.6870   49.6740    5.1060 C.ar  121  TRP121      0.0012
     65  CZ2       36.1860   49.7990    6.5010 C.ar  121  TRP121      0.0191
     66  CZ3       38.5020   50.4760    6.1600 C.ar  121  TRP121      0.0001
     67  CH2       37.2890   50.5620    6.8760 C.ar  121  TRP121      0.0015
     68  N         27.7050   53.1190    0.5670 N.3   146  TYR146     -0.1227
     69  CA        26.9650   54.1560    1.2640 C.3   146  TYR146      0.1736
     70  C         27.7950   54.7140    2.3880 C.2   146  TYR146      0.2595
     71  O         28.6690   54.0480    2.9610 O.2   146  TYR146     -0.2718
     72  CB        25.6290   53.6050    1.8090 C.3   146  TYR146      0.0548
     73  CG        25.7770   52.4980    2.8370 C.ar  146  TYR146     -0.0200
     74  CD1       25.9950   52.7830    4.1810 C.ar  146  TYR146     -0.0009
     75  CD2       25.6970   51.1690    2.4860 C.ar  146  TYR146     -0.0009
     76  CE1       26.1670   51.7830    5.1120 C.ar  146  TYR146      0.0417
     77  CE2       25.8660   50.1530    3.4290 C.ar  146  TYR146      0.0417
     78  CZ        26.1010   50.4670    4.7540 C.ar  146  TYR146      0.1957
     79  OH        26.2700   49.5200    5.7130 O.3   146  TYR146     -0.2866
     80  N         27.4790   55.9460    2.8060 N.am  147  ALA147     -0.1966
     81  CA        28.0950   56.5810    3.9500 C.3   147  ALA147      0.1728
     82  C         27.3020   57.8220    4.3370 C.2   147  ALA147      0.2616
     83  O         26.5490   58.3480    3.5280 O.2   147  ALA147     -0.2715
     84  CB        29.5400   56.9860    3.6310 C.3   147  ALA147      0.0334
     85  N         27.5500   58.2930    5.5320 N.am  148  ASP148     -0.1971
     86  CA        27.2450   59.6840    5.9520 C.3   148  ASP148      0.1709
     87  C         25.7720   60.0020    5.7550 C.2   148  ASP148      0.2293
     88  O         25.3960   60.9040    5.0080 O.2   148  ASP148     -0.2864
     89  CB        28.1580   60.6410    5.2630 C.3   148  ASP148      0.1436
     90  CG        29.5990   60.5290    5.6670 C.2   148  ASP148      0.3671
     91  OD1       29.8980   59.9370    6.7460 O.co2 148  ASP148     -0.2456
     92  OD2       30.4690   61.0170    4.9210 O.co2 148  ASP148     -0.2456
     93  N         38.6270   55.8310   12.7570 N.3   174  TRP174     -0.1241
     94  CA        38.3810   55.3340   11.4010 C.3   174  TRP174      0.1605
     95  C         39.6970   54.9860   10.7120 C.2   174  TRP174      0.2264
     96  O         40.6260   55.8030   10.6730 O.2   174  TRP174     -0.2867
     97  CB        37.6490   56.3690   10.5350 C.3   174  TRP174      0.0550
     98  CG        36.2750   56.6550   11.0210 C.ar  174  TRP174      0.0003
     99  CD1       35.8680   57.7480   11.6640 C.ar  174  TRP174      0.0946
    100  CD2       35.1060   55.8190   10.9150 C.ar  174  TRP174      0.0152
    101  NE1       34.5530   57.6960   12.0020 N.ar  174  TRP174     -0.2442
    102  CE2       34.0390   56.5210   11.5410 C.ar  174  TRP174      0.0810
    103  CE3       34.8420   54.5800   10.3810 C.ar  174  TRP174      0.0012
    104  CZ2       32.7660   55.9950   11.6210 C.ar  174  TRP174      0.0191
    105  CZ3       33.5850   54.0470   10.4890 C.ar  174  TRP174      0.0001
    106  CH2       32.5350   54.7880   11.0800 C.ar  174  TRP174      0.0015
    107  N         38.3980   55.0290    4.9680 N.3   179  ARG179     -0.1245
    108  CA        37.2670   55.9330    5.2870 C.3   179  ARG179      0.1563
    109  C         37.2120   57.1060    4.3400 C.2   179  ARG179      0.2260
    110  O         36.1280   57.4400    3.8530 O.2   179  ARG179     -0.2867
    111  CB        37.3430   56.3870    6.7200 C.3   179  ARG179      0.0307
    112  CG        36.1520   57.2190    7.1180 C.3   179  ARG179      0.0489
    113  CD        34.9250   56.2770    7.1380 C.3   179  ARG179      0.2205
    114  NE        33.6770   56.8750    7.3550 N.pl3 179  ARG179     -0.0865
    115  CZ        32.5420   56.2010    7.2700 C.cat 179  ARG179      0.5346
    116  NH1       32.4620   54.9020    7.2140 N.pl3 179  ARG179      0.1354
    117  NH2       31.4680   56.9590    7.2670 N.pl3 179  ARG179      0.1354
    118  N         35.7640   55.9740    1.0060 N.3   182  LEU182     -0.1245
    119  CA        34.3390   55.7650    1.0980 C.3   182  LEU182      0.1561
    120  C         33.5780   57.0770    1.1310 C.2   182  LEU182      0.2260
    121  O         32.5800   57.2400    0.4350 O.2   182  LEU182     -0.2867
    122  CB        33.9920   54.8840    2.2730 C.3   182  LEU182      0.0270
    123  CG        32.5040   54.6270    2.4590 C.3   182  LEU182      0.0019
    124  CD1       31.8960   53.9270    1.2940 C.3   182  LEU182      0.0001
    125  CD2       32.2600   53.8420    3.7450 C.3   182  LEU182      0.0001
    126  N         22.9080   50.8680   14.7740 N.3   236  TYR236     -0.1241
    127  CA        23.7510   50.9820   13.5780 C.3   236  TYR236      0.1605
    128  C         25.1100   51.6140   13.9630 C.2   236  TYR236      0.2264
    129  O         26.1570   51.1030   13.5220 O.2   236  TYR236     -0.2867
    130  CB        22.9850   51.7550   12.4960 C.3   236  TYR236      0.0534
    131  CG        23.8250   52.3620   11.3760 C.ar  236  TYR236     -0.0201
    132  CD1       24.5490   51.5570   10.5000 C.ar  236  TYR236     -0.0009
    133  CD2       23.8620   53.7090   11.1890 C.ar  236  TYR236     -0.0009
    134  CE1       25.2850   52.1040    9.4580 C.ar  236  TYR236      0.0417
    135  CE2       24.6010   54.2660   10.1330 C.ar  236  TYR236      0.0417
    136  CZ        25.2990   53.4760    9.2770 C.ar  236  TYR236      0.1957
    137  OH        25.9950   54.1050    8.2760 O.3   236  TYR236     -0.2866
    138  N         29.6330   50.0960   13.7240 N.3   240  TRP240     -0.1227
    139  CA        30.7360   50.7250   12.9840 C.3   240  TRP240      0.1737
    140  C         32.0650   50.1270   13.3810 C.2   240  TRP240      0.2596
    141  O         32.3120   49.8610   14.5880 O.2   240  TRP240     -0.2718
    142  CB        30.7460   52.2410   13.2170 C.3   240  TRP240      0.0564
    143  CG        29.5650   52.9440   12.6460 C.ar  240  TRP240      0.0003
    144  CD1       28.5670   52.4400   11.8210 C.ar  240  TRP240      0.0946
    145  CD2       29.2140   54.3030   12.8740 C.ar  240  TRP240      0.0152
    146  NE1       27.6690   53.4030   11.5350 N.ar  240  TRP240     -0.2442
    147  CE2       28.0300   54.5670   12.1700 C.ar  240  TRP240      0.0810
    148  CE3       29.7790   55.3330   13.6240 C.ar  240  TRP240      0.0012
    149  CZ2       27.4110   55.7980   12.1910 C.ar  240  TRP240      0.0191
    150  CZ3       29.1660   56.5530   13.6590 C.ar  240  TRP240      0.0001
    151  CH2       27.9990   56.7900   12.9580 C.ar  240  TRP240      0.0015
    152  N         32.9840   50.0210   12.4350 N.am  241  SER241     -0.1952
    153  CA        34.3250   49.6350   12.7530 C.3   241  SER241      0.1924
    154  C         34.9790   50.5500   13.7400 C.2   241  SER241      0.2314
    155  O         35.6240   50.1010   14.7180 O.2   241  SER241     -0.2863
    156  CB        35.1370   49.5340   11.4460 C.3   241  SER241      0.2116
    157  OG        35.1380   50.8020   10.7610 O.3   241  SER241     -0.2180
@<TRIPOS>BOND
     1    44    45    1
     2    45    48    1
     3    45    46    1
     4    35    36    1
     5   121   120    2
     6    48    49    1
     7    68    69    1
     8    46    47    2
     9    46    54   am
    10    56    57    2
    11    56    55    1
    12   118   119    1
    13    54    55    1
    14   119   120    1
    15   119   122    1
    16    36    37    1
    17    36    39    1
    18    69    72    1
    19    69    70    1
    20    50    49   ar
    21    50    52   ar
    22   124   123    1
    23    37    38    2
    24    49    51   ar
    25    42    41   ar
    26    72    73    1
    27    55    58    1
    28    39    40    1
    29   122   123    1
    30    70    80   am
    31    70    71    2
    32   123   125    1
    33    52    53   ar
    34    75    73   ar
    35    75    77   ar
    36    58    59    1
    37    80    81    1
    38    73    74   ar
    39    41    40    1
    40    41    43   ar
    41    51    53   ar
    42    77    78   ar
    43    83    82    2
    44    84    81    1
    45    59    60   ar
    46    59    61   ar
    47    60    62   ar
    48   110   109    2
    49    81    82    1
    50    74    76   ar
    51    82    85   am
    52   109   108    1
    53    61    64   ar
    54    61    63   ar
    55    78    76   ar
    56    78    79    1
    57    62    63   ar
    58    92    90   ar
    59   107   108    1
    60    88    87    2
    61    64    66   ar
    62    89    90    1
    63    89    86    1
    64   108   111    1
    65    63    65   ar
    66    85    86    1
    67    90    91   ar
    68    87    86    1
    69    66    67   ar
    70    23    22    1
    71    65    67   ar
    72   111   112    1
    73   112   113    1
    74   113   114    1
    75   116   115    1
    76   117   115    1
    77   115   114    2
    78    22    21   ar
    79    22    20   ar
    80    21    19   ar
    81    27    26    2
    82    33    32    1
    83    26    25    1
    84   137   136    1
    85    10     8   ar
    86    10    11   ar
    87    28    25    1
    88    28    29    1
    89     8     6   ar
    90    20    18   ar
    91    30    29    1
    92    30    31    1
    93    19    17   ar
    94    25    24    1
    95    32    31    2
    96    32    34    1
    97    11     9   ar
    98   136   134   ar
    99   136   135   ar
   100     6     5    1
   101     6     7   ar
   102   134   132   ar
   103     5     2    1
   104    18    17   ar
   105    17    16    1
   106     9     7   ar
   107   135   133   ar
   108    15    14    2
   109   103   105   ar
   110   103   100   ar
   111   105   106   ar
   112   132   131   ar
   113    97    98    1
   114    97    94    1
   115    96    95    2
   116    95    94    1
   117   157   156    1
   118     2     3    1
   119     2     1    1
   120   100    98   ar
   121   100   102   ar
   122     3     4    2
   123    98    99   ar
   124    14    13    1
   125   106   104   ar
   126   133   131   ar
   127    16    13    1
   128   131   130    1
   129    94    93    1
   130   156   153    1
   131   146   144   ar
   132   146   147   ar
   133   102   104   ar
   134   102   101   ar
   135    99   101   ar
   136   144   143   ar
   137    13    12    1
   138   147   149   ar
   139   147   145   ar
   140   149   151   ar
   141   152   153    1
   142   152   140   am
   143   130   127    1
   144   143   145   ar
   145   143   142    1
   146   153   154    1
   147   145   148   ar
   148   151   150   ar
   149   139   142    1
   150   139   140    1
   151   139   138    1
   152   140   141    2
   153   129   128    2
   154   127   128    1
   155   127   126    1
   156   148   150   ar
   157   154   155    2
