@<TRIPOS>MOLECULE
tmp/3g5tA00.pdb
 220 217 0 0 0
SMALL
GASTEIGER

@<TRIPOS>ATOM
      1  N         38.5090   46.0440    6.5460 N.3     1  SER1       -0.1217
      2  CA        39.2160   46.3210    7.7630 C.3     1  SER1        0.1889
      3  C         39.3440   45.0130    8.5250 C.2     1  SER1        0.2288
      4  O         38.3510   44.2100    8.5860 O.2     1  SER1       -0.2866
      5  CB        38.4390   47.2730    8.6840 C.3     1  SER1        0.2089
      6  OG        39.1200   47.3070    9.8840 O.3     1  SER1       -0.2183
      7  N         36.6310   43.8000   11.1850 N.3     4  PHE4       -0.1227
      8  CA        35.5080   42.9120   10.9080 C.3     4  PHE4        0.1736
      9  C         35.8640   41.4260   10.9910 C.2     4  PHE4        0.2596
     10  O         34.9710   40.6040   11.0510 O.2     4  PHE4       -0.2718
     11  CB        34.9260   43.1860    9.5130 C.3     4  PHE4        0.0547
     12  CG        34.4230   44.5950    9.3760 C.ar    4  PHE4       -0.0202
     13  CD1       33.3560   45.0440   10.1360 C.ar    4  PHE4       -0.0042
     14  CD2       35.0050   45.4930    8.4970 C.ar    4  PHE4       -0.0042
     15  CE1       32.8410   46.3340   10.0020 C.ar    4  PHE4       -0.0003
     16  CE2       34.5380   46.7670    8.3630 C.ar    4  PHE4       -0.0003
     17  CZ        33.4450   47.1870    9.1110 C.ar    4  PHE4       -0.0000
     18  N         37.1620   41.1160   11.0530 N.am    5  SER5       -0.1952
     19  CA        37.6740   39.7580   11.3150 C.3     5  SER5        0.1924
     20  C         37.9080   39.4670   12.7620 C.2     5  SER5        0.2314
     21  O         38.1980   38.3080   13.1150 O.2     5  SER5       -0.2863
     22  CB        38.9420   39.5240   10.5280 C.3     5  SER5        0.2116
     23  OG        38.7490   39.4090    9.1480 O.3     5  SER5       -0.2180
     24  N         25.5850   43.5740   13.2460 N.3    14  TYR14      -0.1241
     25  CA        25.7460   44.0570   11.8800 C.3    14  TYR14       0.1605
     26  C         24.5400   43.6090   11.0340 C.2    14  TYR14       0.2264
     27  O         23.8680   44.4020   10.3800 O.2    14  TYR14      -0.2867
     28  CB        27.0760   43.5960   11.2840 C.3    14  TYR14       0.0534
     29  CG        27.4090   44.2190    9.9410 C.ar   14  TYR14      -0.0201
     30  CD1       28.4040   45.1880    9.8390 C.ar   14  TYR14      -0.0009
     31  CD2       26.7290   43.8700    8.7680 C.ar   14  TYR14      -0.0009
     32  CE1       28.7180   45.7770    8.6280 C.ar   14  TYR14       0.0417
     33  CE2       27.0280   44.4850    7.5580 C.ar   14  TYR14       0.0417
     34  CZ        27.9800   45.4640    7.4910 C.ar   14  TYR14       0.1957
     35  OH        28.2970   46.1420    6.3530 O.3    14  TYR14      -0.2866
     36  N         22.3040   46.9560   10.1130 N.3    18  ARG18      -0.1231
     37  CA        22.8300   47.6040    8.9220 C.3    18  ARG18       0.1679
     38  C         21.7890   47.6650    7.8340 C.2    18  ARG18       0.2434
     39  O         20.9580   46.7460    7.7010 O.2    18  ARG18      -0.2733
     40  CB        24.0610   46.8820    8.4420 C.3    18  ARG18       0.0321
     41  CG        25.2930   47.1880    9.2930 C.3    18  ARG18       0.0489
     42  CD        26.0370   48.3470    8.7150 C.3    18  ARG18       0.2205
     43  NE        27.1870   48.7150    9.5310 N.pl3  18  ARG18      -0.0865
     44  CZ        28.3280   49.1340    9.0500 C.cat  18  ARG18       0.5346
     45  NH1       28.4540   49.4540    7.7540 N.pl3  18  ARG18       0.1354
     46  NH2       29.3840   49.2110    9.8560 N.pl3  18  ARG18       0.1354
     47  N         21.8370   48.6650    6.9850 N.am   19  PRO19      -0.2729
     48  CA        20.8930   48.7340    5.8590 C.3    19  PRO19       0.1401
     49  C         21.2590   47.7040    4.7930 C.2    19  PRO19       0.2269
     50  O         22.4080   47.4240    4.4920 O.2    19  PRO19      -0.2865
     51  CB        21.0480   50.1400    5.3480 C.3    19  PRO19       0.0296
     52  CG        22.5040   50.4850    5.6470 C.3    19  PRO19       0.0237
     53  CD        22.7690   49.8310    6.9540 C.3    19  PRO19       0.0939
     54  N         19.5330   46.6870    0.6040 N.3    21  TYR21      -0.1241
     55  CA        19.4410   47.4550   -0.6330 C.3    21  TYR21       0.1605
     56  C         18.0920   47.2200   -1.2860 C.2    21  TYR21       0.2264
     57  O         17.4640   46.1720   -1.1460 O.2    21  TYR21      -0.2867
     58  CB        20.6520   47.0370   -1.5330 C.3    21  TYR21       0.0534
     59  CG        21.9460   47.0880   -0.7340 C.ar   21  TYR21      -0.0201
     60  CD1       22.4280   48.2680   -0.2190 C.ar   21  TYR21      -0.0009
     61  CD2       22.5930   45.9180   -0.3650 C.ar   21  TYR21      -0.0009
     62  CE1       23.5300   48.2880    0.6210 C.ar   21  TYR21       0.0417
     63  CE2       23.6810   45.9450    0.4650 C.ar   21  TYR21       0.0417
     64  CZ        24.1650   47.1360    0.9890 C.ar   21  TYR21       0.1957
     65  OH        25.2310   47.1780    1.8270 O.3    21  TYR21      -0.2866
     66  N         29.8350   37.4480   -4.6820 N.3    41  ASP41      -0.1225
     67  CA        29.7450   38.6700   -3.8870 C.3    41  ASP41       0.1805
     68  C         30.9350   38.6950   -2.9470 C.2    41  ASP41       0.2598
     69  O         30.9620   37.9090   -1.9860 O.2    41  ASP41      -0.2718
     70  CB        28.4250   38.6710   -3.1500 C.3    41  ASP41       0.1424
     71  CG        28.1850   39.8850   -2.2870 C.2    41  ASP41       0.3668
     72  OD1       28.5260   40.9900   -2.7490 O.co2  41  ASP41      -0.2456
     73  OD2       27.5990   39.7320   -1.1710 O.co2  41  ASP41      -0.2456
     74  N         31.9330   39.5250   -3.2280 N.am   42  VAL42      -0.1966
     75  CA        33.1490   39.5980   -2.4380 C.3    42  VAL42       0.1727
     76  C         32.9450   40.5550   -1.2780 C.2    42  VAL42       0.2617
     77  O         32.1060   41.4580   -1.3530 O.2    42  VAL42      -0.2715
     78  CB        34.3810   39.9710   -3.2950 C.3    42  VAL42       0.0290
     79  CG1       34.6170   38.9920   -4.4220 C.3    42  VAL42       0.0023
     80  CG2       34.2770   41.3970   -3.8250 C.3    42  VAL42       0.0023
     81  N         33.7550   40.4430   -0.2450 N.am   43  GLY43      -0.1940
     82  CA        33.4980   41.2610    0.9510 C.3    43  GLY43       0.2014
     83  C         32.0900   41.1640    1.4360 C.2    43  GLY43       0.2639
     84  O         31.4950   42.1790    1.8490 O.2    43  GLY43      -0.2714
     85  N         31.5140   39.9620    1.4240 N.am   44  CYS44      -0.1953
     86  CA        30.1080   39.8030    1.6070 C.3    44  CYS44       0.1843
     87  C         29.6010   40.0660    3.0030 C.2    44  CYS44       0.2626
     88  O         28.3640   40.2180    3.1840 O.2    44  CYS44      -0.2714
     89  CB        29.6600   38.3870    1.1590 C.3    44  CYS44       0.0997
     90  SG        30.3520   37.0360    2.1790 S.3    44  CYS44      -0.0797
     91  N         30.4560   40.1150    3.9890 N.am   45  GLY45      -0.1940
     92  CA        29.9670   40.2820    5.3420 C.3    45  GLY45       0.1998
     93  C         29.0590   39.1450    5.7220 C.2    45  GLY45       0.2480
     94  O         29.2880   37.9970    5.3150 O.2    45  GLY45      -0.2729
     95  N         28.0200   39.3890    6.5090 N.am   46  PRO46      -0.2726
     96  CA        27.1030   38.3410    6.9400 C.3    46  PRO46       0.1402
     97  C         26.0290   38.1170    5.8680 C.2    46  PRO46       0.2269
     98  O         24.8730   37.8630    6.1750 O.2    46  PRO46      -0.2865
     99  CB        26.5530   38.8990    8.2460 C.3    46  PRO46       0.0296
    100  CG        26.4580   40.3740    7.9850 C.3    46  PRO46       0.0237
    101  CD        27.6190   40.7280    7.0940 C.3    46  PRO46       0.0939
    102  N         24.8900   40.2170    3.4810 N.3    48  THR48      -0.1203
    103  CA        23.9840   41.3550    3.3710 C.3    48  THR48       0.1994
    104  C         23.3670   41.4160    1.9820 C.2    48  THR48       0.2617
    105  O         22.1440   41.4020    1.8400 O.2    48  THR48      -0.2717
    106  CB        24.7490   42.6200    3.7110 C.3    48  THR48       0.1784
    107  OG1       25.4690   42.4580    4.9260 O.3    48  THR48      -0.2211
    108  CG2       23.8170   43.8160    3.7660 C.3    48  THR48       0.0376
    109  N         24.1950   41.5880    0.9680 N.am   49  ALA49      -0.1979
    110  CA        23.7010   41.5960   -0.3970 C.3    49  ALA49       0.1597
    111  C         23.5520   40.1700   -0.9470 C.2    49  ALA49       0.2287
    112  O         22.6670   39.9400   -1.7650 O.2    49  ALA49      -0.2864
    113  CB        24.6280   42.3700   -1.2960 C.3    49  ALA49       0.0319
    114  N         34.5410   36.3930    1.8790 N.3    66  ASP66      -0.1225
    115  CA        34.9570   37.4310    2.8030 C.3    66  ASP66       0.1805
    116  C         36.2270   36.9120    3.5140 C.2    66  ASP66       0.2598
    117  O         36.3960   35.7250    3.6850 O.2    66  ASP66      -0.2718
    118  CB        33.8400   37.7610    3.8180 C.3    66  ASP66       0.1424
    119  CG        34.0360   39.0760    4.5260 C.2    66  ASP66       0.3668
    120  OD1       34.9370   39.2100    5.3550 O.co2  66  ASP66      -0.2456
    121  OD2       33.2490   40.0250    4.1880 O.co2  66  ASP66      -0.2456
    122  N         37.0760   37.8530    3.9530 N.am   67  LEU67      -0.1966
    123  CA        38.2060   37.5020    4.8090 C.3    67  LEU67       0.1728
    124  C         37.7840   37.0290    6.1740 C.2    67  LEU67       0.2616
    125  O         38.5480   36.3130    6.8450 O.2    67  LEU67      -0.2715
    126  CB        39.0960   38.7130    5.0340 C.3    67  LEU67       0.0311
    127  CG        39.8480   39.3210    3.8740 C.3    67  LEU67       0.0022
    128  CD1       40.5820   40.5860    4.3110 C.3    67  LEU67       0.0001
    129  CD2       40.8040   38.3100    3.4470 C.3    67  LEU67       0.0001
    130  N         36.6370   37.4690    6.6720 N.am   68  SER68      -0.1950
    131  CA        36.2620   37.3090    8.0770 C.3    68  SER68       0.1924
    132  C         35.4850   36.0540    8.3520 C.2    68  SER68       0.2314
    133  O         34.3270   35.9270    7.9270 O.2    68  SER68      -0.2863
    134  CB        35.4470   38.5130    8.5200 C.3    68  SER68       0.2116
    135  OG        34.9310   38.2440    9.8050 O.3    68  SER68      -0.2180
    136  N         37.8050   33.9700    1.8240 N.3    93  SER93      -0.1202
    137  CA        38.7480   34.3010    0.7550 C.3    93  SER93       0.2020
    138  C         38.8390   35.7940    0.6020 C.2    93  SER93       0.2619
    139  O         37.8690   36.5140    0.8060 O.2    93  SER93      -0.2717
    140  CB        38.2320   33.7100   -0.5640 C.3    93  SER93       0.2103
    141  OG        39.3120   33.5620   -1.5080 O.3    93  SER93      -0.2182
    142  N         40.0130   36.2770    0.2510 N.am   94  SER94      -0.1937
    143  CA        40.2000   37.6440   -0.1380 C.3    94  SER94       0.2055
    144  C         39.4310   37.9050   -1.4250 C.2    94  SER94       0.2644
    145  O         39.1130   37.0290   -2.2140 O.2    94  SER94      -0.2714
    146  CB        41.6300   37.9640   -0.3110 C.3    94  SER94       0.2130
    147  OG        42.0790   37.7310   -1.5020 O.3    94  SER94      -0.2179
    148  N         39.1140   39.2120   -1.6570 N.am   95  SER95      -0.1935
    149  CA        38.3370   39.6270   -2.8010 C.3    95  SER95       0.2055
    150  C         39.0300   39.4790   -4.1270 C.2    95  SER95       0.2643
    151  O         38.3810   39.5850   -5.1640 O.2    95  SER95      -0.2714
    152  CB        37.8750   41.0840   -2.6170 C.3    95  SER95       0.2130
    153  OG        38.9990   41.9020   -2.5370 O.3    95  SER95      -0.2179
    154  N         40.3440   39.2320   -4.1130 N.am   96  ASP96      -0.1971
    155  CA        41.0990   38.9730   -5.3090 C.3    96  ASP96       0.1709
    156  C         41.5180   37.4900   -5.4050 C.2    96  ASP96       0.2293
    157  O         42.2820   37.1890   -6.3220 O.2    96  ASP96      -0.2864
    158  CB        42.3060   39.8860   -5.4270 C.3    96  ASP96       0.1436
    159  CG        43.2880   39.6710   -4.3590 C.2    96  ASP96       0.3671
    160  OD1       42.9780   39.1640   -3.2610 O.co2  96  ASP96      -0.2456
    161  OD2       44.4500   39.9660   -4.5270 O.co2  96  ASP96      -0.2456
    162  N         30.1210   45.0910   -2.2890 N.3   116  VAL116     -0.1231
    163  CA        29.1530   45.9760   -1.6700 C.3   116  VAL116      0.1692
    164  C         29.6550   46.4340   -0.3360 C.2   116  VAL116      0.2592
    165  O         29.9920   45.6430    0.5610 O.2   116  VAL116     -0.2718
    166  CB        27.8010   45.3020   -1.5310 C.3   116  VAL116      0.0266
    167  CG1       26.7810   46.3470   -1.0990 C.3   116  VAL116      0.0020
    168  CG2       27.3900   44.6240   -2.8430 C.3   116  VAL116      0.0020
    169  N         29.7860   47.7330   -0.1460 N.am  117  GLU117     -0.1966
    170  CA        30.2620   48.3310    1.1180 C.3   117  GLU117      0.1733
    171  C         31.5830   47.7440    1.5390 C.2   117  GLU117      0.2616
    172  O         31.8440   47.5400    2.7360 O.2   117  GLU117     -0.2715
    173  CB        29.1820   48.2880    2.2140 C.3   117  GLU117      0.0429
    174  CG        29.4080   49.2840    3.3470 C.3   117  GLU117      0.1163
    175  CD        29.2450   50.6970    2.9400 C.2   117  GLU117      0.3649
    176  OE1       29.1670   51.0400    1.7620 O.co2 117  GLU117     -0.2457
    177  OE2       29.2530   51.5650    3.9100 O.co2 117  GLU117     -0.2457
    178  N         32.4870   47.5290    0.5680 N.am  118  CYS118     -0.1968
    179  CA        33.7760   46.9710    0.8830 C.3   118  CYS118      0.1712
    180  C         34.8980   47.4250   -0.0150 C.2   118  CYS118      0.2296
    181  O         36.0720   47.2510    0.3860 O.2   118  CYS118     -0.2864
    182  CB        33.7660   45.4490    0.9170 C.3   118  CYS118      0.0983
    183  SG        33.2570   44.6900   -0.6460 S.3   118  CYS118     -0.0798
    184  N         38.0450   49.2520    1.0800 N.3   121  TRP121     -0.1227
    185  CA        39.0830   48.5590    1.8260 C.3   121  TRP121      0.1737
    186  C         40.1030   47.9010    0.9330 C.2   121  TRP121      0.2595
    187  O         41.1230   47.4360    1.4280 O.2   121  TRP121     -0.2718
    188  CB        38.4390   47.4330    2.6890 C.3   121  TRP121      0.0564
    189  CG        37.4190   47.8740    3.6840 C.ar  121  TRP121      0.0003
    190  CD1       36.1530   47.4560    3.7960 C.ar  121  TRP121      0.0946
    191  CD2       37.5790   48.8570    4.7030 C.ar  121  TRP121      0.0152
    192  NE1       35.4980   48.0310    4.8360 N.ar  121  TRP121     -0.2442
    193  CE2       36.3620   48.9360    5.4290 C.ar  121  TRP121      0.0810
    194  CE3       38.6870   49.6740    5.1060 C.ar  121  TRP121      0.0012
    195  CZ2       36.1860   49.7990    6.5010 C.ar  121  TRP121      0.0191
    196  CZ3       38.5020   50.4760    6.1600 C.ar  121  TRP121      0.0001
    197  CH2       37.2890   50.5620    6.8760 C.ar  121  TRP121      0.0015
    198  N         39.8540   47.8070   -0.3670 N.am  122  PHE122     -0.1976
    199  CA        40.6920   47.0580   -1.2760 C.3   122  PHE122      0.1639
    200  C         41.7900   47.9490   -1.8580 C.2   122  PHE122      0.2290
    201  O         41.6900   49.1490   -1.9330 O.2   122  PHE122     -0.2864
    202  CB        39.8740   46.5490   -2.4540 C.3   122  PHE122      0.0560
    203  CG        38.7140   45.6150   -2.1230 C.ar  122  PHE122     -0.0200
    204  CD1       38.5100   45.0590   -0.8990 C.ar  122  PHE122     -0.0042
    205  CD2       37.8010   45.3120   -3.1440 C.ar  122  PHE122     -0.0042
    206  CE1       37.3910   44.2390   -0.6670 C.ar  122  PHE122     -0.0003
    207  CE2       36.6980   44.4940   -2.8930 C.ar  122  PHE122     -0.0003
    208  CZ        36.5260   43.9820   -1.6460 C.ar  122  PHE122     -0.0000
    209  N         27.7050   53.1190    0.5670 N.3   146  TYR146     -0.1241
    210  CA        26.9650   54.1560    1.2640 C.3   146  TYR146      0.1605
    211  C         27.7950   54.7140    2.3880 C.2   146  TYR146      0.2264
    212  O         28.6690   54.0480    2.9610 O.2   146  TYR146     -0.2867
    213  CB        25.6290   53.6050    1.8090 C.3   146  TYR146      0.0534
    214  CG        25.7770   52.4980    2.8370 C.ar  146  TYR146     -0.0201
    215  CD1       25.9950   52.7830    4.1810 C.ar  146  TYR146     -0.0009
    216  CD2       25.6970   51.1690    2.4860 C.ar  146  TYR146     -0.0009
    217  CE1       26.1670   51.7830    5.1120 C.ar  146  TYR146      0.0417
    218  CE2       25.8660   50.1530    3.4290 C.ar  146  TYR146      0.0417
    219  CZ        26.1010   50.4670    4.7540 C.ar  146  TYR146      0.1957
    220  OH        26.2700   49.5200    5.7130 O.3   146  TYR146     -0.2866
@<TRIPOS>BOND
     1   157   156    2
     2   158   155    1
     3   158   159    1
     4   156   155    1
     5   155   154    1
     6   151   150    2
     7    66    67    1
     8   161   159   ar
     9    79    78    1
    10   159   160   ar
    11   150   154   am
    12   150   149    1
    13    67    70    1
    14    67    68    1
    15    80    78    1
    16    78    75    1
    17    74    68   am
    18    74    75    1
    19    70    71    1
    20   205   207   ar
    21   205   203   ar
    22    68    69    2
    23   207   208   ar
    24   168   166    1
    25   149   152    1
    26   149   148    1
    27    72    71   ar
    28   152   153    1
    29   202   203    1
    30   202   199    1
    31    75    76    1
    32   162   163    1
    33    71    73   ar
    34   145   144    2
    35   203   204   ar
    36   201   200    2
    37   200   199    1
    38   112   111    2
    39   163   166    1
    40   163   164    1
    41   148   144   am
    42   208   206   ar
    43    58    59    1
    44    58    55    1
    45   166   167    1
    46   141   140    1
    47   147   146    1
    48   144   143    1
    49    77    76    2
    50   113   110    1
    51    56    57    2
    52    56    55    1
    53    76    81   am
    54   199   198    1
    55   111   110    1
    56   204   206   ar
    57    59    61   ar
    58    59    60   ar
    59   183   182    1
    60    55    54    1
    61   140   137    1
    62   110   109    1
    63   198   186   am
    64    61    63   ar
    65   164   169   am
    66   164   165    2
    67   146   143    1
    68    81    82    1
    69    60    62   ar
    70   169   170    1
    71   143   142    1
    72   180   181    2
    73   180   179    1
    74   142   138   am
    75    63    64   ar
    76   209   210    1
    77   178   179    1
    78   178   171   am
    79   138   137    1
    80   138   139    2
    81    62    64   ar
    82   137   136    1
    83   179   182    1
    84   186   187    2
    85   186   185    1
    86    82    83    1
    87   109   104   am
    88    64    65    1
    89   184   185    1
    90   170   171    1
    91   170   173    1
    92    89    86    1
    93    89    90    1
    94   210   213    1
    95   210   211    1
    96    85    83   am
    97    85    86    1
    98    83    84    2
    99   171   172    2
   100    86    87    1
   101   176   175   ar
   102   213   214    1
   103   185   188    1
   104   105   104    2
   105   114   115    1
   106   104   103    1
   107   173   174    1
   108   211   212    2
   109   216   214   ar
   110   216   218   ar
   111   188   189    1
   112   115   116    1
   113   115   118    1
   114   214   215   ar
   115   175   174    1
   116   175   177   ar
   117    87    88    2
   118    87    91   am
   119   103   102    1
   120   103   106    1
   121   218   219   ar
   122   129   127    1
   123   116   117    2
   124   116   122   am
   125   189   190   ar
   126   189   191   ar
   127   106   108    1
   128   106   107    1
   129   190   192   ar
   130   118   119    1
   131   127   128    1
   132   127   126    1
   133   122   123    1
   134    91    92    1
   135   215   217   ar
   136   121   119   ar
   137    50    49    2
   138   119   120   ar
   139   191   194   ar
   140   191   193   ar
   141   219   217   ar
   142   219   220    1
   143    49    48    1
   144   123   126    1
   145   123   124    1
   146   192   193   ar
   147   194   196   ar
   148    94    93    2
   149    92    93    1
   150    51    52    1
   151    51    48    1
   152   193   195   ar
   153    52    53    1
   154    93    95   am
   155    48    47    1
   156    97    98    2
   157    97    96    1
   158   196   197   ar
   159   124   130   am
   160   124   125    2
   161    35    34    1
   162   195   197   ar
   163    95    96    1
   164    95   101    1
   165     1     2    1
   166   130   131    1
   167    96    99    1
   168    53    47    1
   169    47    38   am
   170   101   100    1
   171    34    33   ar
   172    34    32   ar
   173    33    31   ar
   174    39    38    2
   175    45    44    1
   176     2     3    1
   177     2     5    1
   178    38    37    1
   179   133   132    2
   180   100    99    1
   181   131   132    1
   182   131   134    1
   183    16    14   ar
   184    16    17   ar
   185    40    37    1
   186    40    41    1
   187    14    12   ar
   188   134   135    1
   189     3     4    2
   190    32    30   ar
   191     5     6    1
   192    42    41    1
   193    42    43    1
   194    31    29   ar
   195    37    36    1
   196    44    43    2
   197    44    46    1
   198    17    15   ar
   199    23    22    1
   200    12    11    1
   201    12    13   ar
   202    11     8    1
   203    30    29   ar
   204    29    28    1
   205    15    13   ar
   206    27    26    2
   207    22    19    1
   208     8     9    1
   209     8     7    1
   210     9    10    2
   211     9    18   am
   212    26    25    1
   213    18    19    1
   214    28    25    1
   215    19    20    1
   216    25    24    1
   217    20    21    2
