@<TRIPOS>MOLECULE
tmp/3g68B00.pdb
 90 84 0 0 0
SMALL
GASTEIGER

@<TRIPOS>ATOM
      1  N         -6.1320   60.0850   10.9350 N.3    39  SER39      -0.1202
      2  CA        -6.2450   61.3580   10.2470 C.3    39  SER39       0.2020
      3  C         -5.1430   62.3270   10.6740 C.2    39  SER39       0.2619
      4  O         -4.5640   62.1800   11.7380 O.2    39  SER39      -0.2717
      5  CB        -7.5990   62.0040   10.5490 C.3    39  SER39       0.2103
      6  OG        -8.6420   61.0950   10.3010 O.3    39  SER39      -0.2182
      7  N         -4.8890   63.3350    9.8520 N.am   40  GLY40      -0.1942
      8  CA        -3.8990   64.3810   10.1590 C.3    40  GLY40       0.2014
      9  C         -2.5930   63.8960   10.7730 C.2    40  GLY40       0.2640
     10  O         -1.9410   63.0340   10.2060 O.2    40  GLY40      -0.2714
     11  N         -2.2440   64.4270   11.9470 N.am   41  THR41      -0.1936
     12  CA        -1.0210   64.0530   12.6740 C.3    41  THR41       0.2028
     13  C         -0.8910   62.5520   12.9450 C.2    41  THR41       0.2642
     14  O          0.2280   62.0080   12.9320 O.2    41  THR41      -0.2714
     15  CB        -0.9260   64.9130   13.9640 C.3    41  THR41       0.1808
     16  OG1       -0.8940   66.2950   13.5660 O.3    41  THR41      -0.2208
     17  CG2        0.3060   64.5830   14.8130 C.3    41  THR41       0.0379
     18  N         -2.0230   61.8770   13.1750 N.am   42  SER42      -0.1949
     19  CA        -2.0250   60.4220   13.3690 C.3    42  SER42       0.1924
     20  C         -1.6250   59.7510   12.0540 C.2    42  SER42       0.2314
     21  O         -0.7490   58.8710   12.0430 O.2    42  SER42      -0.2863
     22  CB        -3.3680   59.9310   13.8820 C.3    42  SER42       0.2116
     23  OG        -3.5540   60.4040   15.1980 O.3    42  SER42      -0.2180
     24  N         -4.9980   54.8630   14.8650 N.3    84  VAL84      -0.1231
     25  CA        -4.2580   55.8900   15.6130 C.3    84  VAL84       0.1692
     26  C         -5.1030   57.1740   15.7170 C.2    84  VAL84       0.2593
     27  O         -5.5550   57.7120   14.7050 O.2    84  VAL84      -0.2718
     28  CB        -2.9320   56.1830   14.9160 C.3    84  VAL84       0.0266
     29  CG1       -2.0960   57.2300   15.7000 C.3    84  VAL84       0.0020
     30  CG2       -2.1240   54.8970   14.7310 C.3    84  VAL84       0.0020
     31  N         -5.3430   57.6450   16.9380 N.am   85  SER85      -0.1938
     32  CA        -6.0800   58.8920   17.1780 C.3    85  SER85       0.2055
     33  C         -5.7020   59.4150   18.5450 C.2    85  SER85       0.2643
     34  O         -6.0840   58.7960   19.5260 O.2    85  SER85      -0.2714
     35  CB        -7.6000   58.6670   17.1030 C.3    85  SER85       0.2130
     36  OG        -8.3190   59.8590   17.4140 O.3    85  SER85      -0.2179
     37  N         -4.9660   60.5360   18.6380 N.am   86  GLN86      -0.1963
     38  CA        -4.5460   61.0050   19.9710 C.3    86  GLN86       0.1733
     39  C         -5.7050   61.2940   20.9180 C.2    86  GLN86       0.2616
     40  O         -5.6460   60.8880   22.0820 O.2    86  GLN86      -0.2715
     41  CB        -3.5770   62.1700   19.9550 C.3    86  GLN86       0.0408
     42  CG        -2.9830   62.4320   21.3470 C.3    86  GLN86       0.0908
     43  CD        -1.8790   63.4610   21.3600 C.2    86  GLN86       0.2608
     44  OE1       -1.2980   63.7710   20.3160 O.2    86  GLN86      -0.2717
     45  NE2       -1.5730   64.0080   22.5530 N.am   86  GLN86      -0.0878
     46  N         -6.7350   61.9900   20.4430 N.am   87  GLY87      -0.1955
     47  CA        -7.9210   62.2340   21.2550 C.3    87  GLY87       0.1869
     48  C         -8.7560   60.9690   21.3890 C.2    87  GLY87       0.2309
     49  O         -9.5950   60.8730   22.2970 O.2    87  GLY87      -0.2863
     50  N        -11.7450   60.0680   16.6330 N.3    90  SER90      -0.1217
     51  CA       -11.9440   60.4480   15.2390 C.3    90  SER90       0.1889
     52  C        -12.8440   59.4000   14.5550 C.2    90  SER90       0.2288
     53  O        -12.5020   58.2070   14.4780 O.2    90  SER90      -0.2866
     54  CB       -10.6270   60.6370   14.4900 C.3    90  SER90       0.2089
     55  OG        -9.9940   61.8610   14.8810 O.3    90  SER90      -0.2183
     56  N         -0.5980   69.5310   18.5510 N.3   136  LYS136     -0.1245
     57  CA         0.0740   68.4010   19.2430 C.3   136  LYS136      0.1561
     58  C          1.5080   68.2170   18.7820 C.2   136  LYS136      0.2260
     59  O          1.7790   68.2410   17.5610 O.2   136  LYS136     -0.2867
     60  CB        -0.6580   67.0690   19.0050 C.3   136  LYS136      0.0271
     61  CG        -2.1670   67.0500   19.3310 C.3   136  LYS136      0.0035
     62  CD        -2.4130   67.0450   20.8150 C.3   136  LYS136      0.0206
     63  CE        -3.8550   66.6770   21.1450 C.3   136  LYS136      0.1093
     64  NZ        -4.8210   67.7420   20.9180 N.3   136  LYS136     -0.1314
     65  N          1.8580   70.8430    8.3540 N.3   220  LEU220     -0.1231
     66  CA         0.5020   70.9860    8.9460 C.3   220  LEU220      0.1693
     67  C          0.5390   71.8290   10.2270 C.2   220  LEU220      0.2591
     68  O         -0.3220   72.6760   10.4180 O.2   220  LEU220     -0.2718
     69  CB        -0.1330   69.6200    9.2630 C.3   220  LEU220      0.0284
     70  CG        -1.4890   69.5740    9.9650 C.3   220  LEU220      0.0019
     71  CD1       -2.5820   70.3330    9.1350 C.3   220  LEU220      0.0001
     72  CD2       -1.9260   68.0970   10.2990 C.3   220  LEU220      0.0001
     73  N          1.5250   71.6100   11.0960 N.am  221  LYS221     -0.1980
     74  CA         1.5620   72.3690   12.3700 C.3   221  LYS221      0.1596
     75  C          1.8490   73.8520   12.1380 C.2   221  LYS221      0.2287
     76  O          1.2500   74.7040   12.7940 O.2   221  LYS221     -0.2864
     77  CB         2.5210   71.7450   13.3880 C.3   221  LYS221      0.0298
     78  CG         2.0000   70.4030   13.9440 C.3   221  LYS221      0.0038
     79  CD         0.7890   70.5990   14.8590 C.3   221  LYS221      0.0206
     80  CE        -0.2090   69.4500   14.8120 C.3   221  LYS221      0.1093
     81  NZ         0.2770   68.2340   15.4250 N.3   221  LYS221     -0.1314
     82  N         -1.4470   75.3300   10.8320 N.3   224  GLU224     -0.1245
     83  CA        -2.4330   75.5070   11.9190 C.3   224  GLU224      0.1567
     84  C         -2.1200   76.6730   12.8470 C.2   224  GLU224      0.2260
     85  O         -3.0300   77.2700   13.4050 O.2   224  GLU224     -0.2867
     86  CB        -2.5190   74.2240   12.7360 C.3   224  GLU224      0.0388
     87  CG        -3.1280   73.0440   11.9770 C.3   224  GLU224      0.1160
     88  CD        -3.0680   71.7070   12.7490 C.2   224  GLU224      0.3649
     89  OE1       -2.2680   71.5510   13.6990 O.co2 224  GLU224     -0.2457
     90  OE2       -3.8260   70.7960   12.3640 O.co2 224  GLU224     -0.2457
@<TRIPOS>BOND
     1    65    66    1
     2    66    69    1
     3    66    67    1
     4    71    70    1
     5    69    70    1
     6     7     8    1
     7     7     3   am
     8    70    72    1
     9     8     9    1
    10    10     9    2
    11    67    68    2
    12    67    73   am
    13     2     5    1
    14     2     3    1
    15     2     1    1
    16     6     5    1
    17     3     4    2
    18     9    11   am
    19    82    83    1
    20    73    74    1
    21    83    86    1
    22    83    84    1
    23    11    12    1
    24    87    86    1
    25    87    88    1
    26    21    20    2
    27    20    19    1
    28    75    74    1
    29    75    76    2
    30    90    88   ar
    31    74    77    1
    32    12    13    1
    33    12    15    1
    34    88    89   ar
    35    84    85    2
    36    14    13    2
    37    13    18   am
    38    18    19    1
    39    19    22    1
    40    77    78    1
    41    16    15    1
    42    22    23    1
    43    78    79    1
    44    15    17    1
    45    53    52    2
    46    54    55    1
    47    54    51    1
    48    52    51    1
    49    27    26    2
    50    30    28    1
    51    80    79    1
    52    80    81    1
    53    24    25    1
    54    28    25    1
    55    28    29    1
    56    51    50    1
    57    25    26    1
    58    26    31   am
    59    31    32    1
    60    35    32    1
    61    35    36    1
    62    32    33    1
    63    59    58    2
    64    33    37   am
    65    33    34    2
    66    56    57    1
    67    37    38    1
    68    58    57    1
    69    60    57    1
    70    60    61    1
    71    61    62    1
    72    41    38    1
    73    41    42    1
    74    38    39    1
    75    44    43    2
    76    46    39   am
    77    46    47    1
    78    62    63    1
    79    39    40    2
    80    64    63    1
    81    47    48    1
    82    42    43    1
    83    43    45   am
    84    48    49    2
