@<TRIPOS>MOLECULE
tmp/3g6kB00.pdb
 93 87 0 0 0
SMALL
GASTEIGER

@<TRIPOS>ATOM
      1  N         53.7180    2.8250    5.3700 N.3    63  ASN63      -0.1240
      2  CA        54.8950    3.5870    4.9470 C.3    63  ASN63       0.1653
      3  C         54.5490    4.9440    4.3550 C.2    63  ASN63       0.2266
      4  O         55.3570    5.5440    3.6640 O.2    63  ASN63      -0.2867
      5  CB        55.7650    2.7980    3.9630 C.3    63  ASN63       0.1155
      6  CG        55.1550    2.7330    2.5640 C.2    63  ASN63       0.2627
      7  OD1       53.9740    3.0130    2.3590 O.2    63  ASN63      -0.2716
      8  ND2       55.9630    2.3490    1.5930 N.am   63  ASN63      -0.0877
      9  N         52.5920    5.9060    2.0020 N.3    65  GLY65      -0.1210
     10  CA        52.1930    6.0270    0.6100 C.3    65  GLY65       0.1956
     11  C         50.6760    6.0660    0.4240 C.2    65  GLY65       0.2612
     12  O         49.9340    5.8900    1.3800 O.2    65  GLY65      -0.2717
     13  N         50.2400    6.2800   -0.8150 N.am   66  LYS66      -0.1965
     14  CA        48.8550    6.5670   -1.0740 C.3    66  LYS66       0.1728
     15  C         47.9310    5.3850   -0.7570 C.2    66  LYS66       0.2616
     16  O         46.7910    5.5710   -0.3760 O.2    66  LYS66      -0.2715
     17  CB        48.6690    6.9180   -2.5590 C.3    66  LYS66       0.0311
     18  CG        49.0500    5.7610   -3.5130 C.3    66  LYS66       0.0038
     19  CD        49.1600    6.2210   -4.9660 C.3    66  LYS66       0.0206
     20  CE        49.3230    5.0710   -5.9070 C.3    66  LYS66       0.1093
     21  NZ        50.3850    4.1070   -5.5300 N.3    66  LYS66      -0.1314
     22  N         48.4540    4.1550   -0.9450 N.am   67  ASP67      -0.1957
     23  CA        47.6130    2.9700   -0.8110 C.3    67  ASP67       0.1840
     24  C         47.4410    2.6150    0.6420 C.2    67  ASP67       0.2622
     25  O         46.3150    2.3910    1.1150 O.2    67  ASP67      -0.2715
     26  CB        48.2350    1.8220   -1.5950 C.3    67  ASP67       0.1450
     27  CG        48.4330    2.1790   -3.0370 C.2    67  ASP67       0.3671
     28  OD1       47.4490    2.5150   -3.7330 O.co2  67  ASP67      -0.2456
     29  OD2       49.5970    2.1730   -3.4800 O.co2  67  ASP67      -0.2456
     30  N         48.5370    2.5600    1.3990 N.am   68  CYS68      -0.1968
     31  CA        48.3280    2.3260    2.8180 C.3    68  CYS68       0.1712
     32  C         47.6770    3.5050    3.5100 C.2    68  CYS68       0.2296
     33  O         47.0240    3.3200    4.5190 O.2    68  CYS68      -0.2864
     34  CB        49.5860    1.8620    3.5370 C.3    68  CYS68       0.0983
     35  SG        50.8660    3.0550    3.5290 S.3    68  CYS68      -0.0798
     36  N         48.5320   -2.6590    2.7090 N.3   164  GLY164     -0.1225
     37  CA        47.8140   -1.9820    1.6320 C.3   164  GLY164      0.1811
     38  C         48.1910   -2.4070    0.2310 C.2   164  GLY164      0.2280
     39  O         48.1890   -1.5680   -0.7000 O.2   164  GLY164     -0.2866
     40  N         50.0060   -4.8070   -7.7800 N.3   169  ASP169     -0.1239
     41  CA        51.3720   -4.6240   -7.2880 C.3   169  ASP169      0.1674
     42  C         52.1860   -5.8560   -7.6530 C.2   169  ASP169      0.2266
     43  O         51.6160   -6.9170   -7.8960 O.2   169  ASP169     -0.2867
     44  CB        51.3690   -4.4580   -5.7910 C.3   169  ASP169      0.1410
     45  CG        50.7580   -3.1450   -5.3690 C.2   169  ASP169      0.3668
     46  OD1       50.7020   -2.1960   -6.1720 O.co2 169  ASP169     -0.2456
     47  OD2       50.3250   -3.0530   -4.2450 O.co2 169  ASP169     -0.2456
     48  N         53.6450   12.8380   -4.5640 N.3   217  TYR217     -0.1241
     49  CA        52.6430   12.5940   -5.6040 C.3   217  TYR217      0.1605
     50  C         52.2880   13.9100   -6.3230 C.2   217  TYR217      0.2264
     51  O         52.0580   13.9200   -7.5270 O.2   217  TYR217     -0.2867
     52  CB        51.4210   11.9430   -4.9970 C.3   217  TYR217      0.0534
     53  CG        51.7090   10.5800   -4.3670 C.ar  217  TYR217     -0.0201
     54  CD1       52.1760    9.5080   -5.1490 C.ar  217  TYR217     -0.0009
     55  CD2       51.5130   10.3710   -3.0190 C.ar  217  TYR217     -0.0009
     56  CE1       52.4320    8.2800   -4.6050 C.ar  217  TYR217      0.0417
     57  CE2       51.7530    9.1360   -2.4480 C.ar  217  TYR217      0.0417
     58  CZ        52.2180    8.0900   -3.2410 C.ar  217  TYR217      0.1957
     59  OH        52.3990    6.8810   -2.6440 O.3   217  TYR217     -0.2866
     60  N         54.1980    6.0990   -7.7900 N.3   223  SER223     -0.1202
     61  CA        54.5660    4.9060   -7.0310 C.3   223  SER223      0.2020
     62  C         55.8710    5.1970   -6.3470 C.2   223  SER223      0.2618
     63  O         56.8150    5.5730   -7.0360 O.2   223  SER223     -0.2717
     64  CB        54.8230    3.7590   -8.0230 C.3   223  SER223      0.2103
     65  OG        55.3990    2.6170   -7.4080 O.3   223  SER223     -0.2182
     66  N         55.9570    5.0170   -5.0420 N.am  224  LEU224     -0.1979
     67  CA        57.1360    5.4080   -4.2850 C.3   224  LEU224      0.1596
     68  C         58.0060    4.2230   -3.9980 C.2   224  LEU224      0.2287
     69  O         57.8350    3.5380   -2.9960 O.2   224  LEU224     -0.2864
     70  CB        56.7590    6.1200   -3.0050 C.3   224  LEU224      0.0297
     71  CG        55.8830    7.3430   -3.2560 C.3   224  LEU224      0.0022
     72  CD1       55.5050    7.9810   -1.9330 C.3   224  LEU224      0.0001
     73  CD2       56.5090    8.3360   -4.2080 C.3   224  LEU224      0.0001
     74  N         51.6430    2.3800  -13.4900 N.3   297  GLU297     -0.1231
     75  CA        51.8420    2.9610  -12.1750 C.3   297  GLU297      0.1699
     76  C         53.3290    3.0110  -11.8090 C.2   297  GLU297      0.2592
     77  O         53.7560    3.9250  -11.1260 O.2   297  GLU297     -0.2718
     78  CB        51.0750    2.1480  -11.1160 C.3   297  GLU297      0.0402
     79  CG        51.0880    2.7560   -9.7430 C.3   297  GLU297      0.1161
     80  CD        50.1680    2.0570   -8.7560 C.2   297  GLU297      0.3649
     81  OE1       49.1890    1.3910   -9.1910 O.co2 297  GLU297     -0.2457
     82  OE2       50.4460    2.1370   -7.5480 O.co2 297  GLU297     -0.2457
     83  N         54.0910    2.0040  -12.2100 N.am  298  ARG298     -0.1980
     84  CA        55.5180    1.8840  -11.8590 C.3   298  ARG298      0.1597
     85  C         56.4330    2.2590  -13.0180 C.2   298  ARG298      0.2287
     86  O         57.6000    1.9070  -13.0010 O.2   298  ARG298     -0.2864
     87  CB        55.8360    0.4460  -11.3260 C.3   298  ARG298      0.0334
     88  CG        55.2240    0.2080   -9.9250 C.3   298  ARG298      0.0492
     89  CD        55.2250   -1.2440   -9.4320 C.3   298  ARG298      0.2205
     90  NE        55.0070   -1.3200   -7.9800 N.pl3 298  ARG298     -0.0865
     91  CZ        53.8220   -1.2230   -7.3620 C.cat 298  ARG298      0.5346
     92  NH1       53.7670   -1.3220   -6.0360 N.pl3 298  ARG298      0.1354
     93  NH2       52.7000   -1.0330   -8.0520 N.pl3 298  ARG298      0.1354
@<TRIPOS>BOND
     1    74    75    1
     2    85    86    2
     3    85    84    1
     4    83    84    1
     5    83    76   am
     6    75    76    1
     7    75    78    1
     8    84    87    1
     9    76    77    2
    10    87    88    1
    11    78    79    1
    12    88    89    1
    13    79    80    1
    14    89    90    1
    15    81    80   ar
    16    80    82   ar
    17    93    91    1
    18    64    65    1
    19    64    61    1
    20    90    91    2
    21    43    42    2
    22    60    61    1
    23    40    41    1
    24    42    41    1
    25    51    50    2
    26    91    92    1
    27    41    44    1
    28    63    62    2
    29    61    62    1
    30    62    66   am
    31    50    49    1
    32    46    45   ar
    33    20    21    1
    34    20    19    1
    35    44    45    1
    36    49    52    1
    37    49    48    1
    38    45    47   ar
    39    54    56   ar
    40    54    53   ar
    41    66    67    1
    42    52    53    1
    43    19    18    1
    44    56    58   ar
    45    53    55   ar
    46    67    68    1
    47    67    70    1
    48    73    71    1
    49    68    69    2
    50    28    27   ar
    51    18    17    1
    52    29    27   ar
    53    71    70    1
    54    71    72    1
    55    58    59    1
    56    58    57   ar
    57    27    26    1
    58    55    57   ar
    59    17    14    1
    60    26    23    1
    61    14    13    1
    62    14    15    1
    63    22    23    1
    64    22    15   am
    65    13    11   am
    66    23    24    1
    67    15    16    2
    68    39    38    2
    69    38    37    1
    70    11    10    1
    71    11    12    2
    72    10     9    1
    73    24    25    2
    74    24    30   am
    75    30    31    1
    76     8     6   am
    77    37    36    1
    78     7     6    2
    79     6     5    1
    80    31    32    1
    81    31    34    1
    82    32    33    2
    83    35    34    1
    84     4     3    2
    85     5     2    1
    86     3     2    1
    87     2     1    1
