@<TRIPOS>MOLECULE
tmp/3g6mA01.pdb
 119 118 0 0 0
SMALL
GASTEIGER

@<TRIPOS>ATOM
      1  N         18.0530    2.6830    4.9320 N.3    96  TRP96      -0.1241
      2  CA        18.2580    1.9300    3.7060 C.3    96  TRP96       0.1605
      3  C         19.7430    1.6960    3.3730 C.2    96  TRP96       0.2264
      4  O         20.1280    0.5720    3.0270 O.2    96  TRP96      -0.2867
      5  CB        17.5300    2.6290    2.5500 C.3    96  TRP96       0.0550
      6  CG        17.4930    1.8180    1.2980 C.ar   96  TRP96       0.0003
      7  CD1       18.2490    2.0060    0.1720 C.ar   96  TRP96       0.0946
      8  CD2       16.6700    0.6700    1.0440 C.ar   96  TRP96       0.0152
      9  NE1       17.9430    1.0480   -0.7670 N.ar   96  TRP96      -0.2442
     10  CE2       16.9790    0.2140   -0.2590 C.ar   96  TRP96       0.0810
     11  CE3       15.7040   -0.0190    1.7930 C.ar   96  TRP96       0.0012
     12  CZ2       16.3530   -0.9000   -0.8360 C.ar   96  TRP96       0.0191
     13  CZ3       15.0750   -1.1310    1.2150 C.ar   96  TRP96       0.0001
     14  CH2       15.4060   -1.5560   -0.0870 C.ar   96  TRP96       0.0015
     15  N         16.9910   -2.4770    7.6500 N.3   136  GLU136     -0.1231
     16  CA        16.4110   -2.8670    6.3730 C.3   136  GLU136      0.1699
     17  C         17.3430   -3.8210    5.6420 C.2   136  GLU136      0.2592
     18  O         18.2250   -3.3580    4.9070 O.2   136  GLU136     -0.2718
     19  CB        16.1210   -1.6360    5.5040 C.3   136  GLU136      0.0402
     20  CG        14.9960   -0.7800    6.0360 C.3   136  GLU136      0.1161
     21  CD        15.1000    0.6650    5.6270 C.2   136  GLU136      0.3649
     22  OE1       15.5520    1.4770    6.4610 O.co2 136  GLU136     -0.2457
     23  OE2       14.7320    0.9960    4.4810 O.co2 136  GLU136     -0.2457
     24  N         17.1810   -5.1380    5.8100 N.am  137  TYR137     -0.1976
     25  CA        16.1530   -5.8120    6.6230 C.3   137  TYR137      0.1639
     26  C         16.7380   -7.0980    7.2120 C.2   137  TYR137      0.2290
     27  O         17.6260   -7.6970    6.5920 O.2   137  TYR137     -0.2864
     28  CB        14.9860   -6.2760    5.7460 C.3   137  TYR137      0.0560
     29  CG        14.1930   -5.1990    5.0690 C.ar  137  TYR137     -0.0198
     30  CD1       13.2750   -4.4380    5.7860 C.ar  137  TYR137     -0.0009
     31  CD2       14.3270   -4.9610    3.6980 C.ar  137  TYR137     -0.0009
     32  CE1       12.5270   -3.4470    5.1770 C.ar  137  TYR137      0.0417
     33  CE2       13.5710   -3.9740    3.0720 C.ar  137  TYR137      0.0417
     34  CZ        12.6670   -3.2220    3.8230 C.ar  137  TYR137      0.1957
     35  OH        11.8950   -2.2420    3.2380 O.3   137  TYR137     -0.2866
     36  N          6.4190    1.1930    6.3830 N.3   202  MET202     -0.1245
     37  CA         6.9220    1.8650    5.1850 C.3   202  MET202      0.1570
     38  C          6.0540    1.4630    3.9740 C.2   202  MET202      0.2261
     39  O          6.4500    0.6590    3.1140 O.2   202  MET202     -0.2867
     40  CB         8.4070    1.5480    4.9730 C.3   202  MET202      0.0387
     41  CG         9.3080    2.0820    6.0880 C.3   202  MET202      0.0595
     42  SD        11.0480    1.7030    5.7590 S.3   202  MET202     -0.1393
     43  CE        11.0280   -0.0530    6.0390 C.3   202  MET202      0.0692
     44  N          5.2760    2.4240    1.1180 N.3   204  TYR204     -0.1227
     45  CA         5.6520    3.1350   -0.0870 C.3   204  TYR204      0.1736
     46  C          6.8220    2.4130   -0.7450 C.2   204  TYR204      0.2595
     47  O          7.2540    1.3490   -0.2690 O.2   204  TYR204     -0.2718
     48  CB         5.9970    4.5940    0.2110 C.3   204  TYR204      0.0548
     49  CG         6.7700    4.8400    1.4780 C.ar  204  TYR204     -0.0200
     50  CD1        8.1030    4.4360    1.5990 C.ar  204  TYR204     -0.0009
     51  CD2        6.1780    5.5020    2.5570 C.ar  204  TYR204     -0.0009
     52  CE1        8.8220    4.6780    2.7750 C.ar  204  TYR204      0.0417
     53  CE2        6.8950    5.7600    3.7290 C.ar  204  TYR204      0.0417
     54  CZ         8.2110    5.3370    3.8290 C.ar  204  TYR204      0.1957
     55  OH         8.9060    5.5950    4.9830 O.3   204  TYR204     -0.2866
     56  N          7.3100    2.9860   -1.8440 N.am  205  ASP205     -0.1974
     57  CA         8.3580    2.3640   -2.6590 C.3   205  ASP205      0.1709
     58  C          7.9750    0.9690   -3.1700 C.2   205  ASP205      0.2293
     59  O          8.8390    0.0990   -3.3160 O.2   205  ASP205     -0.2864
     60  CB         9.7000    2.3170   -1.9020 C.3   205  ASP205      0.1436
     61  CG        10.2950    3.6920   -1.6760 C.2   205  ASP205      0.3671
     62  OD1        9.9840    4.6070   -2.4580 O.co2 205  ASP205     -0.2456
     63  OD2       11.0820    3.8450   -0.7100 O.co2 205  ASP205     -0.2456
     64  N         13.2560   -1.2710  -10.5320 N.3   210  TRP210     -0.1241
     65  CA        13.4890   -2.7130  -10.3920 C.3   210  TRP210      0.1605
     66  C         12.3400   -3.5410  -10.9860 C.2   210  TRP210      0.2264
     67  O         12.4290   -4.7670  -11.0620 O.2   210  TRP210     -0.2867
     68  CB        13.7280   -3.0640   -8.9100 C.3   210  TRP210      0.0550
     69  CG        12.6040   -2.5890   -8.0170 C.ar  210  TRP210      0.0003
     70  CD1       11.4510   -3.2700   -7.7160 C.ar  210  TRP210      0.0946
     71  CD2       12.4990   -1.3130   -7.3660 C.ar  210  TRP210      0.0152
     72  NE1       10.6540   -2.5040   -6.9030 N.ar  210  TRP210     -0.2442
     73  CE2       11.2690   -1.3010   -6.6710 C.ar  210  TRP210      0.0810
     74  CE3       13.3360   -0.1860   -7.2840 C.ar  210  TRP210      0.0012
     75  CZ2       10.8460   -0.1990   -5.9110 C.ar  210  TRP210      0.0191
     76  CZ3       12.9140    0.9150   -6.5210 C.ar  210  TRP210      0.0001
     77  CH2       11.6800    0.8950   -5.8480 C.ar  210  TRP210      0.0015
     78  N          7.4030    8.6310   -7.6030 N.3   260  ARG260     -0.1245
     79  CA         8.2750    7.7640   -8.4020 C.3   260  ARG260      0.1563
     80  C          7.8070    7.7770   -9.8530 C.2   260  ARG260      0.2260
     81  O          6.6340    7.4990  -10.1410 O.2   260  ARG260     -0.2867
     82  CB         8.3070    6.3460   -7.8220 C.3   260  ARG260      0.0307
     83  CG         8.8220    6.3430   -6.3760 C.3   260  ARG260      0.0489
     84  CD         9.1720    4.9570   -5.8770 C.3   260  ARG260      0.2205
     85  NE        10.4500    4.5610   -6.4380 N.pl3 260  ARG260     -0.0865
     86  CZ        11.6280    4.6760   -5.8210 C.cat 260  ARG260      0.5346
     87  NH1       11.7150    5.1310   -4.5800 N.pl3 260  ARG260      0.1354
     88  NH2       12.7250    4.3120   -6.4530 N.pl3 260  ARG260      0.1354
     89  N         17.6200   12.7430   -7.0530 N.3   281  GLU281     -0.1245
     90  CA        18.1300   11.5520   -7.7110 C.3   281  GLU281      0.1567
     91  C         17.1590   11.1380   -8.8080 C.2   281  GLU281      0.2260
     92  O         15.9860   11.5220   -8.7860 O.2   281  GLU281     -0.2867
     93  CB        18.3570   10.4080   -6.7200 C.3   281  GLU281      0.0388
     94  CG        17.1130    9.8070   -6.0990 C.3   281  GLU281      0.1160
     95  CD        17.4630    8.7780   -5.0400 C.2   281  GLU281      0.3649
     96  OE1       17.3360    7.5560   -5.3160 O.co2 281  GLU281     -0.2457
     97  OE2       17.8960    9.1930   -3.9430 O.co2 281  GLU281     -0.2457
     98  N         12.8620   10.2230   -9.0490 N.3   284  ILE284     -0.1245
     99  CA        12.1140   10.5760   -7.8260 C.3   284  ILE284      0.1561
    100  C         11.9410   12.0870   -7.7690 C.2   284  ILE284      0.2260
    101  O         12.9230   12.8240   -7.8900 O.2   284  ILE284     -0.2867
    102  CB        12.8330   10.0900   -6.5460 C.3   284  ILE284      0.0252
    103  CG1       13.0530    8.5710   -6.6110 C.3   284  ILE284      0.0019
    104  CG2       12.0710   10.5500   -5.2780 C.3   284  ILE284      0.0019
    105  CD1       14.0270    8.0460   -5.5840 C.3   284  ILE284      0.0001
    106  N          7.8250   10.2350    4.8850 N.3   343  TRP343     -0.1241
    107  CA         9.1940   10.4390    4.3920 C.3   343  TRP343      0.1605
    108  C          9.0860   11.3210    3.1560 C.2   343  TRP343      0.2264
    109  O          8.4680   10.8860    2.1810 O.2   343  TRP343     -0.2867
    110  CB         9.8290    9.1260    3.9300 C.3   343  TRP343      0.0550
    111  CG        11.1920    9.3540    3.2620 C.ar  343  TRP343      0.0003
    112  CD1       11.4360    9.7260    1.9580 C.ar  343  TRP343      0.0946
    113  CD2       12.4740    9.2670    3.8950 C.ar  343  TRP343      0.0152
    114  NE1       12.7980    9.8490    1.7450 N.ar  343  TRP343     -0.2442
    115  CE2       13.4540    9.5780    2.9180 C.ar  343  TRP343      0.0810
    116  CE3       12.8930    8.9340    5.1890 C.ar  343  TRP343      0.0012
    117  CZ2       14.8260    9.5590    3.2000 C.ar  343  TRP343      0.0191
    118  CZ3       14.2620    8.9280    5.4640 C.ar  343  TRP343      0.0001
    119  CH2       15.2030    9.2480    4.4800 C.ar  343  TRP343      0.0015
@<TRIPOS>BOND
     1    67    66    2
     2    66    65    1
     3    64    65    1
     4    65    68    1
     5    81    80    2
     6    80    79    1
     7    98    99    1
     8    68    69    1
     9    91    92    2
    10    91    90    1
    11    79    82    1
    12    79    78    1
    13    69    70   ar
    14    69    71   ar
    15   101   100    2
    16    99   100    1
    17    99   102    1
    18    82    83    1
    19    70    72   ar
    20    90    89    1
    21    90    93    1
    22    71    74   ar
    23    71    73   ar
    24    74    76   ar
    25    72    73   ar
    26    93    94    1
    27    73    75   ar
    28   103   102    1
    29   103   105    1
    30   102   104    1
    31    76    77   ar
    32    88    86    1
    33    85    84    1
    34    85    86    2
    35    83    84    1
    36    94    95    1
    37    75    77   ar
    38    86    87    1
    39    96    95   ar
    40    95    97   ar
    41    59    58    2
    42    58    57    1
    43    57    60    1
    44    57    56    1
    45    62    61   ar
    46    60    61    1
    47    56    46   am
    48    61    63   ar
    49    12    10   ar
    50    12    14   ar
    51     9    10   ar
    52     9     7   ar
    53    46    47    2
    54    46    45    1
    55    10     8   ar
    56    14    13   ar
    57    45    48    1
    58    45    44    1
    59     7     6   ar
    60    48    49    1
    61     8     6   ar
    62     8    11   ar
    63    13    11   ar
    64     6     5    1
    65    49    50   ar
    66    49    51   ar
    67    50    52   ar
    68   114   112   ar
    69   114   115   ar
    70   112   111   ar
    71   109   108    2
    72     5     2    1
    73    51    53   ar
    74    52    54   ar
    75   115   117   ar
    76   115   113   ar
    77     4     3    2
    78    33    31   ar
    79    33    34   ar
    80    39    38    2
    81   108   107    1
    82   117   119   ar
    83    35    34    1
    84   111   113   ar
    85   111   110    1
    86     3     2    1
    87    31    29   ar
    88     2     1    1
    89    53    54   ar
    90    34    32   ar
    91    54    55    1
    92   113   116   ar
    93   110   107    1
    94    38    37    1
    95   107   106    1
    96   119   118   ar
    97    23    21   ar
    98    18    17    2
    99    40    37    1
   100    40    41    1
   101    29    28    1
   102    29    30   ar
   103    32    30   ar
   104    37    36    1
   105   116   118   ar
   106    19    20    1
   107    19    16    1
   108    21    20    1
   109    21    22   ar
   110    17    24   am
   111    17    16    1
   112    28    25    1
   113    42    43    1
   114    42    41    1
   115    24    25    1
   116    16    15    1
   117    27    26    2
   118    25    26    1
