@<TRIPOS>MOLECULE
tmp/3g6nA00.pdb
 136 130 0 0 0
SMALL
GASTEIGER

@<TRIPOS>ATOM
      1  N         10.9470   62.6320   74.3400 N.3    49  GLN49      -0.1245
      2  CA        10.3110   63.8190   73.7780 C.3    49  GLN49       0.1566
      3  C         11.0610   64.4010   72.5820 C.2    49  GLN49       0.2260
      4  O         10.7100   65.4650   72.0800 O.2    49  GLN49      -0.2867
      5  CB        10.1700   64.8950   74.8590 C.3    49  GLN49       0.0367
      6  CG         9.1090   64.5840   75.8980 C.3    49  GLN49       0.0905
      7  CD         9.0980   65.5800   77.0420 C.2    49  GLN49       0.2608
      8  OE1        9.2440   66.7780   76.8290 O.2    49  GLN49      -0.2717
      9  NE2        8.9170   65.0870   78.2610 N.am   49  GLN49      -0.0878
     10  N          8.3950   55.6080   74.1030 N.3    60  ARG60      -0.1231
     11  CA         7.0580   56.1960   74.1150 C.3    60  ARG60       0.1694
     12  C          7.1530   57.4760   74.9380 C.2    60  ARG60       0.2593
     13  O          7.5960   57.4450   76.0810 O.2    60  ARG60      -0.2718
     14  CB         6.0550   55.2270   74.7610 C.3    60  ARG60       0.0321
     15  CG         4.6960   55.8510   75.0960 C.3    60  ARG60       0.0489
     16  CD         3.7620   54.8880   75.8610 C.3    60  ARG60       0.2205
     17  NE         2.6340   55.6170   76.4500 N.pl3  60  ARG60      -0.0865
     18  CZ         1.7190   55.0900   77.2610 C.cat  60  ARG60       0.5346
     19  NH1        1.7740   53.8070   77.6030 N.pl3  60  ARG60       0.1354
     20  NH2        0.7460   55.8590   77.7380 N.pl3  60  ARG60       0.1354
     21  N          6.7380   58.5960   74.3580 N.am   61  GLY61      -0.1942
     22  CA         6.8170   59.8660   75.0580 C.3    61  GLY61       0.2014
     23  C          6.1990   59.9240   76.4420 C.2    61  GLY61       0.2639
     24  O          5.1270   59.3660   76.6770 O.2    61  GLY61      -0.2714
     25  N          6.8800   60.6110   77.3580 N.am   62  GLY62      -0.1939
     26  CA         6.3910   60.7620   78.7200 C.3    62  GLY62       0.2014
     27  C          6.8480   62.0880   79.3030 C.2    62  GLY62       0.2639
     28  O          7.8280   62.6550   78.8270 O.2    62  GLY62      -0.2714
     29  N          6.1440   62.6010   80.3120 N.am   63  VAL63      -0.1963
     30  CA         6.5290   63.8660   80.9450 C.3    63  VAL63       0.1727
     31  C          6.9090   63.6780   82.4090 C.2    63  VAL63       0.2616
     32  O          7.4080   64.5960   83.0560 O.2    63  VAL63      -0.2715
     33  CB         5.4040   64.9230   80.8850 C.3    63  VAL63       0.0290
     34  CG1        5.2580   65.4550   79.4740 C.3    63  VAL63       0.0023
     35  CG2        4.1040   64.3230   81.3770 C.3    63  VAL63       0.0023
     36  N          6.6690   62.4810   82.9260 N.am   64  GLY64      -0.1955
     37  CA         6.9940   62.1990   84.3080 C.3    64  GLY64       0.1869
     38  C          7.2850   60.7290   84.4780 C.2    64  GLY64       0.2309
     39  O          6.7940   59.8990   83.7140 O.2    64  GLY64      -0.2863
     40  N          8.0440   52.5960   88.7740 N.3    69  GLN69      -0.1245
     41  CA         7.7510   52.1580   87.4130 C.3    69  GLN69       0.1566
     42  C          8.9500   51.4110   86.8340 C.2    69  GLN69       0.2260
     43  O          8.8250   50.6790   85.8480 O.2    69  GLN69      -0.2867
     44  CB         7.3830   53.3540   86.5250 C.3    69  GLN69       0.0367
     45  CG         5.9450   53.8460   86.7080 C.3    69  GLN69       0.0905
     46  CD         5.6560   55.1470   85.9720 C.2    69  GLN69       0.2608
     47  OE1        6.0260   56.2330   86.4290 O.2    69  GLN69      -0.2717
     48  NE2        4.9940   55.0420   84.8200 N.am   69  GLN69      -0.0878
     49  N          7.3840   69.8920   79.0990 N.3    82  PRO82      -0.2116
     50  CA         7.8340   70.7490   77.9920 C.3    82  PRO82       0.1372
     51  C          7.5480   72.2560   77.9710 C.2    82  PRO82       0.2244
     52  O          7.0750   72.7720   76.9490 O.2    82  PRO82      -0.2868
     53  CB         7.2320   70.0560   76.7690 C.3    82  PRO82       0.0268
     54  CG         5.9240   69.5060   77.3230 C.3    82  PRO82       0.0207
     55  CD         6.4690   68.8510   78.5890 C.3    82  PRO82       0.0892
     56  N         -7.0170   66.8950   83.3780 N.3   104  LEU104     -0.1245
     57  CA        -6.5880   66.9010   81.9860 C.3   104  LEU104      0.1561
     58  C         -7.7530   66.4050   81.1370 C.2   104  LEU104      0.2260
     59  O         -8.1730   65.2580   81.2670 O.2   104  LEU104     -0.2867
     60  CB        -5.3850   65.9810   81.7890 C.3   104  LEU104      0.0270
     61  CG        -4.0600   66.3910   82.4330 C.3   104  LEU104      0.0019
     62  CD1       -3.0040   65.3580   82.0950 C.3   104  LEU104      0.0001
     63  CD2       -3.6350   67.7660   81.9340 C.3   104  LEU104      0.0001
     64  N         -5.1490   61.3350   81.6170 N.3   108  GLU108     -0.1231
     65  CA        -3.7520   61.1330   81.9790 C.3   108  GLU108      0.1699
     66  C         -3.1380   59.8750   81.3990 C.2   108  GLU108      0.2593
     67  O         -3.7340   58.8010   81.4420 O.2   108  GLU108     -0.2718
     68  CB        -3.6070   61.0780   83.4990 C.3   108  GLU108      0.0402
     69  CG        -3.8120   62.3970   84.2030 C.3   108  GLU108      0.1161
     70  CD        -3.7960   62.2500   85.7070 C.2   108  GLU108      0.3649
     71  OE1       -3.0910   61.3540   86.2110 O.co2 108  GLU108     -0.2457
     72  OE2       -4.4750   63.0390   86.3870 O.co2 108  GLU108     -0.2457
     73  N         -1.9320   60.0090   80.8680 N.am  109  GLY109     -0.1942
     74  CA        -1.2450   58.8540   80.3270 C.3   109  GLY109      0.2014
     75  C         -0.3830   58.2210   81.4110 C.2   109  GLY109      0.2639
     76  O         -0.1890   58.7960   82.4870 O.2   109  GLY109     -0.2714
     77  N          0.1390   57.0350   81.1350 N.am  110  CYS110     -0.1953
     78  CA         0.9760   56.3430   82.0980 C.3   110  CYS110      0.1843
     79  C          1.7160   55.2380   81.3530 C.2   110  CYS110      0.2625
     80  O          1.0990   54.2790   80.8840 O.2   110  CYS110     -0.2714
     81  CB         0.1040   55.7710   83.2320 C.3   110  CYS110      0.0997
     82  SG         0.9680   54.8670   84.5510 S.3   110  CYS110     -0.0797
     83  N          3.0330   55.3980   81.2240 N.am  111  LEU111     -0.1977
     84  CA         3.8710   54.4210   80.5340 C.3   111  LEU111      0.1596
     85  C          3.7020   53.0120   81.0990 C.2   111  LEU111      0.2287
     86  O          4.1030   52.0400   80.4620 O.2   111  LEU111     -0.2864
     87  CB         5.3590   54.8000   80.6230 C.3   111  LEU111      0.0297
     88  CG         6.0860   55.8360   79.7430 C.3   111  LEU111      0.0022
     89  CD1        5.5280   55.8030   78.3440 C.3   111  LEU111      0.0001
     90  CD2        5.9760   57.2250   80.3250 C.3   111  LEU111      0.0001
     91  N         -1.1000   71.9300   84.5220 N.3   146  TYR146     -0.1241
     92  CA        -0.4520   70.7350   83.9900 C.3   146  TYR146      0.1605
     93  C          0.6680   70.2130   84.8920 C.2   146  TYR146      0.2264
     94  O          0.6670   69.0450   85.2820 O.2   146  TYR146     -0.2867
     95  CB         0.0760   70.9980   82.5780 C.3   146  TYR146      0.0534
     96  CG         0.4840   69.7460   81.8220 C.ar  146  TYR146     -0.0201
     97  CD1       -0.3760   68.6620   81.7160 C.ar  146  TYR146     -0.0009
     98  CD2        1.7250   69.6580   81.1870 C.ar  146  TYR146     -0.0009
     99  CE1       -0.0150   67.5170   80.9940 C.ar  146  TYR146      0.0417
    100  CE2        2.0920   68.5240   80.4620 C.ar  146  TYR146      0.0417
    101  CZ         1.2210   67.4620   80.3680 C.ar  146  TYR146      0.1957
    102  OH         1.5700   66.3510   79.6330 O.3   146  TYR146     -0.2866
    103  N         -0.5740   68.6720   87.9920 N.3   149  ILE149     -0.1231
    104  CA        -1.1540   67.3770   87.7170 C.3   149  ILE149      0.1692
    105  C         -0.0760   66.3220   87.5260 C.2   149  ILE149      0.2591
    106  O         -0.1670   65.2210   88.0750 O.2   149  ILE149     -0.2718
    107  CB        -2.0940   67.4720   86.4840 C.3   149  ILE149      0.0266
    108  CG1       -3.4300   68.0670   86.9420 C.3   149  ILE149      0.0019
    109  CG2       -2.2690   66.1130   85.8230 C.3   149  ILE149      0.0020
    110  CD1       -4.3170   68.5580   85.8280 C.3   149  ILE149      0.0001
    111  N          0.9590   66.6570   86.7670 N.am  150  VAL150     -0.1980
    112  CA         2.0380   65.7040   86.5320 C.3   150  VAL150      0.1595
    113  C          2.6710   65.2560   87.8640 C.2   150  VAL150      0.2287
    114  O          2.7540   64.0600   88.1520 O.2   150  VAL150     -0.2864
    115  CB         3.1150   66.3210   85.6160 C.3   150  VAL150      0.0276
    116  CG1        4.2600   65.3340   85.4000 C.3   150  VAL150      0.0022
    117  CG2        2.4890   66.7060   84.2850 C.3   150  VAL150      0.0022
    118  N          0.4790   63.0640   89.7820 N.3   153  HIS153     -0.1226
    119  CA         0.4090   61.7310   89.2080 C.3   153  HIS153      0.1752
    120  C          1.6470   60.9210   89.6190 C.2   153  HIS153      0.2595
    121  O          1.5490   59.7350   89.9330 O.2   153  HIS153     -0.2718
    122  CB         0.3200   61.8340   87.6860 C.3   153  HIS153      0.0759
    123  CG         0.4440   60.5210   86.9830 C.ar  153  HIS153      0.0818
    124  ND1       -0.5740   59.9850   86.2250 N.ar  153  HIS153     -0.2268
    125  CD2        1.4660   59.6350   86.9230 C.ar  153  HIS153      0.1154
    126  CE1       -0.1850   58.8240   85.7290 C.ar  153  HIS153      0.1986
    127  NE2        1.0490   58.5900   86.1380 N.ar  153  HIS153     -0.2212
    128  N          2.8120   61.5630   89.6210 N.am  154  GLU154     -0.1979
    129  CA         4.0440   60.8820   89.9890 C.3   154  GLU154      0.1602
    130  C          4.1300   60.5520   91.4740 C.2   154  GLU154      0.2287
    131  O          4.5550   59.4590   91.8400 O.2   154  GLU154     -0.2864
    132  CB         5.2580   61.7160   89.5770 C.3   154  GLU154      0.0415
    133  CG         5.4110   61.9030   88.0730 C.3   154  GLU154      0.1163
    134  CD         5.1560   60.6250   87.2910 C.2   154  GLU154      0.3649
    135  OE1        5.6640   59.5530   87.6870 O.co2 154  GLU154     -0.2457
    136  OE2        4.4480   60.6910   86.2690 O.co2 154  GLU154     -0.2457
@<TRIPOS>BOND
     1     4     3    2
     2     3     2    1
     3     2     1    1
     4     2     5    1
     5    10    11    1
     6    11    14    1
     7    11    12    1
     8    21    12   am
     9    21    22    1
    10    14    15    1
    11     5     6    1
    12    12    13    2
    13    22    23    1
    14    15    16    1
    15    16    17    1
    16     6     7    1
    17    23    24    2
    18    23    25   am
    19    17    18    2
    20    53    54    1
    21    53    50    1
    22     8     7    2
    23    52    51    2
    24     7     9   am
    25    18    19    1
    26    18    20    1
    27    54    55    1
    28    25    26    1
    29    51    50    1
    30    50    49    1
    31    89    88    1
    32    55    49    1
    33    26    27    1
    34    28    27    2
    35    27    29   am
    36    34    33    1
    37   102   101    1
    38    88    90    1
    39    88    87    1
    40    29    30    1
    41    74    73    1
    42    74    75    1
    43   101   100   ar
    44   101    99   ar
    45   100    98   ar
    46    86    85    2
    47    84    87    1
    48    84    85    1
    49    84    83    1
    50    73    66   am
    51    80    79    2
    52    33    30    1
    53    33    35    1
    54    30    31    1
    55    99    97   ar
    56    77    75   am
    57    77    78    1
    58    58    59    2
    59    58    57    1
    60    98    96   ar
    61    83    79   am
    62    79    78    1
    63    66    67    2
    64    66    65    1
    65    75    76    2
    66    64    65    1
    67    97    96   ar
    68    60    57    1
    69    60    61    1
    70    96    95    1
    71    63    61    1
    72    65    68    1
    73    57    56    1
    74    62    61    1
    75    78    81    1
    76    31    36   am
    77    31    32    2
    78    95    92    1
    79    36    37    1
    80    81    82    1
    81    68    69    1
    82    39    38    2
    83    92    91    1
    84    92    93    1
    85    69    70    1
    86   117   115    1
    87    37    38    1
    88    48    46   am
    89    93    94    2
    90   116   115    1
    91   115   112    1
    92    70    71   ar
    93    70    72   ar
    94   126   127   ar
    95   126   124   ar
    96   109   107    1
    97   110   108    1
    98    43    42    2
    99    46    47    2
   100    46    45    1
   101   127   125   ar
   102   124   123   ar
   103   136   134   ar
   104   107   108    1
   105   107   104    1
   106    44    45    1
   107    44    41    1
   108   112   111    1
   109   112   113    1
   110   111   105   am
   111    42    41    1
   112   125   123   ar
   113   123   122    1
   114   134   135   ar
   115   134   133    1
   116    41    40    1
   117   105   104    1
   118   105   106    2
   119   122   119    1
   120   104   103    1
   121   113   114    2
   122   133   132    1
   123   119   120    1
   124   119   118    1
   125   132   129    1
   126   120   128   am
   127   120   121    2
   128   128   129    1
   129   129   130    1
   130   130   131    2
