@<TRIPOS>MOLECULE
tmp/3g6wD03.pdb
 140 134 0 0 0
SMALL
GASTEIGER

@<TRIPOS>ATOM
      1  N        -17.4750    8.8610  -11.8990 N.3    77  ILE77      -0.1231
      2  CA       -17.6530    9.5800  -13.1570 C.3    77  ILE77       0.1692
      3  C        -16.5480   10.6140  -13.1890 C.2    77  ILE77       0.2592
      4  O        -16.5490   11.5850  -12.4290 O.2    77  ILE77      -0.2718
      5  CB       -19.0240   10.2510  -13.2580 C.3    77  ILE77       0.0266
      6  CG1      -20.1010    9.1850  -13.5080 C.3    77  ILE77       0.0019
      7  CG2      -19.0150   11.2660  -14.3980 C.3    77  ILE77       0.0020
      8  CD1      -21.4890    9.7390  -13.8170 C.3    77  ILE77       0.0001
      9  N        -15.6140   10.3870  -14.1070 N.am   78  LEU78      -0.1966
     10  CA       -14.4160   11.1850  -14.2290 C.3    78  LEU78       0.1728
     11  C        -14.3440   12.6600  -14.2420 C.2    78  LEU78       0.2616
     12  O        -14.9580   13.3490  -15.0450 O.2    78  LEU78      -0.2715
     13  CB       -13.5420   10.6720  -15.3510 C.3    78  LEU78       0.0311
     14  CG       -12.5310    9.7470  -14.6770 C.3    78  LEU78       0.0022
     15  CD1      -11.2610    9.7110  -15.4980 C.3    78  LEU78       0.0001
     16  CD2      -12.2320   10.2500  -13.2600 C.3    78  LEU78       0.0001
     17  N        -13.4620   13.0670  -13.3320 N.am   79  ARG79      -0.1963
     18  CA       -13.0610   14.4120  -12.9630 C.3    79  ARG79       0.1729
     19  C        -13.8700   14.8060  -11.7540 C.2    79  ARG79       0.2616
     20  O        -13.5490   14.4030  -10.6460 O.2    79  ARG79      -0.2715
     21  CB       -13.2600   15.4080  -14.0890 C.3    79  ARG79       0.0348
     22  CG       -12.0770   15.5700  -15.0350 C.3    79  ARG79       0.0492
     23  CD       -10.9980   16.4710  -14.4600 C.3    79  ARG79       0.2205
     24  NE       -10.8320   17.7700  -15.1390 N.pl3  79  ARG79      -0.0865
     25  CZ       -11.6900   18.7890  -15.0870 C.cat  79  ARG79       0.5346
     26  NH1      -12.8150   18.6980  -14.4050 N.pl3  79  ARG79       0.1354
     27  NH2      -11.3920   19.9320  -15.6690 N.pl3  79  ARG79       0.1354
     28  N        -14.9410   15.5550  -11.9650 N.am   80  ALA80      -0.1977
     29  CA       -15.7450   16.0300  -10.8580 C.3    80  ALA80       0.1597
     30  C        -15.8420   15.0890   -9.6740 C.2    80  ALA80       0.2287
     31  O        -15.6960   15.5270   -8.5370 O.2    80  ALA80      -0.2864
     32  CB       -17.1220   16.3810  -11.3410 C.3    80  ALA80       0.0319
     33  N        -16.5960   10.7170  -18.7870 N.3   102  ALA102     -0.1231
     34  CA       -17.6150   11.3480  -19.6200 C.3   102  ALA102      0.1694
     35  C        -17.2470   12.7940  -19.8860 C.2   102  ALA102      0.2593
     36  O        -16.6070   13.4480  -19.0620 O.2   102  ALA102     -0.2718
     37  CB       -18.9790   11.2800  -18.9420 C.3   102  ALA102      0.0304
     38  N        -17.6490   13.2790  -21.0530 N.am  103  SER103     -0.1938
     39  CA       -17.3940   14.6520  -21.4510 C.3   103  SER103      0.2055
     40  C        -18.6080   15.0910  -22.2620 C.2   103  SER103      0.2642
     41  O        -18.9900   14.4290  -23.2340 O.2   103  SER103     -0.2714
     42  CB       -16.1240   14.7280  -22.2950 C.3   103  SER103      0.2130
     43  OG       -15.6070   16.0480  -22.3170 O.3   103  SER103     -0.2179
     44  N        -19.2300   16.1930  -21.8490 N.am  104  ARG104     -0.1977
     45  CA       -20.4110   16.6910  -22.5390 C.3   104  ARG104      0.1597
     46  C        -20.1170   17.4360  -23.8270 C.2   104  ARG104      0.2287
     47  O        -19.0910   18.0980  -23.9620 O.2   104  ARG104     -0.2864
     48  CB       -21.2400   17.6090  -21.6280 C.3   104  ARG104      0.0334
     49  CG       -22.3970   16.9150  -20.9110 C.3   104  ARG104      0.0492
     50  CD       -23.5580   17.8710  -20.5920 C.3   104  ARG104      0.2205
     51  NE       -23.1170   19.2110  -20.2010 N.pl3 104  ARG104     -0.0865
     52  CZ       -23.8360   20.0540  -19.4590 C.cat 104  ARG104      0.5346
     53  NH1      -25.0370   19.7030  -19.0100 N.pl3 104  ARG104      0.1354
     54  NH2      -23.3610   21.2620  -19.1800 N.pl3 104  ARG104      0.1354
     55  N        -14.6500    8.9580  -23.1280 N.3   121  TYR121     -0.1241
     56  CA       -13.2220    8.9330  -23.4300 C.3   121  TYR121      0.1605
     57  C        -12.4400    7.9940  -22.5230 C.2   121  TYR121      0.2264
     58  O        -11.2140    7.9450  -22.5850 O.2   121  TYR121     -0.2867
     59  CB       -12.6350   10.3460  -23.3280 C.3   121  TYR121      0.0534
     60  CG       -12.6510   10.9220  -21.9270 C.ar  121  TYR121     -0.0201
     61  CD1      -11.6790   10.5560  -20.9900 C.ar  121  TYR121     -0.0009
     62  CD2      -13.6570   11.8110  -21.5220 C.ar  121  TYR121     -0.0009
     63  CE1      -11.7060   11.0540  -19.6870 C.ar  121  TYR121      0.0417
     64  CE2      -13.6920   12.3160  -20.2160 C.ar  121  TYR121      0.0417
     65  CZ       -12.7110   11.9300  -19.3070 C.ar  121  TYR121      0.1957
     66  OH       -12.7300   12.4090  -18.0160 O.3   121  TYR121     -0.2866
     67  N        -21.3780   11.4940   -8.9280 N.3   139  ASP139     -0.1239
     68  CA       -21.2070   12.6630   -9.7630 C.3   139  ASP139      0.1674
     69  C        -21.8370   13.8350   -9.0250 C.2   139  ASP139      0.2266
     70  O        -23.0540   13.9070   -8.8780 O.2   139  ASP139     -0.2867
     71  CB       -21.8900   12.4510  -11.0990 C.3   139  ASP139      0.1410
     72  CG       -21.2680   13.2760  -12.1900 C.2   139  ASP139      0.3668
     73  OD1      -20.5170   14.2220  -11.8500 O.co2 139  ASP139     -0.2456
     74  OD2      -21.5330   12.9820  -13.3780 O.co2 139  ASP139     -0.2456
     75  N        -22.7690   16.8030   -9.6810 N.3   141  MET141     -0.1230
     76  CA       -23.9030   17.4520  -10.3350 C.3   141  MET141      0.1702
     77  C        -24.6490   16.5660  -11.3210 C.2   141  MET141      0.2592
     78  O        -24.0680   15.7020  -11.9780 O.2   141  MET141     -0.2718
     79  CB       -23.4390   18.7010  -11.0980 C.3   141  MET141      0.0401
     80  CG       -22.7060   19.7810  -10.2930 C.3   141  MET141      0.0596
     81  SD       -21.2420   20.4210  -11.2470 S.3   141  MET141     -0.1393
     82  CE       -21.8890   20.5340  -13.0090 C.3   141  MET141      0.0692
     83  N        -25.9550   16.8050  -11.4070 N.am  142  ILE142     -0.1966
     84  CA       -26.8510   16.1180  -12.3450 C.3   142  ILE142      0.1727
     85  C        -27.6740   17.2440  -12.9530 C.2   142  ILE142      0.2616
     86  O        -28.6150   17.7170  -12.3280 O.2   142  ILE142     -0.2715
     87  CB       -27.8250   15.1310  -11.6400 C.3   142  ILE142      0.0290
     88  CG1      -27.0400   13.9700  -11.0080 C.3   142  ILE142      0.0022
     89  CG2      -28.8630   14.6170  -12.6580 C.3   142  ILE142      0.0023
     90  CD1      -27.8840   13.0090  -10.1850 C.3   142  ILE142      0.0001
     91  N        -27.2970   17.7050  -14.1420 N.am  143  ALA143     -0.1963
     92  CA       -28.0320   18.7890  -14.8100 C.3   143  ALA143      0.1728
     93  C        -29.1860   18.2150  -15.6360 C.2   143  ALA143      0.2617
     94  O        -30.3400   18.2020  -15.1980 O.2   143  ALA143     -0.2715
     95  CB       -27.0970   19.5870  -15.7110 C.3   143  ALA143      0.0334
     96  N        -28.8700   17.7380  -16.8360 N.am  144  THR144     -0.1937
     97  CA       -29.8900   17.1530  -17.6870 C.3   144  THR144      0.2028
     98  C        -29.8640   15.6460  -17.5200 C.2   144  THR144      0.2642
     99  O        -30.6040   14.9240  -18.1940 O.2   144  THR144     -0.2714
    100  CB       -29.6530   17.4860  -19.1670 C.3   144  THR144      0.1808
    101  OG1      -28.3410   17.0650  -19.5370 O.3   144  THR144     -0.2208
    102  CG2      -29.7970   18.9770  -19.4190 C.3   144  THR144      0.0379
    103  N        -29.0020   15.1790  -16.6190 N.am  145  ALA145     -0.1963
    104  CA       -28.8520   13.7500  -16.3470 C.3   145  ALA145      0.1728
    105  C        -28.4050   12.9710  -17.5820 C.2   145  ALA145      0.2617
    106  O        -28.4030   11.7490  -17.5730 O.2   145  ALA145     -0.2715
    107  CB       -30.1690   13.1720  -15.8190 C.3   145  ALA145      0.0334
    108  N        -28.0360   13.6820  -18.6430 N.am  146  SER146     -0.1936
    109  CA       -27.5850   13.0570  -19.8880 C.3   146  SER146      0.2055
    110  C        -26.4450   12.0850  -19.6260 C.2   146  SER146      0.2644
    111  O        -26.4520   10.9260  -20.0580 O.2   146  SER146     -0.2714
    112  CB       -27.1000   14.1310  -20.8510 C.3   146  SER146      0.2130
    113  OG       -28.1130   15.0940  -21.0310 O.3   146  SER146     -0.2179
    114  N        -25.4500   12.6010  -18.9320 N.am  147  THR147     -0.1936
    115  CA       -24.2840   11.8390  -18.5640 C.3   147  THR147      0.2028
    116  C        -24.7250   10.6500  -17.7340 C.2   147  THR147      0.2642
    117  O        -24.3740    9.5080  -18.0280 O.2   147  THR147     -0.2714
    118  CB       -23.3460   12.7080  -17.7280 C.3   147  THR147      0.1808
    119  OG1      -22.9640   13.8490  -18.4930 O.3   147  THR147     -0.2208
    120  CG2      -22.1080   11.9450  -17.3320 C.3   147  THR147      0.0379
    121  N        -25.5060   10.9260  -16.7000 N.am  148  MET148     -0.1976
    122  CA       -25.9780    9.8880  -15.8060 C.3   148  MET148      0.1605
    123  C        -26.6870    8.7570  -16.5430 C.2   148  MET148      0.2287
    124  O        -26.2850    7.6010  -16.4410 O.2   148  MET148     -0.2864
    125  CB       -26.9040   10.5020  -14.7570 C.3   148  MET148      0.0413
    126  CG       -27.1670    9.6200  -13.5510 C.3   148  MET148      0.0598
    127  SD       -25.6630    9.0930  -12.7180 S.3   148  MET148     -0.1393
    128  CE       -25.0310   10.6480  -12.1240 C.3   148  MET148      0.0692
    129  N        -18.7890   24.9940  -11.8640 N.3   208  ASP208     -0.1239
    130  CA       -18.2640   23.7720  -12.4580 C.3   208  ASP208      0.1674
    131  C        -17.3960   23.0590  -11.4190 C.2   208  ASP208      0.2266
    132  O        -16.2240   23.3900  -11.2350 O.2   208  ASP208     -0.2867
    133  CB       -17.4480   24.1320  -13.6930 C.3   208  ASP208      0.1410
    134  CG       -16.9300   22.9320  -14.4060 C.2   208  ASP208      0.3668
    135  OD1      -17.6470   21.9020  -14.4000 O.co2 208  ASP208     -0.2456
    136  OD2      -15.8170   23.0300  -14.9820 O.co2 208  ASP208     -0.2456
    137  N        -15.9340   20.4070  -11.4080 N.3   210  GLY210     -0.1225
    138  CA       -14.6850   19.9040  -11.9310 C.3   210  GLY210      0.1811
    139  C        -13.6600   21.0170  -12.0160 C.2   210  GLY210      0.2280
    140  O        -12.5040   20.8300  -11.6380 O.2   210  GLY210     -0.2866
@<TRIPOS>BOND
     1    47    46    2
     2    46    45    1
     3    56    59    1
     4    56    55    1
     5    56    57    1
     6    59    60    1
     7    41    40    2
     8    58    57    2
     9    45    44    1
    10    45    48    1
    11    43    42    1
    12    42    39    1
    13    40    44   am
    14    40    39    1
    15    60    62   ar
    16    60    61   ar
    17    48    49    1
    18    62    64   ar
    19    39    38    1
    20    38    35   am
    21   113   112    1
    22    61    63   ar
    23    49    50    1
    24   112   109    1
    25    50    51    1
    26    64    65   ar
    27    51    52    2
    28   111   110    2
    29   109   110    1
    30   109   108    1
    31    35    34    1
    32    35    36    2
    33    63    65   ar
    34   110   114   am
    35    34    37    1
    36    34    33    1
    37   101   100    1
    38    52    54    1
    39    52    53    1
    40   102   100    1
    41    65    66    1
    42   100    97    1
    43   114   115    1
    44   108   105   am
    45   115   116    1
    46   115   118    1
    47   119   118    1
    48    99    98    2
    49   117   116    2
    50   116   121   am
    51   118   120    1
    52    97    98    1
    53    97    96    1
    54   105   106    2
    55   105   104    1
    56    98   103   am
    57    96    93   am
    58   121   122    1
    59   103   104    1
    60   123   124    2
    61   123   122    1
    62   104   107    1
    63   122   125    1
    64    95    92    1
    65    27    25    1
    66    93    94    2
    67    93    92    1
    68    15    14    1
    69    13    14    1
    70    13    10    1
    71    24    25    2
    72    24    23    1
    73    25    26    1
    74    12    11    2
    75    22    23    1
    76    22    21    1
    77   136   134   ar
    78    92    91    1
    79   125   126    1
    80    14    16    1
    81   134   135   ar
    82   134   133    1
    83     7     5    1
    84    11    10    1
    85    11    17   am
    86    10     9    1
    87    91    85   am
    88     9     3   am
    89    21    18    1
    90     8     6    1
    91   133   130    1
    92   126   127    1
    93     6     5    1
    94    74    72   ar
    95    17    18    1
    96     5     2    1
    97     3     2    1
    98     3     4    2
    99     2     1    1
   100    82    81    1
   101    18    19    1
   102    85    84    1
   103    85    86    2
   104   127   128    1
   105    89    87    1
   106   130   129    1
   107   130   131    1
   108    84    87    1
   109    84    83    1
   110    72    73   ar
   111    72    71    1
   112   139   138    1
   113   139   140    2
   114    78    77    2
   115    28    19   am
   116    28    29    1
   117   138   137    1
   118    19    20    2
   119    87    88    1
   120   131   132    2
   121    83    77   am
   122    32    29    1
   123    77    76    1
   124    81    80    1
   125    71    68    1
   126    79    76    1
   127    79    80    1
   128    88    90    1
   129    29    30    1
   130    76    75    1
   131    68    69    1
   132    68    67    1
   133    30    31    2
   134    69    70    2
