@<TRIPOS>MOLECULE
tmp/3g6wC02.pdb
 79 75 0 0 0
SMALL
GASTEIGER

@<TRIPOS>ATOM
      1  N        -13.1680   13.1800   29.5240 N.3    77  ILE77      -0.1231
      2  CA       -13.2250   12.4900   30.8120 C.3    77  ILE77       0.1692
      3  C        -12.0540   11.5320   30.5880 C.2    77  ILE77       0.2592
      4  O        -12.2010   10.4770   29.9560 O.2    77  ILE77      -0.2718
      5  CB       -14.5310   11.6860   31.0190 C.3    77  ILE77       0.0266
      6  CG1      -15.7410   12.6290   31.0340 C.3    77  ILE77       0.0019
      7  CG2      -14.4630   10.9180   32.3490 C.3    77  ILE77       0.0020
      8  CD1      -15.8220   13.5120   32.2540 C.3    77  ILE77       0.0001
      9  N        -10.8920   11.9360   31.1010 N.am   78  LEU78      -0.1966
     10  CA        -9.6400   11.2140   30.9200 C.3    78  LEU78       0.1728
     11  C         -9.5390    9.7120   30.6990 C.2    78  LEU78       0.2616
     12  O        -10.0450    8.8880   31.4620 O.2    78  LEU78      -0.2715
     13  CB        -8.6310   11.6310   31.9870 C.3    78  LEU78       0.0311
     14  CG        -7.8440   12.8690   31.5250 C.3    78  LEU78       0.0022
     15  CD1       -6.7470   13.2120   32.5380 C.3    78  LEU78       0.0001
     16  CD2       -7.2440   12.6050   30.1350 C.3    78  LEU78       0.0001
     17  N         -8.8370    9.4350   29.5970 N.am   79  ARG79      -0.1963
     18  CA        -8.4880    8.1320   29.0230 C.3    79  ARG79       0.1729
     19  C         -9.4040    7.6030   27.9360 C.2    79  ARG79       0.2616
     20  O         -9.2640    8.0070   26.7840 O.2    79  ARG79      -0.2715
     21  CB        -8.2450    7.0720   30.1000 C.3    79  ARG79       0.0348
     22  CG        -6.8090    6.5370   30.0280 C.3    79  ARG79       0.0492
     23  CD        -6.4500    5.6060   31.1870 C.3    79  ARG79       0.2205
     24  NE        -6.8940    4.2160   31.0220 N.pl3  79  ARG79      -0.0865
     25  CZ        -6.1740    3.2540   30.4500 C.cat  79  ARG79       0.5346
     26  NH1       -4.9620    3.5170   29.9720 N.pl3  79  ARG79       0.1354
     27  NH2       -6.6610    2.0190   30.3830 N.pl3  79  ARG79       0.1354
     28  N        -10.3330    6.7150   28.2680 N.am   80  ALA80      -0.1977
     29  CA       -11.2180    6.1580   27.2370 C.3    80  ALA80       0.1597
     30  C        -11.7710    7.2190   26.2770 C.2    80  ALA80       0.2287
     31  O        -12.0670    6.9250   25.1190 O.2    80  ALA80      -0.2864
     32  CB       -12.3670    5.3970   27.8890 C.3    80  ALA80       0.0319
     33  N         -9.5290   14.3830   34.8870 N.3   101  GLY101     -0.1210
     34  CA        -9.3640   13.0170   35.3590 C.3   101  GLY101      0.1956
     35  C        -10.0330   12.7450   36.6900 C.2   101  GLY101      0.2612
     36  O         -9.7840   13.4380   37.6740 O.2   101  GLY101     -0.2717
     37  N        -10.8880   11.7320   36.7290 N.am  102  ALA102     -0.1965
     38  CA       -11.5790   11.4060   37.9610 C.3   102  ALA102      0.1728
     39  C        -11.4170    9.9390   38.3330 C.2   102  ALA102      0.2616
     40  O        -10.6740    9.1970   37.6840 O.2   102  ALA102     -0.2715
     41  CB       -13.0410   11.7530   37.8360 C.3   102  ALA102      0.0334
     42  N        -12.1100    9.5320   39.3930 N.am  103  SER103     -0.1950
     43  CA       -12.0540    8.1580   39.8690 C.3   103  SER103      0.1924
     44  C        -13.0640    7.9370   40.9910 C.2   103  SER103      0.2314
     45  O        -13.4770    8.8820   41.6640 O.2   103  SER103     -0.2863
     46  CB       -10.6430    7.8290   40.3590 C.3   103  SER103      0.2116
     47  OG       -10.2400    8.7320   41.3680 O.3   103  SER103     -0.2180
     48  N         -9.2330   14.2090   40.2480 N.3   113  TYR113     -0.1241
     49  CA        -7.7660   14.1420   40.3040 C.3   113  TYR113      0.1605
     50  C         -7.1450   15.3570   39.6160 C.2   113  TYR113      0.2264
     51  O         -6.3820   16.1050   40.2220 O.2   113  TYR113     -0.2867
     52  CB        -7.2500   12.8620   39.6250 C.3   113  TYR113      0.0534
     53  CG        -7.3000   11.6050   40.4750 C.ar  113  TYR113     -0.0201
     54  CD1       -7.1260   10.3410   39.8980 C.ar  113  TYR113     -0.0009
     55  CD2       -7.5210   11.6730   41.8540 C.ar  113  TYR113     -0.0009
     56  CE1       -7.1780    9.1760   40.6740 C.ar  113  TYR113      0.0417
     57  CE2       -7.5740   10.5190   42.6390 C.ar  113  TYR113      0.0417
     58  CZ        -7.4060    9.2780   42.0430 C.ar  113  TYR113      0.1957
     59  OH        -7.5030    8.1440   42.8150 O.3   113  TYR113     -0.2866
     60  N        -13.3670   -2.5280   29.3830 N.3   200  ASP200     -0.1239
     61  CA       -12.6700   -1.2990   29.7450 C.3   200  ASP200      0.1674
     62  C        -12.2610   -0.6100   28.4530 C.2   200  ASP200      0.2266
     63  O        -11.3100   -1.0280   27.7980 O.2   200  ASP200     -0.2867
     64  CB       -11.4260   -1.6380   30.5640 C.3   200  ASP200      0.1410
     65  CG       -10.8850   -0.4520   31.3300 C.2   200  ASP200      0.3668
     66  OD1      -10.5570    0.5830   30.7110 O.co2 200  ASP200     -0.2456
     67  OD2      -10.7780   -0.5630   32.5680 O.co2 200  ASP200     -0.2456
     68  N        -10.8480    2.2850   27.9640 N.3   202  GLY202     -0.1210
     69  CA        -9.4940    2.7830   28.0920 C.3   202  GLY202      0.1956
     70  C         -8.4540    1.7000   27.8490 C.2   202  GLY202      0.2611
     71  O         -7.4840    1.9140   27.1140 O.2   202  GLY202     -0.2717
     72  N         -8.6450    0.5330   28.4610 N.am  203  ASP203     -0.1973
     73  CA        -7.7080   -0.5730   28.2910 C.3   203  ASP203      0.1709
     74  C         -7.7510   -1.2050   26.9010 C.2   203  ASP203      0.2293
     75  O         -6.7110   -1.5900   26.3640 O.2   203  ASP203     -0.2864
     76  CB        -7.9460   -1.6280   29.3700 C.3   203  ASP203      0.1436
     77  CG        -7.4080   -1.1960   30.7210 C.2   203  ASP203      0.3671
     78  OD1       -6.1700   -1.1780   30.8880 O.co2 203  ASP203     -0.2456
     79  OD2       -8.2200   -0.8590   31.6070 O.co2 203  ASP203     -0.2456
@<TRIPOS>BOND
     1    31    30    2
     2    30    29    1
     3    75    74    2
     4    20    19    2
     5    74    73    1
     6    71    70    2
     7    29    32    1
     8    29    28    1
     9    63    62    2
    10    70    69    1
    11    70    72   am
    12    19    28   am
    13    19    18    1
    14    68    69    1
    15    73    72    1
    16    73    76    1
    17    62    61    1
    18    18    17    1
    19    18    21    1
    20    76    77    1
    21    60    61    1
    22     1     2    1
    23    17    11   am
    24    61    64    1
    25     4     3    2
    26    26    25    1
    27    22    21    1
    28    22    23    1
    29    16    14    1
    30    27    25    1
    31    25    24    2
    32    64    65    1
    33     3     2    1
    34     3     9   am
    35    11    10    1
    36    11    12    2
    37    66    65   ar
    38    77    78   ar
    39    77    79   ar
    40     2     5    1
    41    10     9    1
    42    10    13    1
    43     5     6    1
    44     5     7    1
    45    24    23    1
    46     6     8    1
    47    65    67   ar
    48    14    13    1
    49    14    15    1
    50    33    34    1
    51    34    35    1
    52    35    37   am
    53    35    36    2
    54    37    38    1
    55    40    39    2
    56    41    38    1
    57    38    39    1
    58    39    42   am
    59    42    43    1
    60    50    51    2
    61    50    49    1
    62    52    49    1
    63    52    53    1
    64    43    46    1
    65    43    44    1
    66    54    53   ar
    67    54    56   ar
    68    48    49    1
    69    46    47    1
    70    53    55   ar
    71    56    58   ar
    72    44    45    2
    73    55    57   ar
    74    58    57   ar
    75    58    59    1
