@<TRIPOS>MOLECULE
tmp/3g6wC01.pdb
 114 110 0 0 0
SMALL
GASTEIGER

@<TRIPOS>ATOM
      1  N        -13.1680   13.1800   29.5240 N.3    77  ILE77      -0.1231
      2  CA       -13.2250   12.4900   30.8120 C.3    77  ILE77       0.1692
      3  C        -12.0540   11.5320   30.5880 C.2    77  ILE77       0.2591
      4  O        -12.2010   10.4770   29.9560 O.2    77  ILE77      -0.2718
      5  CB       -14.5310   11.6860   31.0190 C.3    77  ILE77       0.0266
      6  CG1      -15.7410   12.6290   31.0340 C.3    77  ILE77       0.0019
      7  CG2      -14.4630   10.9180   32.3490 C.3    77  ILE77       0.0020
      8  CD1      -15.8220   13.5120   32.2540 C.3    77  ILE77       0.0001
      9  N        -10.8920   11.9360   31.1010 N.am   78  LEU78      -0.1980
     10  CA        -9.6400   11.2140   30.9200 C.3    78  LEU78       0.1596
     11  C         -9.5390    9.7120   30.6990 C.2    78  LEU78       0.2287
     12  O        -10.0450    8.8880   31.4620 O.2    78  LEU78      -0.2864
     13  CB        -8.6310   11.6310   31.9870 C.3    78  LEU78       0.0297
     14  CG        -7.8440   12.8690   31.5250 C.3    78  LEU78       0.0022
     15  CD1       -6.7470   13.2120   32.5380 C.3    78  LEU78       0.0001
     16  CD2       -7.2440   12.6050   30.1350 C.3    78  LEU78       0.0001
     17  N        -10.3330    6.7150   28.2680 N.3    80  ALA80      -0.1245
     18  CA       -11.2180    6.1580   27.2370 C.3    80  ALA80       0.1562
     19  C        -11.7710    7.2190   26.2770 C.2    80  ALA80       0.2260
     20  O        -12.0670    6.9250   25.1190 O.2    80  ALA80      -0.2867
     21  CB       -12.3670    5.3970   27.8890 C.3    80  ALA80       0.0290
     22  N        -13.4440    6.6740   41.1760 N.3   104  ARG104     -0.1245
     23  CA       -14.4140    6.2420   42.1840 C.3   104  ARG104      0.1563
     24  C        -14.0350    6.5940   43.6290 C.2   104  ARG104      0.2260
     25  O        -13.2640    7.5250   43.8820 O.2   104  ARG104     -0.2867
     26  CB       -14.5970    4.7240   42.0960 C.3   104  ARG104      0.0307
     27  CG       -14.9240    4.1750   40.7120 C.3   104  ARG104      0.0489
     28  CD       -16.3340    4.5370   40.2770 C.3   104  ARG104      0.2205
     29  NE       -16.8090    3.6570   39.2130 N.pl3 104  ARG104     -0.0865
     30  CZ       -18.0380    3.6960   38.7090 C.cat 104  ARG104      0.5346
     31  NH1      -18.9100    4.5790   39.1770 N.pl3 104  ARG104      0.1354
     32  NH2      -18.3980    2.8490   37.7510 N.pl3 104  ARG104      0.1354
     33  N        -17.3350   10.8010   26.9270 N.3   131  ASP131     -0.1225
     34  CA       -17.0050    9.6600   27.7620 C.3   131  ASP131      0.1790
     35  C        -17.8220    8.4780   27.2510 C.2   131  ASP131      0.2440
     36  O        -19.0140    8.3720   27.5150 O.2   131  ASP131     -0.2733
     37  CB       -17.3370    9.9770   29.2140 C.3   131  ASP131      0.1423
     38  CG       -16.6670    9.0340   30.1790 C.2   131  ASP131      0.3668
     39  OD1      -15.8050    8.2320   29.7310 O.co2 131  ASP131     -0.2456
     40  OD2      -17.0000    9.1080   31.3850 O.co2 131  ASP131     -0.2456
     41  N        -17.1770    7.5650   26.5090 N.am  132  PRO132     -0.2718
     42  CA       -17.8160    6.3760   25.9290 C.3   132  PRO132      0.1535
     43  C        -18.7670    5.5330   26.7840 C.2   132  PRO132      0.2598
     44  O        -19.7680    5.0400   26.2710 O.2   132  PRO132     -0.2715
     45  CB       -16.6250    5.5620   25.4030 C.3   132  PRO132      0.0310
     46  CG       -15.4710    6.0260   26.2370 C.3   132  PRO132      0.0237
     47  CD       -15.7160    7.5050   26.3270 C.3   132  PRO132      0.0939
     48  N        -18.4660    5.3640   28.0720 N.am  133  MET133     -0.1964
     49  CA       -19.3050    4.5420   28.9530 C.3   133  MET133      0.1736
     50  C        -19.8910    5.2710   30.1640 C.2   133  MET133      0.2616
     51  O        -19.1580    5.7950   31.0130 O.2   133  MET133     -0.2715
     52  CB       -18.5060    3.3350   29.4550 C.3   133  MET133      0.0427
     53  CG       -17.9790    2.4150   28.3610 C.3   133  MET133      0.0599
     54  SD       -19.2610    1.4190   27.5840 S.3   133  MET133     -0.1393
     55  CE       -19.0810   -0.1260   28.4940 C.3   133  MET133      0.0692
     56  N        -21.2200    5.2980   30.2390 N.am  134  ILE134     -0.1963
     57  CA       -21.9130    5.9240   31.3630 C.3   134  ILE134      0.1727
     58  C        -22.6590    4.8320   32.1350 C.2   134  ILE134      0.2616
     59  O        -23.7720    4.4540   31.7800 O.2   134  ILE134     -0.2715
     60  CB       -22.9160    6.9890   30.8930 C.3   134  ILE134      0.0290
     61  CG1      -22.1860    8.1090   30.1330 C.3   134  ILE134      0.0022
     62  CG2      -23.6500    7.5530   32.1060 C.3   134  ILE134      0.0023
     63  CD1      -23.1060    9.1740   29.5250 C.3   134  ILE134      0.0001
     64  N        -22.0240    4.3240   33.1900 N.am  135  ALA135     -0.1963
     65  CA       -22.5900    3.2530   34.0100 C.3   135  ALA135      0.1728
     66  C        -23.4840    3.7510   35.1450 C.2   135  ALA135      0.2617
     67  O        -24.7060    3.7660   35.0190 O.2   135  ALA135     -0.2715
     68  CB       -21.4630    2.3900   34.5690 C.3   135  ALA135      0.0334
     69  N        -22.8720    4.1560   36.2520 N.am  136  THR136     -0.1937
     70  CA       -23.6240    4.6510   37.3930 C.3   136  THR136      0.2028
     71  C        -23.7690    6.1750   37.3400 C.2   136  THR136      0.2642
     72  O        -24.2470    6.7990   38.2900 O.2   136  THR136     -0.2714
     73  CB       -22.9460    4.2370   38.6960 C.3   136  THR136      0.1808
     74  OG1      -21.8240    5.0900   38.9490 O.3   136  THR136     -0.2208
     75  CG2      -22.4590    2.7910   38.5830 C.3   136  THR136      0.0379
     76  N        -23.3450    6.7530   36.2170 N.am  137  ALA137     -0.1963
     77  CA       -23.4210    8.1920   35.9390 C.3   137  ALA137      0.1728
     78  C        -22.8450    9.1320   36.9920 C.2   137  ALA137      0.2617
     79  O        -23.1640   10.3210   36.9950 O.2   137  ALA137     -0.2715
     80  CB       -24.8720    8.5860   35.6430 C.3   137  ALA137      0.0334
     81  N        -22.0040    8.6100   37.8800 N.am  138  SER138     -0.1936
     82  CA       -21.3980    9.4360   38.9210 C.3   138  SER138      0.2055
     83  C        -20.2900   10.3030   38.3390 C.2   138  SER138      0.2644
     84  O        -20.2850   11.5210   38.5410 O.2   138  SER138     -0.2714
     85  CB       -20.8300    8.5660   40.0430 C.3   138  SER138      0.2130
     86  OG       -21.8690    8.0150   40.8300 O.3   138  SER138     -0.2179
     87  N        -19.3430    9.6740   37.6370 N.am  139  THR139     -0.1936
     88  CA       -18.2620   10.4220   37.0210 C.3   139  THR139      0.2028
     89  C        -18.9220   11.5840   36.2910 C.2   139  THR139      0.2642
     90  O        -18.5950   12.7540   36.5240 O.2   139  THR139     -0.2714
     91  CB       -17.4890    9.5620   35.9990 C.3   139  THR139      0.1808
     92  OG1      -16.9270    8.4270   36.6630 O.3   139  THR139     -0.2208
     93  CG2      -16.3710   10.3790   35.3390 C.3   139  THR139      0.0379
     94  N        -19.8820   11.2550   35.4330 N.am  140  MET140     -0.1976
     95  CA       -20.5840   12.2660   34.6530 C.3   140  MET140      0.1605
     96  C        -21.1720   13.3950   35.5150 C.2   140  MET140      0.2287
     97  O        -20.8680   14.5750   35.3130 O.2   140  MET140     -0.2864
     98  CB       -21.6890   11.6060   33.8260 C.3   140  MET140      0.0413
     99  CG       -22.1940   12.4630   32.6830 C.3   140  MET140      0.0598
    100  SD       -20.8460   13.0320   31.6180 S.3   140  MET140     -0.1393
    101  CE       -20.3890   11.5170   30.8310 C.3   140  MET140      0.0692
    102  N        -13.3670   -2.5280   29.3830 N.3   200  ASP200     -0.1225
    103  CA       -12.6700   -1.2990   29.7450 C.3   200  ASP200      0.1805
    104  C        -12.2610   -0.6100   28.4530 C.2   200  ASP200      0.2597
    105  O        -11.3100   -1.0280   27.7980 O.2   200  ASP200     -0.2718
    106  CB       -11.4260   -1.6380   30.5640 C.3   200  ASP200      0.1424
    107  CG       -10.8850   -0.4520   31.3300 C.2   200  ASP200      0.3668
    108  OD1      -10.5570    0.5830   30.7110 O.co2 200  ASP200     -0.2456
    109  OD2      -10.7780   -0.5630   32.5680 O.co2 200  ASP200     -0.2456
    110  N        -12.9880    0.4370   28.0780 N.am  201  ALA201     -0.1979
    111  CA       -12.6870    1.1590   26.8490 C.3   201  ALA201      0.1597
    112  C        -11.2380    1.6450   26.8640 C.2   201  ALA201      0.2287
    113  O        -10.4920    1.4350   25.9010 O.2   201  ALA201     -0.2864
    114  CB       -13.6610    2.3410   26.6740 C.3   201  ALA201      0.0319
@<TRIPOS>BOND
     1    20    19    2
     2    45    42    1
     3    45    46    1
     4   113   112    2
     5    42    41    1
     6    42    43    1
     7    46    47    1
     8    44    43    2
     9    19    18    1
    10    47    41    1
    11    41    35   am
    12   114   111    1
    13    43    48   am
    14   111   112    1
    15   111   110    1
    16    33    34    1
    17    18    21    1
    18    18    17    1
    19    35    36    2
    20    35    34    1
    21    54    53    1
    22    54    55    1
    23    34    37    1
    24   105   104    2
    25    48    49    1
    26   110   104   am
    27    53    52    1
    28   104   103    1
    29    49    52    1
    30    49    50    1
    31    37    38    1
    32   102   103    1
    33     1     2    1
    34    63    61    1
    35    39    38   ar
    36   103   106    1
    37     4     3    2
    38    61    60    1
    39    16    14    1
    40    50    56   am
    41    50    51    2
    42    38    40   ar
    43    56    57    1
    44   106   107    1
    45     3     2    1
    46     3     9   am
    47    11    10    1
    48    11    12    2
    49   108   107   ar
    50     2     5    1
    51   101   100    1
    52    60    57    1
    53    60    62    1
    54    10     9    1
    55    10    13    1
    56     5     6    1
    57     5     7    1
    58     6     8    1
    59   107   109   ar
    60    57    58    1
    61    14    13    1
    62    14    15    1
    63   100    99    1
    64    59    58    2
    65    58    64   am
    66    99    98    1
    67    64    65    1
    68    98    95    1
    69    65    68    1
    70    65    66    1
    71    95    94    1
    72    95    96    1
    73    67    66    2
    74    66    69   am
    75    97    96    2
    76    93    91    1
    77    94    89   am
    78    80    77    1
    79    77    76    1
    80    77    78    1
    81    91    92    1
    82    91    88    1
    83    76    71   am
    84    69    70    1
    85    89    90    2
    86    89    88    1
    87    78    79    2
    88    78    81   am
    89    88    87    1
    90    71    70    1
    91    71    72    2
    92    70    73    1
    93    87    83   am
    94    32    30    1
    95    81    82    1
    96    83    84    2
    97    83    82    1
    98    75    73    1
    99    73    74    1
   100    30    31    1
   101    30    29    2
   102    82    85    1
   103    29    28    1
   104    85    86    1
   105    28    27    1
   106    27    26    1
   107    22    23    1
   108    26    23    1
   109    23    24    1
   110    24    25    2
