@<TRIPOS>MOLECULE
tmp/3g6xA00.pdb
 161 156 0 0 0
SMALL
GASTEIGER

@<TRIPOS>ATOM
      1  N         10.0570   18.6290   11.4080 N.3    10  ASP10      -0.1225
      2  CA         8.8430   19.1370   11.9740 C.3    10  ASP10       0.1805
      3  C          8.3330   17.9830   12.8260 C.2    10  ASP10       0.2598
      4  O          7.9250   16.9590   12.2560 O.2    10  ASP10      -0.2718
      5  CB         7.8240   19.5190   10.8540 C.3    10  ASP10       0.1424
      6  CG         6.5360   20.1090   11.4380 C.2    10  ASP10       0.3668
      7  OD1        5.7780   20.7520   10.7010 O.co2  10  ASP10      -0.2456
      8  OD2        6.2910   19.9140   12.6450 O.co2  10  ASP10      -0.2456
      9  N          8.4050   18.0910   14.1590 N.am   11  LEU11      -0.1966
     10  CA         8.0550   16.8780   14.9640 C.3    11  LEU11       0.1728
     11  C          6.5380   16.6330   15.0260 C.2    11  LEU11       0.2616
     12  O          5.7310   17.5830   14.8120 O.2    11  LEU11      -0.2715
     13  CB         8.6520   16.9440   16.3750 C.3    11  LEU11       0.0311
     14  CG        10.1850   17.2040   16.4110 C.3    11  LEU11       0.0022
     15  CD1       10.6800   16.9880   17.8800 C.3    11  LEU11       0.0001
     16  CD2       10.8720   16.1550   15.4970 C.3    11  LEU11       0.0001
     17  N          6.1720   15.4180   15.3840 N.am   12  ASP12      -0.1957
     18  CA         4.7590   15.0470   15.4760 C.3    12  ASP12       0.1840
     19  C          4.1610   15.5020   16.8330 C.2    12  ASP12       0.2622
     20  O          4.7960   15.3100   17.8900 O.2    12  ASP12      -0.2715
     21  CB         4.5760   13.5080   15.3860 C.3    12  ASP12       0.1450
     22  CG         5.2310   12.8820   14.0860 C.2    12  ASP12       0.3671
     23  OD1        5.0420   13.3770   12.9620 O.co2  12  ASP12      -0.2456
     24  OD2        5.9570   11.8870   14.2180 O.co2  12  ASP12      -0.2456
     25  N          2.9930   16.1300   16.7390 N.am   13  CYS13      -0.1954
     26  CA         2.1150   16.4810   17.8490 C.3    13  CYS13       0.1843
     27  C          2.9460   16.7980   19.0920 C.2    13  CYS13       0.2625
     28  O          2.8260   16.1440   20.1650 O.2    13  CYS13      -0.2714
     29  CB         1.0470   15.3600   18.0590 C.3    13  CYS13       0.0997
     30  SG         1.7160   13.6670   18.3310 S.3    13  CYS13      -0.0797
     31  N          3.8160   17.7990   18.9550 N.am   14  PHE14      -0.1960
     32  CA         4.9940   17.9190   19.8600 C.3    14  PHE14       0.1771
     33  C          4.6550   17.8680   21.3440 C.2    14  PHE14       0.2619
     34  O          5.2420   17.0500   22.0520 O.2    14  PHE14      -0.2715
     35  CB         5.8460   19.1740   19.5420 C.3    14  PHE14       0.0574
     36  CG         7.0300   19.3310   20.4130 C.ar   14  PHE14      -0.0200
     37  CD1        8.0100   18.3490   20.4630 C.ar   14  PHE14      -0.0042
     38  CD2        7.2060   20.5240   21.1530 C.ar   14  PHE14      -0.0042
     39  CE1        9.1440   18.4860   21.2680 C.ar   14  PHE14      -0.0003
     40  CE2        8.3640   20.7090   21.9510 C.ar   14  PHE14      -0.0003
     41  CZ         9.3240   19.6950   22.0110 C.ar   14  PHE14      -0.0000
     42  N          3.7110   18.6830   21.8340 N.am   15  TYR15      -0.1974
     43  CA         3.4700   18.6880   23.3290 C.3    15  TYR15       0.1639
     44  C          2.8730   17.3220   23.7520 C.2    15  TYR15       0.2290
     45  O          3.1790   16.7170   24.8350 O.2    15  TYR15      -0.2864
     46  CB         2.5170   19.8050   23.7580 C.3    15  TYR15       0.0560
     47  CG         2.9970   21.2580   23.6790 C.ar   15  TYR15      -0.0198
     48  CD1        4.2850   21.6010   23.1540 C.ar   15  TYR15      -0.0009
     49  CD2        2.1330   22.3020   24.0710 C.ar   15  TYR15      -0.0009
     50  CE1        4.6950   22.9440   23.0570 C.ar   15  TYR15       0.0417
     51  CE2        2.5330   23.6490   23.9880 C.ar   15  TYR15       0.0417
     52  CZ         3.8310   23.9460   23.4960 C.ar   15  TYR15       0.1957
     53  OH         4.2270   25.2720   23.3440 O.3    15  TYR15      -0.2866
     54  N         -4.7980   24.0700   27.3240 N.3    35  GLN35      -0.1245
     55  CA        -4.3290   25.3270   27.8490 C.3    35  GLN35       0.1566
     56  C         -5.5830   26.1320   27.9120 C.2    35  GLN35       0.2260
     57  O         -6.1810   26.4060   26.8630 O.2    35  GLN35      -0.2867
     58  CB        -3.3280   25.9890   26.8620 C.3    35  GLN35       0.0367
     59  CG        -1.9660   25.3310   26.8670 C.3    35  GLN35       0.0905
     60  CD        -1.0060   25.9480   25.8370 C.2    35  GLN35       0.2608
     61  OE1       -1.4260   26.5850   24.8450 O.2    35  GLN35      -0.2717
     62  NE2        0.2990   25.7860   26.0950 N.am   35  GLN35      -0.0878
     63  N         -8.6410   25.6120   25.5380 N.3    38  LEU38      -0.1245
     64  CA        -8.2320   25.0420   24.2330 C.3    38  LEU38       0.1561
     65  C         -7.4680   23.7610   24.3610 C.2    38  LEU38       0.2260
     66  O         -6.6030   23.6110   25.2390 O.2    38  LEU38      -0.2867
     67  CB        -7.3200   26.0000   23.4630 C.3    38  LEU38       0.0270
     68  CG        -7.8440   27.0000   22.4340 C.3    38  LEU38       0.0019
     69  CD1       -6.9310   26.9000   21.2030 C.3    38  LEU38       0.0001
     70  CD2       -9.2650   26.6800   22.0320 C.3    38  LEU38       0.0001
     71  N         -4.7080   22.4230   22.6290 N.3    40  VAL40      -0.1231
     72  CA        -3.7900   23.1060   21.7090 C.3    40  VAL40       0.1692
     73  C         -3.2460   22.1410   20.7130 C.2    40  VAL40       0.2592
     74  O         -3.0590   22.4890   19.5720 O.2    40  VAL40      -0.2718
     75  CB        -2.6100   23.8820   22.3790 C.3    40  VAL40       0.0266
     76  CG1       -3.1770   25.1180   23.0530 C.3    40  VAL40       0.0020
     77  CG2       -1.7540   22.9670   23.3300 C.3    40  VAL40       0.0020
     78  N         -2.9850   20.9240   21.1580 N.am   41  THR41      -0.1953
     79  CA        -2.6270   19.8620   20.2140 C.3    41  THR41       0.1897
     80  C         -3.1230   18.5520   20.7840 C.2    41  THR41       0.2313
     81  O         -3.5460   18.5180   21.9350 O.2    41  THR41      -0.2863
     82  CB        -1.0930   19.8010   19.9360 C.3    41  THR41       0.1794
     83  OG1       -0.8680   18.8810   18.8700 O.3    41  THR41      -0.2208
     84  CG2       -0.2600   19.3440   21.1730 C.3    41  THR41       0.0378
     85  N         -2.0380   11.3980   17.4880 N.3    44  TYR44      -0.1241
     86  CA        -2.6550   11.0090   16.1890 C.3    44  TYR44       0.1605
     87  C         -3.8810   10.0970   16.3870 C.2    44  TYR44       0.2264
     88  O         -4.7730   10.0430   15.5310 O.2    44  TYR44      -0.2867
     89  CB        -1.5930   10.5170   15.1450 C.3    44  TYR44       0.0534
     90  CG        -0.9060   11.7140   14.4410 C.ar   44  TYR44      -0.0201
     91  CD1       -1.3070   12.1500   13.1550 C.ar   44  TYR44      -0.0009
     92  CD2        0.0860   12.4380   15.0940 C.ar   44  TYR44      -0.0009
     93  CE1       -0.7190   13.2780   12.5300 C.ar   44  TYR44       0.0417
     94  CE2        0.6820   13.5730   14.4960 C.ar   44  TYR44       0.0417
     95  CZ         0.2810   13.9850   13.2250 C.ar   44  TYR44       0.1957
     96  OH         0.9050   15.0800   12.6810 O.3    44  TYR44      -0.2866
     97  N         -6.6500   12.5850   16.7160 N.3    47  ARG47      -0.1245
     98  CA        -6.9610   13.1140   15.3810 C.3    47  ARG47       0.1563
     99  C         -7.8070   12.1500   14.5160 C.2    47  ARG47       0.2260
    100  O         -8.6130   12.6190   13.6880 O.2    47  ARG47      -0.2867
    101  CB        -5.7070   13.5500   14.6190 C.3    47  ARG47       0.0307
    102  CG        -4.9910   14.7790   15.2570 C.3    47  ARG47       0.0489
    103  CD        -3.6250   15.0600   14.6260 C.3    47  ARG47       0.2205
    104  NE        -2.7700   15.9200   15.4730 N.pl3  47  ARG47      -0.0865
    105  CZ        -1.8160   16.7170   14.9980 C.cat  47  ARG47       0.5346
    106  NH1       -1.6160   16.7890   13.6710 N.pl3  47  ARG47       0.1354
    107  NH2       -1.0660   17.4610   15.8380 N.pl3  47  ARG47       0.1354
    108  N         -6.4260   20.4160   15.9650 N.3    53  LYS53      -0.1231
    109  CA        -5.4970   21.2990   16.6630 C.3    53  LYS53       0.1693
    110  C         -6.2020   22.5970   16.9860 C.2    53  LYS53       0.2591
    111  O         -6.9760   23.0810   16.1800 O.2    53  LYS53      -0.2718
    112  CB        -4.2210   21.5560   15.8410 C.3    53  LYS53       0.0285
    113  CG        -3.1720   20.4200   15.9690 C.3    53  LYS53       0.0035
    114  CD        -1.8940   20.6700   15.1700 C.3    53  LYS53       0.0206
    115  CE        -2.1070   20.4830   13.6640 C.3    53  LYS53       0.1093
    116  NZ        -0.8310   20.7550   12.9550 N.3    53  LYS53      -0.1314
    117  N         -5.9400   23.1610   18.1680 N.am   54  LEU54      -0.1980
    118  CA        -6.6010   24.4080   18.6080 C.3    54  LEU54       0.1596
    119  C         -8.1260   24.3340   18.4900 C.2    54  LEU54       0.2287
    120  O         -8.7560   25.2960   18.1220 O.2    54  LEU54      -0.2864
    121  CB        -6.0840   25.6630   17.8660 C.3    54  LEU54       0.0297
    122  CG        -4.6220   25.7160   17.4370 C.3    54  LEU54       0.0022
    123  CD1       -4.3530   26.8850   16.5490 C.3    54  LEU54       0.0001
    124  CD2       -3.7390   25.7780   18.6630 C.3    54  LEU54       0.0001
    125  N          8.7300   25.8210   18.6230 N.3   101  PHE101     -0.1227
    126  CA         9.3840   24.8800   19.4980 C.3   101  PHE101      0.1736
    127  C          9.6270   23.5790   18.8170 C.2   101  PHE101      0.2595
    128  O         10.3250   22.7170   19.3960 O.2   101  PHE101     -0.2718
    129  CB         8.5000   24.5930   20.7470 C.3   101  PHE101      0.0547
    130  CG         8.6850   25.5810   21.8700 C.ar  101  PHE101     -0.0202
    131  CD1        8.2350   25.2810   23.1520 C.ar  101  PHE101     -0.0042
    132  CD2        9.3040   26.8200   21.6630 C.ar  101  PHE101     -0.0042
    133  CE1        8.4160   26.2600   24.2170 C.ar  101  PHE101     -0.0003
    134  CE2        9.4470   27.7630   22.7040 C.ar  101  PHE101     -0.0003
    135  CZ         9.0060   27.4680   23.9900 C.ar  101  PHE101     -0.0000
    136  N          9.0260   23.3290   17.6370 N.am  102  ASP102     -0.1960
    137  CA         9.3680   22.0480   17.0940 C.3   102  ASP102      0.1840
    138  C          9.6550   21.9210   15.6230 C.2   102  ASP102      0.2621
    139  O          9.6680   20.7990   15.1160 O.2   102  ASP102     -0.2715
    140  CB         8.3010   21.0380   17.4640 C.3   102  ASP102      0.1450
    141  CG         7.1410   21.0080   16.4530 C.2   102  ASP102      0.3671
    142  OD1        6.6570   19.8660   16.3430 O.co2 102  ASP102     -0.2456
    143  OD2        6.7560   22.0760   15.8090 O.co2 102  ASP102     -0.2456
    144  N          9.9530   23.0320   14.9760 N.am  103  GLU103     -0.1977
    145  CA        10.4650   23.0130   13.6090 C.3   103  GLU103      0.1602
    146  C         11.9100   23.5330   13.5790 C.2   103  GLU103      0.2287
    147  O         12.2660   24.4800   14.3190 O.2   103  GLU103     -0.2864
    148  CB         9.5780   23.8860   12.6950 C.3   103  GLU103      0.0415
    149  CG         8.1760   23.3110   12.5630 C.3   103  GLU103      0.1163
    150  CD         7.3160   24.2190   11.6720 C.2   103  GLU103      0.3649
    151  OE1        7.8630   24.9060   10.7540 O.co2 103  GLU103     -0.2457
    152  OE2        6.1010   24.2390   11.8820 O.co2 103  GLU103     -0.2457
    153  N          2.3990   12.4430    6.7530 N.3   190  LYS190     -0.1245
    154  CA         2.4790   12.5820    8.2140 C.3   190  LYS190      0.1561
    155  C          1.6210   11.4250    8.8070 C.2   190  LYS190      0.2260
    156  O          0.6520   11.0040    8.1870 O.2   190  LYS190     -0.2867
    157  CB         1.7840   13.8710    8.6540 C.3   190  LYS190      0.0271
    158  CG         2.4680   15.1410    8.3610 C.3   190  LYS190      0.0035
    159  CD         1.4950   16.3470    8.5980 C.3   190  LYS190      0.0206
    160  CE         1.4120   16.7620   10.0750 C.3   190  LYS190      0.1093
    161  NZ         0.6080   18.0140   10.1770 N.3   190  LYS190     -0.1314
@<TRIPOS>BOND
     1   153   154    1
     2   156   155    2
     3   154   157    1
     4   154   155    1
     5   158   159    1
     6   158   157    1
     7   159   160    1
     8   160   161    1
     9     7     6   ar
    10   151   150   ar
    11     5     6    1
    12     5     2    1
    13     1     2    1
    14     6     8   ar
    15   150   152   ar
    16   150   149    1
    17     2     3    1
    18     4     3    2
    19    93    91   ar
    20    93    95   ar
    21   149   148    1
    22    96    95    1
    23   148   145    1
    24     3     9   am
    25   116   115    1
    26    23    22   ar
    27    91    90   ar
    28    95    94   ar
    29   146   145    1
    30   146   147    2
    31   145   144    1
    32   115   114    1
    33   106   105    1
    34   100    99    2
    35    22    24   ar
    36    22    21    1
    37     9    10    1
    38    90    92   ar
    39    90    89    1
    40    94    92   ar
    41    99    98    1
    42   101   102    1
    43   101    98    1
    44   103   102    1
    45   103   104    1
    46    12    11    2
    47    10    11    1
    48    10    13    1
    49   144   138   am
    50   105   104    2
    51   105   107    1
    52    11    17   am
    53   139   138    2
    54    89    86    1
    55   114   113    1
    56    98    97    1
    57    17    18    1
    58    21    18    1
    59    18    19    1
    60    16    14    1
    61    88    87    2
    62   138   137    1
    63   143   141   ar
    64   112   113    1
    65   112   109    1
    66   108   109    1
    67   111   110    2
    68    86    87    1
    69    86    85    1
    70   142   141   ar
    71    13    14    1
    72    14    15    1
    73   141   140    1
    74   123   122    1
    75   109   110    1
    76    25    19   am
    77    25    26    1
    78    19    20    2
    79   110   117   am
    80   137   140    1
    81   137   136    1
    82   122   121    1
    83   122   124    1
    84   136   127   am
    85    26    29    1
    86    26    27    1
    87   121   118    1
    88    29    30    1
    89   120   119    2
    90   117   118    1
    91   119   118    1
    92   125   126    1
    93   127   128    2
    94   127   126    1
    95    83    82    1
    96    31    27   am
    97    31    32    1
    98    27    28    2
    99   126   129    1
   100    35    32    1
   101    35    36    1
   102    74    73    2
   103    32    33    1
   104    82    79    1
   105    82    84    1
   106    79    80    1
   107    79    78    1
   108    36    37   ar
   109    36    38   ar
   110    37    39   ar
   111    73    78   am
   112    73    72    1
   113   129   130    1
   114    80    81    2
   115    38    40   ar
   116    69    68    1
   117    39    41   ar
   118    33    42   am
   119    33    34    2
   120   132   130   ar
   121   132   134   ar
   122    72    75    1
   123    72    71    1
   124    42    43    1
   125   130   131   ar
   126    40    41   ar
   127    70    68    1
   128    75    76    1
   129    75    77    1
   130    68    67    1
   131   134   135   ar
   132    50    48   ar
   133    50    52   ar
   134   131   133   ar
   135    48    47   ar
   136    43    44    1
   137    43    46    1
   138    53    52    1
   139    67    64    1
   140    52    51   ar
   141    47    46    1
   142    47    49   ar
   143    44    45    2
   144    51    49   ar
   145   135   133   ar
   146    64    65    1
   147    64    63    1
   148    65    66    2
   149    61    60    2
   150    60    62   am
   151    60    59    1
   152    58    59    1
   153    58    55    1
   154    57    56    2
   155    54    55    1
   156    55    56    1
