@<TRIPOS>MOLECULE
tmp/3g6zA00.pdb
 221 211 0 0 0
SMALL
GASTEIGER

@<TRIPOS>ATOM
      1  N          1.8600   -8.0550  -14.7720 N.3    18  THR18      -0.1203
      2  CA         1.3620   -9.1890  -13.9790 C.3    18  THR18       0.1994
      3  C         -0.1420   -9.3440  -14.0220 C.2    18  THR18       0.2617
      4  O         -0.6510  -10.4460  -13.7880 O.2    18  THR18      -0.2717
      5  CB         1.8210   -9.1140  -12.4870 C.3    18  THR18       0.1784
      6  OG1        1.3120   -7.9220  -11.9060 O.3    18  THR18      -0.2211
      7  CG2        3.3250   -9.0910  -12.3750 C.3    18  THR18       0.0376
      8  N         -0.8560   -8.2520  -14.3270 N.am   19  GLN19      -0.1979
      9  CA        -2.3210   -8.2300  -14.3920 C.3    19  GLN19       0.1601
     10  C         -2.8450   -7.3920  -15.5640 C.2    19  GLN19       0.2287
     11  O         -2.5870   -6.1990  -15.6570 O.2    19  GLN19      -0.2864
     12  CB        -2.9520   -7.6970  -13.0820 C.3    19  GLN19       0.0394
     13  CG        -2.5330   -8.3930  -11.8010 C.3    19  GLN19       0.0908
     14  CD        -2.9640   -7.6230  -10.5430 C.2    19  GLN19       0.2608
     15  OE1       -4.0670   -7.1070  -10.4720 O.2    19  GLN19      -0.2717
     16  NE2       -2.0830   -7.5580   -9.5440 N.am   19  GLN19      -0.0878
     17  N        -10.0810   -9.5310  -15.3590 N.3    36  VAL36      -0.1245
     18  CA        -9.0810  -10.3220  -16.0590 C.3    36  VAL36       0.1561
     19  C         -9.8030  -11.3910  -16.8740 C.2    36  VAL36       0.2260
     20  O        -10.7080  -12.0710  -16.3570 O.2    36  VAL36      -0.2867
     21  CB        -8.0770  -10.9840  -15.0800 C.3    36  VAL36       0.0252
     22  CG1       -7.2530  -12.0540  -15.7930 C.3    36  VAL36       0.0019
     23  CG2       -7.1230   -9.9100  -14.4390 C.3    36  VAL36       0.0019
     24  N         -9.5240  -14.8940  -18.5380 N.3    38  ASP38      -0.1239
     25  CA        -8.6840  -16.0160  -18.0490 C.3    38  ASP38       0.1674
     26  C         -9.0410  -17.3510  -18.7530 C.2    38  ASP38       0.2266
     27  O        -10.1430  -17.8840  -18.5710 O.2    38  ASP38      -0.2867
     28  CB        -8.8950  -16.1170  -16.5170 C.3    38  ASP38       0.1410
     29  CG        -8.1270  -17.2590  -15.8520 C.2    38  ASP38       0.3668
     30  OD1       -6.9060  -17.2690  -15.8810 O.co2  38  ASP38      -0.2456
     31  OD2       -8.7510  -18.1370  -15.2310 O.co2  38  ASP38      -0.2456
     32  N         -7.5750  -20.1850  -18.2180 N.3    40  GLY40      -0.1210
     33  CA        -7.4960  -21.2910  -17.2490 C.3    40  GLY40       0.1956
     34  C         -8.6700  -21.4370  -16.2690 C.2    40  GLY40       0.2612
     35  O         -8.5410  -22.1150  -15.2400 O.2    40  GLY40      -0.2717
     36  N         -9.8030  -20.7910  -16.5570 N.am   41  SER41      -0.1952
     37  CA       -11.0310  -20.9860  -15.7770 C.3    41  SER41       0.1924
     38  C        -12.2370  -20.6220  -16.6340 C.2    41  SER41       0.2314
     39  O        -12.0610  -20.0270  -17.6970 O.2    41  SER41      -0.2863
     40  CB       -11.0050  -20.1910  -14.4590 C.3    41  SER41       0.2116
     41  OG       -11.1920  -18.7950  -14.6740 O.3    41  SER41      -0.2180
     42  N        -16.9100  -14.2500  -12.1700 N.3    45  TRP45      -0.1227
     43  CA       -17.0040  -13.8830  -10.7670 C.3    45  TRP45       0.1737
     44  C        -16.9450  -12.3730  -10.6090 C.2    45  TRP45       0.2595
     45  O        -16.1170  -11.6990  -11.2480 O.2    45  TRP45      -0.2718
     46  CB       -15.8320  -14.4600   -9.9860 C.3    45  TRP45       0.0564
     47  CG       -15.6670  -15.9570   -9.9840 C.ar   45  TRP45       0.0003
     48  CD1      -14.8780  -16.6900  -10.8220 C.ar   45  TRP45       0.0946
     49  CD2      -16.2500  -16.8970   -9.0650 C.ar   45  TRP45       0.0152
     50  NE1      -14.9450  -18.0250  -10.4960 N.ar   45  TRP45      -0.2442
     51  CE2      -15.7840  -18.1800   -9.4270 C.ar   45  TRP45       0.0810
     52  CE3      -17.1250  -16.7790   -7.9780 C.ar   45  TRP45       0.0012
     53  CZ2      -16.1680  -19.3440   -8.7450 C.ar   45  TRP45       0.0191
     54  CZ3      -17.5040  -17.9410   -7.2930 C.ar   45  TRP45       0.0001
     55  CH2      -17.0220  -19.2060   -7.6850 C.ar   45  TRP45       0.0015
     56  N        -17.8130  -11.8310   -9.7650 N.am   46  VAL46      -0.1966
     57  CA       -17.6460  -10.4640   -9.2690 C.3    46  VAL46       0.1712
     58  C        -18.0420  -10.4000   -7.7860 C.2    46  VAL46       0.2458
     59  O        -18.8460  -11.2190   -7.3290 O.2    46  VAL46      -0.2730
     60  CB       -18.4330   -9.3950  -10.0780 C.3    46  VAL46       0.0289
     61  CG1      -17.9310   -9.3000  -11.5170 C.3    46  VAL46       0.0023
     62  CG2      -19.9330   -9.6360  -10.0190 C.3    46  VAL46       0.0023
     63  N        -17.5020   -9.4170   -7.0410 N.am   47  PRO47      -0.2727
     64  CA       -17.8390   -9.3320   -5.6280 C.3    47  PRO47       0.1402
     65  C        -19.2480   -8.7930   -5.4710 C.2    47  PRO47       0.2269
     66  O        -19.6640   -7.9040   -6.2180 O.2    47  PRO47      -0.2865
     67  CB       -16.8080   -8.3430   -5.0710 C.3    47  PRO47       0.0296
     68  CG       -15.7510   -8.1710   -6.2170 C.3    47  PRO47       0.0237
     69  CD       -16.5750   -8.3400   -7.4380 C.3    47  PRO47       0.0939
     70  N        -12.8670   -2.9500   -3.4490 N.3    61  HIS61      -0.1241
     71  CA       -13.2040   -3.2280   -4.8430 C.3    61  HIS61       0.1621
     72  C        -14.6540   -2.8860   -5.0990 C.2    61  HIS61       0.2264
     73  O        -15.4520   -2.8340   -4.1620 O.2    61  HIS61      -0.2867
     74  CB       -12.9740   -4.7080   -5.1850 C.3    61  HIS61       0.0745
     75  CG       -11.5310   -5.0790   -5.3140 C.ar   61  HIS61       0.0817
     76  ND1      -10.8670   -5.8180   -4.3610 N.ar   61  HIS61      -0.2268
     77  CD2      -10.6180   -4.7950   -6.2710 C.ar   61  HIS61       0.1154
     78  CE1       -9.6030   -5.9620   -4.7170 C.ar   61  HIS61       0.1986
     79  NE2       -9.4280   -5.3530   -5.8740 N.ar   61  HIS61      -0.2212
     80  N        -15.2800  -22.2690   -4.6180 N.3    81  LEU81      -0.1245
     81  CA       -13.9920  -22.4770   -5.2540 C.3    81  LEU81       0.1561
     82  C        -12.9200  -22.6470   -4.1820 C.2    81  LEU81       0.2260
     83  O        -12.7010  -21.7480   -3.3700 O.2    81  LEU81      -0.2867
     84  CB       -13.6470  -21.2980   -6.1850 C.3    81  LEU81       0.0270
     85  CG       -12.2720  -21.2130   -6.8750 C.3    81  LEU81       0.0019
     86  CD1      -11.9330  -22.4630   -7.6630 C.3    81  LEU81       0.0001
     87  CD2      -12.2020  -20.0050   -7.7880 C.3    81  LEU81       0.0001
     88  N         -9.3410  -22.3390   -3.0550 N.3    83  TYR83      -0.1241
     89  CA        -8.1260  -21.6210   -3.4210 C.3    83  TYR83       0.1605
     90  C         -7.0740  -21.9430   -2.3590 C.2    83  TYR83       0.2264
     91  O         -7.4190  -22.1450   -1.1930 O.2    83  TYR83      -0.2867
     92  CB        -8.3900  -20.1110   -3.5560 C.3    83  TYR83       0.0534
     93  CG        -7.2000  -19.3580   -4.0920 C.ar   83  TYR83      -0.0201
     94  CD1       -6.3030  -18.7460   -3.2240 C.ar   83  TYR83      -0.0009
     95  CD2       -6.9480  -19.2800   -5.4700 C.ar   83  TYR83      -0.0009
     96  CE1       -5.1880  -18.0740   -3.6970 C.ar   83  TYR83       0.0417
     97  CE2       -5.8330  -18.6010   -5.9560 C.ar   83  TYR83       0.0417
     98  CZ        -4.9610  -18.0020   -5.0550 C.ar   83  TYR83       0.1957
     99  OH        -3.8560  -17.3250   -5.4900 O.3    83  TYR83      -0.2866
    100  N        -13.1250  -19.4330   -1.5120 N.3    88  VAL88      -0.1245
    101  CA       -13.9860  -18.3540   -1.9660 C.3    88  VAL88       0.1561
    102  C        -15.3680  -18.9430   -2.2420 C.2    88  VAL88       0.2260
    103  O        -15.4920  -20.0240   -2.8260 O.2    88  VAL88      -0.2867
    104  CB       -13.3580  -17.5300   -3.1560 C.3    88  VAL88       0.0252
    105  CG1      -12.4820  -18.3860   -4.0410 C.3    88  VAL88       0.0019
    106  CG2      -14.4180  -16.7550   -3.9650 C.3    88  VAL88       0.0019
    107  N        -19.5450  -13.1360   -5.3640 N.3   111  VAL111     -0.1245
    108  CA       -18.6860  -13.5510   -4.2460 C.3   111  VAL111      0.1561
    109  C        -19.0750  -12.8720   -2.9240 C.2   111  VAL111      0.2260
    110  O        -19.2090  -11.6530   -2.8670 O.2   111  VAL111     -0.2867
    111  CB       -17.1890  -13.2550   -4.5590 C.3   111  VAL111      0.0252
    112  CG1      -16.3160  -13.3380   -3.3100 C.3   111  VAL111      0.0019
    113  CG2      -16.6700  -14.2050   -5.6320 C.3   111  VAL111      0.0019
    114  N        -14.1000  -14.3740    0.8610 N.3   114  MET114     -0.1245
    115  CA       -12.8070  -14.3000    0.1620 C.3   114  MET114      0.1570
    116  C        -11.6280  -14.1280    1.1120 C.2   114  MET114      0.2261
    117  O        -11.6520  -13.2290    1.9380 O.2   114  MET114     -0.2867
    118  CB       -12.8490  -13.0980   -0.7920 C.3   114  MET114      0.0387
    119  CG       -11.9400  -13.1650   -2.0050 C.3   114  MET114      0.0595
    120  SD       -12.6680  -12.1640   -3.3210 S.3   114  MET114     -0.1393
    121  CE       -11.9570  -10.5570   -3.0340 C.3   114  MET114      0.0692
    122  N         -4.4100  -13.7410   -1.7530 N.3   118  PRO118     -0.2102
    123  CA        -3.8340  -12.6270   -2.5180 C.3   118  PRO118      0.1504
    124  C         -4.8490  -11.6300   -3.0760 C.2   118  PRO118      0.2575
    125  O         -4.4730  -10.7370   -3.8220 O.2   118  PRO118     -0.2718
    126  CB        -3.1890  -13.3500   -3.7020 C.3   118  PRO118      0.0282
    127  CG        -4.1550  -14.4300   -3.9870 C.3   118  PRO118      0.0208
    128  CD        -4.6740  -14.8990   -2.6300 C.3   118  PRO118      0.0893
    129  N         -6.1170  -11.7810   -2.7290 N.am  119  PHE119     -0.1977
    130  CA        -7.1840  -11.0550   -3.4180 C.3   119  PHE119      0.1639
    131  C         -7.2440   -9.5560   -3.1490 C.2   119  PHE119      0.2290
    132  O         -7.7080   -8.7980   -4.0060 O.2   119  PHE119     -0.2864
    133  CB        -8.5320  -11.7240   -3.1590 C.3   119  PHE119      0.0560
    134  CG        -8.5860  -13.1420   -3.6490 C.ar  119  PHE119     -0.0200
    135  CD1       -8.3590  -14.1990   -2.7780 C.ar  119  PHE119     -0.0042
    136  CD2       -8.8170  -13.4170   -4.9960 C.ar  119  PHE119     -0.0042
    137  CE1       -8.3870  -15.5070   -3.2340 C.ar  119  PHE119     -0.0003
    138  CE2       -8.8420  -14.7300   -5.4610 C.ar  119  PHE119     -0.0003
    139  CZ        -8.6220  -15.7750   -4.5730 C.ar  119  PHE119     -0.0000
    140  N         -4.7590   -7.6010   -3.1690 N.3   121  LEU121     -0.1231
    141  CA        -3.7560   -6.9710   -4.0360 C.3   121  LEU121      0.1693
    142  C         -4.1530   -6.9840   -5.5190 C.2   121  LEU121      0.2591
    143  O         -3.3580   -6.6210   -6.3900 O.2   121  LEU121     -0.2718
    144  CB        -2.3720   -7.6250   -3.8580 C.3   121  LEU121      0.0284
    145  CG        -1.9670   -8.0110   -2.4240 C.3   121  LEU121      0.0019
    146  CD1       -0.7390   -8.9120   -2.4150 C.3   121  LEU121      0.0001
    147  CD2       -1.7500   -6.7800   -1.5560 C.3   121  LEU121      0.0001
    148  N         -5.3650   -7.4240   -5.8160 N.am  122  ALA122     -0.1980
    149  CA        -5.8500   -7.3560   -7.1830 C.3   122  ALA122      0.1597
    150  C         -6.1600   -5.8950   -7.5590 C.2   122  ALA122      0.2287
    151  O         -6.8470   -5.2110   -6.8080 O.2   122  ALA122     -0.2864
    152  CB        -7.0670   -8.1980   -7.3140 C.3   122  ALA122      0.0319
    153  N         -7.7450   -5.4280  -10.4270 N.3   124  PHE124     -0.1227
    154  CA        -9.0380   -5.7030  -11.0530 C.3   124  PHE124      0.1736
    155  C        -10.0960   -6.1190  -10.0030 C.2   124  PHE124      0.2595
    156  O         -9.7550   -6.3720   -8.8330 O.2   124  PHE124     -0.2718
    157  CB        -8.8730   -6.7880  -12.1170 C.3   124  PHE124      0.0547
    158  CG        -8.2360   -8.0340  -11.6010 C.ar  124  PHE124     -0.0202
    159  CD1       -6.8440   -8.1610  -11.5740 C.ar  124  PHE124     -0.0042
    160  CD2       -9.0110   -9.0700  -11.1080 C.ar  124  PHE124     -0.0042
    161  CE1       -6.2360   -9.3200  -11.0650 C.ar  124  PHE124     -0.0003
    162  CE2       -8.4090  -10.2220  -10.6120 C.ar  124  PHE124     -0.0003
    163  CZ        -7.0160  -10.3430  -10.6000 C.ar  124  PHE124     -0.0000
    164  N        -11.3610   -6.1930  -10.4370 N.am  125  ASP125     -0.1960
    165  CA       -12.5040   -6.4740   -9.5600 C.3   125  ASP125      0.1840
    166  C        -13.0570   -7.8740   -9.6690 C.2   125  ASP125      0.2623
    167  O        -13.7290   -8.3440   -8.7480 O.2   125  ASP125     -0.2715
    168  CB       -13.6380   -5.4930   -9.8410 C.3   125  ASP125      0.1450
    169  CG       -13.2520   -4.0740   -9.5290 C.2   125  ASP125      0.3671
    170  OD1      -12.9360   -3.8060   -8.3420 O.co2 125  ASP125     -0.2456
    171  OD2      -13.2500   -3.2360  -10.4630 O.co2 125  ASP125     -0.2456
    172  N        -12.8130   -8.5300  -10.8030 N.am  126  GLY126     -0.1940
    173  CA       -13.4070   -9.8360  -11.0680 C.3   126  GLY126      0.2014
    174  C        -12.7280  -10.5850  -12.1910 C.2   126  GLY126      0.2638
    175  O        -11.6570  -10.1900  -12.6520 O.2   126  GLY126     -0.2714
    176  N        -13.3680  -11.6600  -12.6440 N.am  127  VAL127     -0.1977
    177  CA       -12.7740  -12.5950  -13.5900 C.3   127  VAL127      0.1596
    178  C        -13.8400  -13.1370  -14.5490 C.2   127  VAL127      0.2287
    179  O        -14.9690  -13.4510  -14.1400 O.2   127  VAL127     -0.2864
    180  CB       -12.0760  -13.7350  -12.8330 C.3   127  VAL127      0.0276
    181  CG1      -11.3840  -14.7110  -13.7950 C.3   127  VAL127      0.0022
    182  CG2      -11.0500  -13.1460  -11.8480 C.3   127  VAL127      0.0022
    183  N         -0.1840  -25.6160  -20.2470 N.3   220  LEU220     -0.1245
    184  CA        -1.4570  -24.9080  -20.1680 C.3   220  LEU220      0.1561
    185  C         -1.2490  -23.4700  -20.6460 C.2   220  LEU220      0.2260
    186  O         -0.2980  -22.8060  -20.2150 O.2   220  LEU220     -0.2867
    187  CB        -1.9800  -24.9300  -18.7330 C.3   220  LEU220      0.0270
    188  CG        -3.3520  -24.3240  -18.4280 C.3   220  LEU220      0.0019
    189  CD1       -4.4770  -25.0860  -19.0580 C.3   220  LEU220      0.0001
    190  CD2       -3.5680  -24.2250  -16.9090 C.3   220  LEU220      0.0001
    191  N         -2.5310  -20.0980  -20.3130 N.3   222  ASP222     -0.1239
    192  CA        -3.3820  -19.4780  -19.2820 C.3   222  ASP222      0.1674
    193  C         -3.2060  -17.9590  -19.2910 C.2   222  ASP222      0.2266
    194  O         -2.2050  -17.4510  -18.7990 O.2   222  ASP222     -0.2867
    195  CB        -3.0430  -20.0500  -17.8940 C.3   222  ASP222      0.1410
    196  CG        -4.0420  -19.6110  -16.7980 C.2   222  ASP222      0.3668
    197  OD1       -4.9560  -18.7950  -17.0730 O.co2 222  ASP222     -0.2456
    198  OD2       -3.9170  -20.1030  -15.6510 O.co2 222  ASP222     -0.2456
    199  N         -4.6140  -15.8760  -17.6700 N.3   224  GLY224     -0.1210
    200  CA        -4.8500  -15.3400  -16.3400 C.3   224  GLY224      0.1956
    201  C         -3.6620  -15.4530  -15.4180 C.2   224  GLY224      0.2612
    202  O         -3.6800  -14.8790  -14.3360 O.2   224  GLY224     -0.2717
    203  N         -2.6590  -16.2420  -15.8190 N.am  225  ALA225     -0.1965
    204  CA        -1.4020  -16.4260  -15.0790 C.3   225  ALA225      0.1728
    205  C         -0.3860  -15.3600  -15.4560 C.2   225  ALA225      0.2616
    206  O         -0.1770  -15.0890  -16.6330 O.2   225  ALA225     -0.2715
    207  CB        -0.8010  -17.8170  -15.3570 C.3   225  ALA225      0.0334
    208  N          0.2680  -14.7970  -14.4420 N.am  226  SER226     -0.1950
    209  CA         1.2420  -13.7300  -14.6110 C.3   226  SER226      0.1924
    210  C          2.5480  -14.1910  -15.2750 C.2   226  SER226      0.2314
    211  O          3.1890  -13.4230  -15.9990 O.2   226  SER226     -0.2863
    212  CB         1.5410  -13.0990  -13.2400 C.3   226  SER226      0.2116
    213  OG         0.3740  -12.5120  -12.6790 O.3   226  SER226     -0.2180
    214  N          5.5020  -23.5420   -9.5620 N.3   299  MET299     -0.1245
    215  CA         4.1390  -23.8070   -9.1490 C.3   299  MET299      0.1570
    216  C          3.7930  -25.2420   -9.4800 C.2   299  MET299      0.2261
    217  O          4.1470  -25.7380  -10.5470 O.2   299  MET299     -0.2867
    218  CB         3.1560  -22.8600   -9.8370 C.3   299  MET299      0.0387
    219  CG         1.7270  -22.9730   -9.3050 C.3   299  MET299      0.0595
    220  SD         0.8560  -21.4000   -9.3140 S.3   299  MET299     -0.1393
    221  CE         1.9480  -20.3840   -8.2950 C.3   299  MET299      0.0692
@<TRIPOS>BOND
     1   185   186    2
     2   185   184    1
     3   191   192    1
     4   183   184    1
     5   184   187    1
     6   193   192    1
     7   193   194    2
     8   192   195    1
     9   189   188    1
    10    26    27    2
    11    26    25    1
    12   187   188    1
    13    24    25    1
    14   188   190    1
    15    32    33    1
    16    25    28    1
    17   195   196    1
    18    39    38    2
    19   199   200    1
    20    33    34    1
    21   197   196   ar
    22    19    20    2
    23    19    18    1
    24   196   198   ar
    25    38    37    1
    26   206   205    2
    27    36    34   am
    28    36    37    1
    29    28    29    1
    30   200   201    1
    31    34    35    2
    32    18    17    1
    33    18    21    1
    34   211   210    2
    35    30    29   ar
    36    29    31   ar
    37   203   201   am
    38   203   204    1
    39    22    21    1
    40    37    40    1
    41    11    10    2
    42    10     9    1
    43   205   204    1
    44   205   208   am
    45   201   202    2
    46   207   204    1
    47   210   209    1
    48    21    23    1
    49     1     2    1
    50    41    40    1
    51   209   208    1
    52   209   212    1
    53   178   179    2
    54   178   177    1
    55     9     8    1
    56     9    12    1
    57     8     3   am
    58     3     2    1
    59     3     4    2
    60     2     5    1
    61   181   180    1
    62   177   180    1
    63   177   176    1
    64   212   213    1
    65    12    13    1
    66   180   182    1
    67   175   174    2
    68   176   174   am
    69     5     7    1
    70     5     6    1
    71   174   173    1
    72    42    43    1
    73   157   158    1
    74   157   154    1
    75    13    14    1
    76   158   159   ar
    77   158   160   ar
    78   159   161   ar
    79    61    60    1
    80    45    44    2
    81   160   162   ar
    82   173   172    1
    83   161   163   ar
    84   154   153    1
    85   154   155    1
    86    48    50   ar
    87    48    47   ar
    88   172   166   am
    89    43    44    1
    90    43    46    1
    91   162   163   ar
    92    44    56   am
    93   217   216    2
    94    14    15    2
    95    14    16   am
    96    50    51   ar
    97   171   169   ar
    98   164   155   am
    99   164   165    1
   100    60    62    1
   101    60    57    1
   102   155   156    2
   103    46    47    1
   104    47    49   ar
   105   168   165    1
   106   168   169    1
   107   218   219    1
   108   218   215    1
   109    56    57    1
   110   166   165    1
   111   166   167    2
   112   214   215    1
   113   169   170   ar
   114   216   215    1
   115    51    49   ar
   116    51    53   ar
   117   220   219    1
   118   220   221    1
   119    57    58    1
   120    49    52   ar
   121    53    55   ar
   122    52    54   ar
   123    87    85    1
   124    58    59    2
   125    58    63   am
   126    55    54   ar
   127    86    85    1
   128   150   149    1
   129   150   151    2
   130    69    63    1
   131    69    68    1
   132   152   149    1
   133   149   148    1
   134    63    64    1
   135    85    84    1
   136   143   142    2
   137    77    79   ar
   138    77    75   ar
   139    66    65    2
   140    68    67    1
   141    84    81    1
   142    97    95   ar
   143    97    98   ar
   144    79    78   ar
   145   148   142   am
   146   113   111    1
   147    64    65    1
   148    64    67    1
   149   142   141    1
   150    99    98    1
   151    95    93   ar
   152   138   136   ar
   153   138   139   ar
   154   107   108    1
   155    75    74    1
   156    75    76   ar
   157    81    80    1
   158    81    82    1
   159    74    71    1
   160    72    71    1
   161    72    73    2
   162    98    96   ar
   163   136   134   ar
   164    71    70    1
   165    78    76   ar
   166   139   137   ar
   167   111   108    1
   168   111   112    1
   169   108   109    1
   170    82    83    2
   171    93    92    1
   172    93    94   ar
   173   105   104    1
   174   141   144    1
   175   141   140    1
   176   132   131    2
   177   127   126    1
   178   127   128    1
   179   106   104    1
   180   144   145    1
   181   125   124    2
   182   126   123    1
   183    96    94   ar
   184   134   133    1
   185   134   135   ar
   186    92    89    1
   187    89    88    1
   188    89    90    1
   189   130   133    1
   190   130   131    1
   191   130   129    1
   192   120   121    1
   193   120   119    1
   194   137   135   ar
   195   104   101    1
   196   124   129   am
   197   124   123    1
   198   109   110    2
   199   103   102    2
   200   128   122    1
   201   123   122    1
   202   145   146    1
   203   145   147    1
   204    90    91    2
   205   102   101    1
   206   119   118    1
   207   101   100    1
   208   118   115    1
   209   115   114    1
   210   115   116    1
   211   116   117    2
