@<TRIPOS>MOLECULE
tmp/3g75A00.pdb
 110 101 0 0 0
SMALL
GASTEIGER

@<TRIPOS>ATOM
      1  N         46.3520    5.2570   20.9890 N.3    28  ILE28      -0.1245
      2  CA        46.1410    3.8730   20.6080 C.3    28  ILE28       0.1561
      3  C         46.1620    3.7930   19.0810 C.2    28  ILE28       0.2260
      4  O         46.7880    2.9020   18.4980 O.2    28  ILE28      -0.2867
      5  CB        44.7840    3.3580   21.1440 C.3    28  ILE28       0.0252
      6  CG1       44.7130    3.5590   22.6680 C.3    28  ILE28       0.0019
      7  CG2       44.5940    1.8830   20.7730 C.3    28  ILE28       0.0019
      8  CD1       45.8270    2.8850   23.4500 C.3    28  ILE28       0.0001
      9  N         49.2730    3.2890   17.1440 N.3    31  ASN31      -0.1225
     10  CA        49.8570    1.9480   17.1530 C.3    31  ASN31       0.1785
     11  C         49.4270    1.1250   15.9460 C.2    31  ASN31       0.2597
     12  O         50.2140    0.3570   15.3900 O.2    31  ASN31      -0.2718
     13  CB        49.4520    1.1980   18.4270 C.3    31  ASN31       0.1169
     14  CG        49.6430    2.0300   19.6750 C.2    31  ASN31       0.2627
     15  OD1       49.7090    3.2590   19.6080 O.2    31  ASN31      -0.2716
     16  ND2       49.7320    1.3700   20.8200 N.am   31  ASN31      -0.0877
     17  N         48.1650    1.2820   15.5560 N.am   32  SER32      -0.1952
     18  CA        47.6120    0.5100   14.4550 C.3    32  SER32       0.1924
     19  C         48.1650    1.0600   13.1580 C.2    32  SER32       0.2314
     20  O         48.3170    0.3180   12.1750 O.2    32  SER32      -0.2863
     21  CB        46.0910    0.6060   14.4450 C.3    32  SER32       0.2116
     22  OG        45.5560    0.1200   15.6560 O.3    32  SER32      -0.2180
     23  N         51.3630   -0.6640   12.5300 N.3    35  GLU35      -0.1245
     24  CA        51.1050   -1.9560   11.8950 C.3    35  GLU35       0.1567
     25  C         50.7470   -1.8070   10.4230 C.2    35  GLU35       0.2260
     26  O         51.1740   -2.6060    9.6000 O.2    35  GLU35      -0.2867
     27  CB        49.9840   -2.7120   12.6220 C.3    35  GLU35       0.0388
     28  CG        50.4350   -3.4660   13.8760 C.3    35  GLU35       0.1160
     29  CD        51.5390   -4.4820   13.5900 C.2    35  GLU35       0.3649
     30  OE1       52.7230   -4.2000   13.8820 O.co2  35  GLU35      -0.2457
     31  OE2       51.2270   -5.5700   13.0710 O.co2  35  GLU35      -0.2457
     32  N         39.2250    0.3610   19.7490 N.3    56  VAL56      -0.1245
     33  CA        40.0500    0.3610   18.5460 C.3    56  VAL56       0.1561
     34  C         40.3690   -1.0750   18.1590 C.2    56  VAL56       0.2260
     35  O         40.7510   -1.8720   19.0030 O.2    56  VAL56      -0.2867
     36  CB        41.3880    1.1030   18.7770 C.3    56  VAL56       0.0252
     37  CG1       42.1900    1.1450   17.4790 C.3    56  VAL56       0.0019
     38  CG2       41.1220    2.5120   19.3080 C.3    56  VAL56       0.0019
     39  N         42.2260   -3.4820   14.9190 N.3    58  ASP58      -0.1239
     40  CA        42.9250   -3.5840   13.6420 C.3    58  ASP58       0.1674
     41  C         43.2120   -5.0440   13.2730 C.2    58  ASP58       0.2266
     42  O         43.0210   -5.9380   14.0970 O.2    58  ASP58      -0.2867
     43  CB        44.2270   -2.7720   13.6830 C.3    58  ASP58       0.1410
     44  CG        45.2680   -3.3700   14.6110 C.2    58  ASP58       0.3668
     45  OD1       45.6660   -2.6830   15.5740 O.co2  58  ASP58      -0.2456
     46  OD2       45.6920   -4.5210   14.3720 O.co2  58  ASP58      -0.2456
     47  N         49.3160   -7.8720   13.1330 N.3    61  ARG61      -0.1231
     48  CA        49.8590   -9.1550   13.5890 C.3    61  ARG61       0.1694
     49  C         49.4550   -9.5230   15.0080 C.2    61  ARG61       0.2593
     50  O         49.5720  -10.6770   15.4030 O.2    61  ARG61      -0.2718
     51  CB        51.3880   -9.1380   13.5160 C.3    61  ARG61       0.0321
     52  CG        51.9420   -8.8760   12.1320 C.3    61  ARG61       0.0489
     53  CD        53.4480   -8.6680   12.1760 C.3    61  ARG61       0.2205
     54  NE        53.8020   -7.3460   12.6810 N.pl3  61  ARG61      -0.0865
     55  CZ        55.0160   -6.8140   12.5900 C.cat  61  ARG61       0.5346
     56  NH1       55.2510   -5.6030   13.0780 N.pl3  61  ARG61       0.1354
     57  NH2       55.9950   -7.4960   12.0150 N.pl3  61  ARG61       0.1354
     58  N         49.0020   -8.5420   15.7790 N.am   62  GLY62      -0.1942
     59  CA        48.7640   -8.7690   17.1950 C.3    62  GLY62       0.2014
     60  C         49.9870   -8.4370   18.0340 C.2    62  GLY62       0.2639
     61  O         51.1140   -8.7740   17.6710 O.2    62  GLY62      -0.2714
     62  N         49.7680   -7.7620   19.1600 N.am   63  ILE63      -0.1963
     63  CA        50.8260   -7.5290   20.1410 C.3    63  ILE63       0.1712
     64  C         51.4940   -8.8570   20.4950 C.2    63  ILE63       0.2458
     65  O         50.8270   -9.8860   20.6030 O.2    63  ILE63      -0.2730
     66  CB        50.2410   -6.8850   21.4280 C.3    63  ILE63       0.0289
     67  CG1       49.5030   -5.5920   21.0560 C.3    63  ILE63       0.0022
     68  CG2       51.3580   -6.5960   22.4410 C.3    63  ILE63       0.0023
     69  CD1       48.9610   -4.8260   22.2240 C.3    63  ILE63       0.0001
     70  N         52.8280   -8.8480   20.6560 N.am   64  PRO64      -0.2727
     71  CA        53.6380  -10.0120   21.0520 C.3    64  PRO64       0.1402
     72  C         53.2900  -10.5420   22.4480 C.2    64  PRO64       0.2269
     73  O         53.1190   -9.7640   23.3860 O.2    64  PRO64      -0.2865
     74  CB        55.0720   -9.4880   20.9890 C.3    64  PRO64       0.0296
     75  CG        55.0050   -8.3350   20.0380 C.3    64  PRO64       0.0237
     76  CD        53.6670   -7.7050   20.2620 C.3    64  PRO64       0.0939
     77  N         54.4770   -4.2640   28.0280 N.3    79  ILE79      -0.1245
     78  CA        54.2080   -3.1050   27.1860 C.3    79  ILE79       0.1561
     79  C         53.0480   -2.2300   27.6680 C.2    79  ILE79       0.2260
     80  O         53.1730   -1.0120   27.7130 O.2    79  ILE79      -0.2867
     81  CB        53.9380   -3.5330   25.7320 C.3    79  ILE79       0.0252
     82  CG1       55.2070   -4.1510   25.1260 C.3    79  ILE79       0.0019
     83  CG2       53.4850   -2.3390   24.9160 C.3    79  ILE79       0.0019
     84  CD1       55.0360   -4.6490   23.6870 C.3    79  ILE79       0.0001
     85  N         46.5900  -14.3950   17.9810 N.3    98  ARG98      -0.1245
     86  CA        47.9870  -14.7350   17.7500 C.3    98  ARG98       0.1563
     87  C         48.1700  -16.2490   17.9560 C.2    98  ARG98       0.2260
     88  O         47.5490  -16.8420   18.8420 O.2    98  ARG98      -0.2867
     89  CB        48.8770  -13.9810   18.7460 C.3    98  ARG98       0.0307
     90  CG        49.8740  -13.0370   18.1090 C.3    98  ARG98       0.0489
     91  CD        51.1640  -12.9490   18.9120 C.3    98  ARG98       0.2205
     92  NE        52.3170  -13.0400   18.0220 N.pl3  98  ARG98      -0.0865
     93  CZ        52.9350  -11.9990   17.4750 C.cat  98  ARG98       0.5346
     94  NH1       52.5280  -10.7650   17.7250 N.pl3  98  ARG98       0.1354
     95  NH2       53.9460  -12.1970   16.6470 N.pl3  98  ARG98       0.1354
     96  N         44.4900   -7.0370   17.1200 N.3   127  THR127     -0.1218
     97  CA        44.4310   -6.6070   18.5040 C.3   127  THR127      0.1862
     98  C         43.1460   -5.8190   18.6900 C.2   127  THR127      0.2287
     99  O         42.7400   -5.0750   17.8030 O.2   127  THR127     -0.2866
    100  CB        45.6400   -5.6980   18.8500 C.3   127  THR127      0.1770
    101  OG1       46.8610   -6.4140   18.6160 O.3   127  THR127     -0.2211
    102  CG2       45.5860   -5.2610   20.3010 C.3   127  THR127      0.0375
    103  N         41.3990   -3.1840   21.6470 N.3   129  ILE129     -0.1245
    104  CA        41.5700   -2.4560   22.8980 C.3   129  ILE129      0.1561
    105  C         40.3400   -1.6130   23.2380 C.2   129  ILE129      0.2260
    106  O         39.8230   -0.8930   22.3890 O.2   129  ILE129     -0.2867
    107  CB        42.7990   -1.5310   22.8380 C.3   129  ILE129      0.0252
    108  CG1       44.0720   -2.3660   22.7480 C.3   129  ILE129      0.0019
    109  CG2       42.8470   -0.6200   24.0780 C.3   129  ILE129      0.0019
    110  CD1       45.3260   -1.5440   22.9440 C.3   129  ILE129      0.0001
@<TRIPOS>BOND
     1    26    25    2
     2    25    24    1
     3    24    23    1
     4    24    27    1
     5    57    55    1
     6    52    53    1
     7    52    51    1
     8    20    19    2
     9    53    54    1
    10    55    54    2
    11    55    56    1
    12    27    28    1
    13    31    29   ar
    14    47    48    1
    15    19    18    1
    16    41    40    1
    17    41    42    2
    18    51    48    1
    19    48    49    1
    20    29    28    1
    21    29    30   ar
    22    40    43    1
    23    40    39    1
    24    43    44    1
    25    46    44   ar
    26    21    18    1
    27    21    22    1
    28    18    17    1
    29    44    45   ar
    30    49    50    2
    31    49    58   am
    32    12    11    2
    33    17    11   am
    34    58    59    1
    35    11    10    1
    36    95    93    1
    37    96    97    1
    38     9    10    1
    39    10    13    1
    40    59    60    1
    41    93    94    1
    42    93    92    2
    43    37    36    1
    44    61    60    2
    45    86    87    1
    46    86    85    1
    47    86    89    1
    48    99    98    2
    49    87    88    2
    50    92    91    1
    51    60    62   am
    52    90    89    1
    53    90    91    1
    54    34    33    1
    55    34    35    2
    56    13    14    1
    57     4     3    2
    58    97    98    1
    59    97   100    1
    60    33    36    1
    61    33    32    1
    62   101   100    1
    63    36    38    1
    64   100   102    1
    65     3     2    1
    66    62    63    1
    67    15    14    2
    68    14    16   am
    69    75    76    1
    70    75    74    1
    71    63    64    1
    72    63    66    1
    73    76    70    1
    74    64    65    2
    75    64    70   am
    76     2     1    1
    77     2     5    1
    78    70    71    1
    79     7     5    1
    80    74    71    1
    81    71    72    1
    82    67    66    1
    83    67    69    1
    84     5     6    1
    85    66    68    1
    86   103   104    1
    87   106   105    2
    88    72    73    2
    89     6     8    1
    90   108   107    1
    91   108   110    1
    92   107   104    1
    93   107   109    1
    94   104   105    1
    95    84    82    1
    96    83    81    1
    97    82    81    1
    98    81    78    1
    99    78    79    1
   100    78    77    1
   101    79    80    2
