@<TRIPOS>MOLECULE
tmp/3g7bA00.pdb
 132 122 0 0 0
SMALL
GASTEIGER

@<TRIPOS>ATOM
      1  N         45.0920    5.1990   20.9470 N.3    28  ILE28      -0.1245
      2  CA        44.8600    3.8220   20.5370 C.3    28  ILE28       0.1561
      3  C         44.8580    3.7080   19.0070 C.2    28  ILE28       0.2260
      4  O         45.5210    2.8440   18.4250 O.2    28  ILE28      -0.2867
      5  CB        43.5230    3.2980   21.0710 C.3    28  ILE28       0.0252
      6  CG1       43.5010    3.3710   22.6070 C.3    28  ILE28       0.0019
      7  CG2       43.3010    1.8860   20.5700 C.3    28  ILE28       0.0019
      8  CD1       44.5840    2.5550   23.2960 C.3    28  ILE28       0.0001
      9  N         48.0960    3.8360   17.2160 N.3    31  ASN31      -0.1225
     10  CA        48.7470    2.5460   17.3480 C.3    31  ASN31       0.1785
     11  C         48.2800    1.5580   16.2810 C.2    31  ASN31       0.2597
     12  O         49.1000    0.8460   15.6920 O.2    31  ASN31      -0.2718
     13  CB        48.4850    1.9790   18.7470 C.3    31  ASN31       0.1169
     14  CG        49.3460    2.6410   19.8090 C.2    31  ASN31       0.2627
     15  OD1       50.2250    3.4380   19.4940 O.2    31  ASN31      -0.2716
     16  ND2       49.1020    2.3070   21.0680 N.am   31  ASN31      -0.0877
     17  N         46.9680    1.5210   16.0420 N.am   32  SER32      -0.1952
     18  CA        46.3940    0.6920   14.9900 C.3    32  SER32       0.1924
     19  C         46.9400    1.1390   13.6510 C.2    32  SER32       0.2314
     20  O         47.1940    0.3150   12.7790 O.2    32  SER32      -0.2863
     21  CB        44.8690    0.8240   14.9620 C.3    32  SER32       0.2116
     22  OG        44.2700    0.1110   16.0280 O.3    32  SER32      -0.2180
     23  N         49.8580    2.4220   13.2170 N.3    34  ASP34      -0.1225
     24  CA        51.2050    1.8670   13.1380 C.3    34  ASP34       0.1805
     25  C         51.1440    0.4450   12.5820 C.2    34  ASP34       0.2597
     26  O         51.9540    0.0860   11.7200 O.2    34  ASP34      -0.2718
     27  CB        51.8910    1.8710   14.5150 C.3    34  ASP34       0.1424
     28  CG        52.3440    3.2620   14.9380 C.2    34  ASP34       0.3668
     29  OD1       52.4950    3.4960   16.1500 O.co2  34  ASP34      -0.2456
     30  OD2       52.5530    4.1280   14.0610 O.co2  34  ASP34      -0.2456
     31  N         50.1750   -0.3490   13.0520 N.am   35  GLU35      -0.1979
     32  CA        50.0170   -1.7310   12.5800 C.3    35  GLU35       0.1602
     33  C         49.7650   -1.7500   11.0720 C.2    35  GLU35       0.2287
     34  O         50.2610   -2.6260   10.3560 O.2    35  GLU35      -0.2864
     35  CB        48.8360   -2.4230   13.2710 C.3    35  GLU35       0.0415
     36  CG        49.1620   -3.6310   14.1520 C.3    35  GLU35       0.1163
     37  CD        50.3310   -4.4880   13.6720 C.2    35  GLU35       0.3649
     38  OE1       51.4760   -4.0010   13.6960 O.co2  35  GLU35      -0.2457
     39  OE2       50.1110   -5.6570   13.2940 O.co2  35  GLU35      -0.2457
     40  N         37.9950    0.0680   19.7950 N.3    56  VAL56      -0.1245
     41  CA        38.8300    0.1600   18.6180 C.3    56  VAL56       0.1561
     42  C         39.2620   -1.2230   18.1820 C.2    56  VAL56       0.2260
     43  O         39.7700   -2.0120   18.9780 O.2    56  VAL56      -0.2867
     44  CB        40.0860    1.0030   18.8830 C.3    56  VAL56       0.0252
     45  CG1       40.9300    1.0690   17.6230 C.3    56  VAL56       0.0019
     46  CG2       39.6840    2.3940   19.3530 C.3    56  VAL56       0.0019
     47  N         41.3600   -3.3210   15.0350 N.3    58  ASP58      -0.1239
     48  CA        42.0510   -3.4920   13.7660 C.3    58  ASP58       0.1674
     49  C         42.2360   -4.9760   13.4510 C.2    58  ASP58       0.2266
     50  O         42.0410   -5.8470   14.3170 O.2    58  ASP58      -0.2867
     51  CB        43.4070   -2.7950   13.7960 C.3    58  ASP58       0.1410
     52  CG        44.2900   -3.3090   14.9010 C.2    58  ASP58       0.3668
     53  OD1       44.4510   -2.5910   15.9110 O.co2  58  ASP58      -0.2456
     54  OD2       44.8150   -4.4350   14.7550 O.co2  58  ASP58      -0.2456
     55  N         48.3090   -7.7950   13.4250 N.3    61  ARG61      -0.1231
     56  CA        48.8140   -9.0750   13.9460 C.3    61  ARG61       0.1694
     57  C         48.3100   -9.4110   15.3490 C.2    61  ARG61       0.2593
     58  O         48.4380  -10.5430   15.8050 O.2    61  ARG61      -0.2718
     59  CB        50.3470   -9.0710   13.9690 C.3    61  ARG61       0.0321
     60  CG        50.9920   -9.0200   12.5920 C.3    61  ARG61       0.0489
     61  CD        52.4510   -8.6030   12.6840 C.3    61  ARG61       0.2205
     62  NE        52.5900   -7.1970   13.0440 N.pl3  61  ARG61      -0.0865
     63  CZ        53.7550   -6.5820   13.2450 C.cat  61  ARG61       0.5346
     64  NH1       53.7830   -5.2920   13.5680 N.pl3  61  ARG61       0.1354
     65  NH2       54.8960   -7.2550   13.1270 N.pl3  61  ARG61       0.1354
     66  N         47.7440   -8.4260   16.0350 N.am   62  GLY62      -0.1942
     67  CA        47.3900   -8.6090   17.4270 C.3    62  GLY62       0.2014
     68  C         48.5960   -8.3740   18.3240 C.2    62  GLY62       0.2639
     69  O         49.7020   -8.8650   18.0500 O.2    62  GLY62      -0.2714
     70  N         48.3950   -7.6110   19.3940 N.am   63  ILE63      -0.1963
     71  CA        49.4610   -7.3770   20.3550 C.3    63  ILE63       0.1712
     72  C         50.0030   -8.7110   20.8530 C.2    63  ILE63       0.2458
     73  O         49.2440   -9.5770   21.2960 O.2    63  ILE63      -0.2730
     74  CB        48.9560   -6.5830   21.5650 C.3    63  ILE63       0.0289
     75  CG1       48.4190   -5.2310   21.1030 C.3    63  ILE63       0.0022
     76  CG2       50.0800   -6.4360   22.6000 C.3    63  ILE63       0.0023
     77  CD1       47.9650   -4.3410   22.2280 C.3    63  ILE63       0.0001
     78  N         51.3300   -8.8840   20.8060 N.am   64  PRO64      -0.2727
     79  CA        51.9970  -10.1170   21.2330 C.3    64  PRO64       0.1402
     80  C         51.5800  -10.5330   22.6370 C.2    64  PRO64       0.2269
     81  O         51.2790   -9.6890   23.4780 O.2    64  PRO64      -0.2865
     82  CB        53.4820   -9.7600   21.1700 C.3    64  PRO64       0.0296
     83  CG        53.5570   -8.6430   20.1890 C.3    64  PRO64       0.0237
     84  CD        52.2990   -7.8530   20.4000 C.3    64  PRO64       0.0939
     85  N         52.7690   -4.2340   28.0230 N.3    79  ILE79      -0.1231
     86  CA        52.4940   -3.0450   27.2430 C.3    79  ILE79       0.1692
     87  C         51.3190   -2.2690   27.8300 C.2    79  ILE79       0.2591
     88  O         51.4210   -1.0670   28.0700 O.2    79  ILE79      -0.2718
     89  CB        52.2010   -3.4160   25.7780 C.3    79  ILE79       0.0266
     90  CG1       53.4580   -4.0110   25.1400 C.3    79  ILE79       0.0019
     91  CG2       51.6980   -2.1900   25.0070 C.3    79  ILE79       0.0020
     92  CD1       53.1800   -4.8270   23.8810 C.3    79  ILE79       0.0001
     93  N         50.2110   -2.9530   28.0810 N.am   80  LEU80      -0.1980
     94  CA        49.0210   -2.2770   28.5800 C.3    80  LEU80       0.1596
     95  C         49.2650   -1.5950   29.9210 C.2    80  LEU80       0.2287
     96  O         48.7250   -0.5220   30.1860 O.2    80  LEU80      -0.2864
     97  CB        47.8540   -3.2580   28.7030 C.3    80  LEU80       0.0297
     98  CG        46.9940   -3.3850   27.4380 C.3    80  LEU80       0.0022
     99  CD1       46.4210   -2.0250   27.0840 C.3    80  LEU80       0.0001
    100  CD2       47.8280   -3.9040   26.2850 C.3    80  LEU80       0.0001
    101  N         50.3650    1.8050   29.3150 N.3    83  SER83      -0.1217
    102  CA        49.5260    2.6480   28.4810 C.3    83  SER83       0.1889
    103  C         48.8660    3.7610   29.2780 C.2    83  SER83       0.2288
    104  O         48.1250    3.5080   30.2270 O.2    83  SER83      -0.2866
    105  CB        48.4410    1.8190   27.7960 C.3    83  SER83       0.2089
    106  OG        47.4580    2.6760   27.2460 O.3    83  SER83      -0.2183
    107  N         45.2470  -14.1370   17.9350 N.3    98  ARG98      -0.1245
    108  CA        46.6100  -14.5400   17.5970 C.3    98  ARG98       0.1563
    109  C         46.7190  -16.0430   17.8380 C.2    98  ARG98       0.2260
    110  O         46.2020  -16.5490   18.8380 O.2    98  ARG98      -0.2867
    111  CB        47.6190  -13.8290   18.5050 C.3    98  ARG98       0.0307
    112  CG        48.3920  -12.7000   17.8550 C.3    98  ARG98       0.0489
    113  CD        49.5610  -12.2580   18.7420 C.3    98  ARG98       0.2205
    114  NE        50.8220  -12.8170   18.2750 N.pl3  98  ARG98      -0.0865
    115  CZ        51.7420  -12.1370   17.5950 C.cat  98  ARG98       0.5346
    116  NH1       51.5550  -10.8530   17.3030 N.pl3  98  ARG98       0.1354
    117  NH2       52.8430  -12.7510   17.1810 N.pl3  98  ARG98       0.1354
    118  N         43.5210   -6.7980   17.0620 N.3   127  THR127     -0.1218
    119  CA        43.3350   -6.3580   18.4300 C.3   127  THR127      0.1862
    120  C         42.0380   -5.5910   18.6190 C.2   127  THR127      0.2287
    121  O         41.6530   -4.7830   17.7790 O.2   127  THR127     -0.2866
    122  CB        44.4910   -5.4590   18.8890 C.3   127  THR127      0.1770
    123  OG1       45.7220   -6.1900   18.8350 O.3   127  THR127     -0.2211
    124  CG2       44.2480   -4.9760   20.3130 C.3   127  THR127      0.0375
    125  N         40.4340   -3.0730   21.5410 N.3   129  ILE129     -0.1245
    126  CA        40.5330   -2.3290   22.7850 C.3   129  ILE129      0.1561
    127  C         39.1950   -1.6660   23.1080 C.2   129  ILE129      0.2260
    128  O         38.5980   -0.9920   22.2560 O.2   129  ILE129     -0.2867
    129  CB        41.6100   -1.2170   22.7060 C.3   129  ILE129      0.0252
    130  CG1       42.9810   -1.8130   22.3930 C.3   129  ILE129      0.0019
    131  CG2       41.6790   -0.4790   24.0340 C.3   129  ILE129      0.0019
    132  CD1       43.5030   -2.7450   23.4550 C.3   129  ILE129      0.0001
@<TRIPOS>BOND
     1    34    33    2
     2    33    32    1
     3    26    25    2
     4    32    31    1
     5    32    35    1
     6    25    31   am
     7    25    24    1
     8    60    61    1
     9    60    59    1
    10    61    62    1
    11    20    19    2
    12    62    63    2
    13    65    63    1
    14    24    23    1
    15    24    27    1
    16    63    64    1
    17    35    36    1
    18    39    37   ar
    19    55    56    1
    20    49    48    1
    21    49    50    2
    22    19    18    1
    23    37    38   ar
    24    37    36    1
    25    48    51    1
    26    48    47    1
    27    51    52    1
    28    56    59    1
    29    56    57    1
    30    30    28   ar
    31    27    28    1
    32    54    52   ar
    33    52    53   ar
    34    28    29   ar
    35    21    18    1
    36    21    22    1
    37    18    17    1
    38    57    58    2
    39    57    66   am
    40    12    11    2
    41    66    67    1
    42    17    11   am
    43    11    10    1
    44   118   119    1
    45   117   115    1
    46     9    10    1
    47   116   115    1
    48    10    13    1
    49    67    68    1
    50   115   114    2
    51   108   109    1
    52   108   107    1
    53   108   111    1
    54    45    44    1
    55   121   120    2
    56   109   110    2
    57   112   111    1
    58   112   113    1
    59    69    68    2
    60    42    41    1
    61    42    43    2
    62   114   113    1
    63    68    70   am
    64     4     3    2
    65   119   120    1
    66   119   122    1
    67    41    44    1
    68    41    40    1
    69    13    14    1
    70   123   122    1
    71    44    46    1
    72   122   124    1
    73     3     2    1
    74    70    71    1
    75    15    14    2
    76    14    16   am
    77    83    84    1
    78    83    82    1
    79    71    72    1
    80    71    74    1
    81    84    78    1
    82     2     1    1
    83     2     5    1
    84     7     5    1
    85    78    72   am
    86    78    79    1
    87    72    73    2
    88     5     6    1
    89    75    74    1
    90    75    77    1
    91    82    79    1
    92    79    80    1
    93   125   126    1
    94    74    76    1
    95   128   127    2
    96   130   129    1
    97   130   132    1
    98     6     8    1
    99    80    81    2
   100   129   126    1
   101   129   131    1
   102   126   127    1
   103    92    90    1
   104    91    89    1
   105    90    89    1
   106    89    86    1
   107   100    98    1
   108    99    98    1
   109    86    87    1
   110    86    85    1
   111   106   105    1
   112    98    97    1
   113   105   102    1
   114    87    88    2
   115    87    93   am
   116    93    94    1
   117   102   103    1
   118   102   101    1
   119    94    97    1
   120    94    95    1
   121   103   104    2
   122    95    96    2
