@<TRIPOS>MOLECULE
tmp/3g7eA00.pdb
 223 209 0 0 0
SMALL
GASTEIGER

@<TRIPOS>ATOM
      1  N         36.7330   10.0110   14.0200 N.3    29  VAL29      -0.1245
      2  CA        36.6770   11.1980   14.8710 C.3    29  VAL29       0.1561
      3  C         35.4020   11.2060   15.7100 C.2    29  VAL29       0.2260
      4  O         35.4200   11.5930   16.8800 O.2    29  VAL29      -0.2867
      5  CB        36.7240   12.4990   14.0240 C.3    29  VAL29       0.0252
      6  CG1       36.7430   13.7250   14.9460 C.3    29  VAL29       0.0019
      7  CG2       37.9520   12.4840   13.1110 C.3    29  VAL29       0.0019
      8  N         35.5590    9.0900   18.8320 N.3    32  ASN32      -0.1225
      9  CA        36.2090    9.7950   19.9290 C.3    32  ASN32       0.1785
     10  C         35.2360   10.7100   20.6810 C.2    32  ASN32       0.2597
     11  O         35.2410   10.7540   21.9180 O.2    32  ASN32      -0.2718
     12  CB        37.3960   10.6010   19.3960 C.3    32  ASN32       0.1169
     13  CG        38.6680    9.7690   19.2980 C.2    32  ASN32       0.2627
     14  OD1       38.6400    8.5570   19.5000 O.2    32  ASN32      -0.2716
     15  ND2       39.7910   10.4230   18.9970 N.am   32  ASN32      -0.0877
     16  N         34.3940   11.4270   19.9390 N.am   33  ALA33      -0.1979
     17  CA        33.4360   12.3360   20.5560 C.3    33  ALA33       0.1597
     18  C         32.4340   11.5680   21.4130 C.2    33  ALA33       0.2287
     19  O         32.0590   12.0270   22.4860 O.2    33  ALA33      -0.2864
     20  CB        32.6980   13.1480   19.4850 C.3    33  ALA33       0.0319
     21  N         32.9870    8.8570   23.1000 N.3    35  ASP35      -0.1225
     22  CA        33.6280    8.5560   24.3820 C.3    35  ASP35       0.1805
     23  C         33.2950    9.6330   25.4180 C.2    35  ASP35       0.2597
     24  O         33.0030    9.3160   26.5760 O.2    35  ASP35      -0.2718
     25  CB        35.1520    8.4550   24.2350 C.3    35  ASP35       0.1424
     26  CG        35.5950    7.1600   23.5800 C.2    35  ASP35       0.3668
     27  OD1       34.7250    6.3110   23.2830 O.co2  35  ASP35      -0.2456
     28  OD2       36.8160    6.9900   23.3630 O.co2  35  ASP35      -0.2456
     29  N         33.3340   10.8990   24.9990 N.am   36  GLU36      -0.1979
     30  CA        32.9960   12.0160   25.8870 C.3    36  GLU36       0.1602
     31  C         31.5240   11.9880   26.2640 C.2    36  GLU36       0.2287
     32  O         31.1530   12.3190   27.3920 O.2    36  GLU36      -0.2864
     33  CB        33.3020   13.3590   25.2170 C.3    36  GLU36       0.0415
     34  CG        34.6430   13.9600   25.5690 C.3    36  GLU36       0.1163
     35  CD        34.8680   14.1070   27.0650 C.2    36  GLU36       0.3649
     36  OE1       35.4990   13.2010   27.6510 O.co2  36  GLU36      -0.2457
     37  OE2       34.4290   15.1230   27.6540 O.co2  36  GLU36      -0.2457
     38  N         33.9650   17.8700   12.7390 N.3    57  VAL57      -0.1245
     39  CA        33.2780   17.2060   13.8330 C.3    57  VAL57       0.1561
     40  C         33.4950   18.0490   15.0790 C.2    57  VAL57       0.2260
     41  O         34.6340   18.3410   15.4460 O.2    57  VAL57      -0.2867
     42  CB        33.8540   15.7940   14.0880 C.3    57  VAL57       0.0252
     43  CG1       33.0810   15.1120   15.2070 C.3    57  VAL57       0.0019
     44  CG2       33.7940   14.9650   12.8110 C.3    57  VAL57       0.0019
     45  N         31.9400   18.7740   19.2560 N.3    59  ASP59      -0.1239
     46  CA        31.1490   18.2990   20.3750 C.3    59  ASP59       0.1674
     47  C         31.2700   19.3250   21.4990 C.2    59  ASP59       0.2266
     48  O         32.1840   20.1470   21.4940 O.2    59  ASP59      -0.2867
     49  CB        31.6740   16.9360   20.8410 C.3    59  ASP59       0.1410
     50  CG        33.0900   17.0120   21.4030 C.2    59  ASP59       0.3668
     51  OD1       34.0560   16.7350   20.6530 O.co2  59  ASP59      -0.2456
     52  OD2       33.2330   17.3520   22.5980 O.co2  59  ASP59      -0.2456
     53  N         34.3290   18.0920   27.3000 N.3    62  ARG62      -0.1231
     54  CA        35.2540   18.8280   28.1580 C.3    62  ARG62       0.1694
     55  C         36.3550   19.5520   27.3870 C.2    62  ARG62       0.2593
     56  O         36.9980   20.4570   27.9150 O.2    62  ARG62      -0.2718
     57  CB        35.8900   17.8790   29.1770 C.3    62  ARG62       0.0321
     58  CG        35.0370   17.6400   30.4170 C.3    62  ARG62       0.0489
     59  CD        35.5880   16.4830   31.2620 C.3    62  ARG62       0.2205
     60  NE        35.6360   15.2430   30.4970 N.pl3  62  ARG62      -0.0865
     61  CZ        36.0810   14.0860   30.9760 C.cat  62  ARG62       0.5346
     62  NH1       36.5180   14.0050   32.2280 N.pl3  62  ARG62       0.1354
     63  NH2       36.0930   13.0110   30.2040 N.pl3  62  ARG62       0.1354
     64  N         36.5600   19.1520   26.1380 N.am   63  GLY63      -0.1942
     65  CA        37.7240   19.5980   25.3960 C.3    63  GLY63       0.2014
     66  C         38.8930   18.6640   25.6410 C.2    63  GLY63       0.2639
     67  O         39.1840   18.3270   26.7820 O.2    63  GLY63      -0.2714
     68  N         39.5690   18.2420   24.5790 N.am   64  ILE64      -0.1963
     69  CA        40.7530   17.4080   24.7360 C.3    64  ILE64       0.1712
     70  C         41.7870   18.1430   25.5890 C.2    64  ILE64       0.2458
     71  O         42.0780   19.3100   25.3450 O.2    64  ILE64      -0.2730
     72  CB        41.3740   17.0640   23.3680 C.3    64  ILE64       0.0289
     73  CG1       40.3530   16.3050   22.5160 C.3    64  ILE64       0.0022
     74  CG2       42.6460   16.2280   23.5670 C.3    64  ILE64       0.0023
     75  CD1       40.8060   16.0270   21.0960 C.3    64  ILE64       0.0001
     76  N         42.3390   17.4700   26.6170 N.am   65  PRO65      -0.2727
     77  CA        43.3590   18.0930   27.4750 C.3    65  PRO65       0.1402
     78  C         44.6050   18.5510   26.7090 C.2    65  PRO65       0.2269
     79  O         45.1560   17.8030   25.8990 O.2    65  PRO65      -0.2865
     80  CB        43.6820   17.0070   28.5110 C.3    65  PRO65       0.0296
     81  CG        42.4240   16.1760   28.5610 C.3    65  PRO65       0.0237
     82  CD        41.9080   16.1610   27.1370 C.3    65  PRO65       0.0939
     83  N         47.6120   15.3180   26.0310 N.3    76  ALA76      -0.1245
     84  CA        46.7290   14.3470   25.3940 C.3    76  ALA76       0.1562
     85  C         46.4350   14.7650   23.9520 C.2    76  ALA76       0.2260
     86  O         46.4370   13.9300   23.0510 O.2    76  ALA76      -0.2867
     87  CB        45.4230   14.2120   26.1890 C.3    76  ALA76       0.0290
     88  N         47.3230   12.1340   20.9020 N.3    80  ILE80      -0.1231
     89  CA        46.3410   11.4490   20.0740 C.3    80  ILE80       0.1692
     90  C         46.3420   11.9430   18.6230 C.2    80  ILE80       0.2591
     91  O         45.7960   11.2780   17.7500 O.2    80  ILE80      -0.2718
     92  CB        44.9090   11.5690   20.6430 C.3    80  ILE80       0.0266
     93  CG1       44.3230   12.9350   20.3260 C.3    80  ILE80       0.0019
     94  CG2       44.9310   11.3650   22.1410 C.3    80  ILE80       0.0020
     95  CD1       42.8390   12.9940   20.5850 C.3    80  ILE80       0.0001
     96  N         46.9670   13.0940   18.3690 N.am   81  MET81      -0.1979
     97  CA        47.0370   13.6430   17.0150 C.3    81  MET81       0.1605
     98  C         48.2830   13.1760   16.2650 C.2    81  MET81       0.2287
     99  O         48.2930   13.1560   15.0360 O.2    81  MET81      -0.2864
    100  CB        47.0320   15.1840   17.0340 C.3    81  MET81       0.0413
    101  CG        45.7250   15.8420   17.4660 C.3    81  MET81       0.0598
    102  SD        44.2380   15.0640   16.7850 S.3    81  MET81      -0.1393
    103  CE        44.5390   15.2180   15.0350 C.3    81  MET81       0.0692
    104  N         45.0780    6.5180   21.7760 N.3    87  GLY87      -0.1210
    105  CA        43.6550    6.6080   22.0420 C.3    87  GLY87       0.1956
    106  C         43.4200    6.3630   23.5170 C.2    87  GLY87       0.2612
    107  O         44.2250    6.7830   24.3470 O.2    87  GLY87      -0.2717
    108  N         42.3320    5.6760   23.8520 N.am   88  GLY88      -0.1942
    109  CA        42.0850    5.3470   25.2440 C.3    88  GLY88       0.2014
    110  C         41.4900    6.5080   26.0200 C.2    88  GLY88       0.2639
    111  O         40.5670    7.1730   25.5440 O.2    88  GLY88      -0.2714
    112  N         42.0110    6.7490   27.2210 N.am   89  LYS89      -0.1963
    113  CA        41.4730    7.7830   28.0940 C.3    89  LYS89       0.1728
    114  C         42.5870    8.5220   28.8270 C.2    89  LYS89       0.2616
    115  O         43.5590    7.9100   29.2740 O.2    89  LYS89      -0.2715
    116  CB        40.5020    7.1670   29.0990 C.3    89  LYS89       0.0311
    117  CG        39.2150    6.6000   28.5160 C.3    89  LYS89       0.0038
    118  CD        38.3350    7.7240   27.9980 C.3    89  LYS89       0.0206
    119  CE        37.2590    8.0870   29.0060 C.3    89  LYS89       0.1093
    120  NZ        36.3930    9.1880   28.4930 N.3    89  LYS89      -0.1314
    121  N         42.4340    9.8410   28.9360 N.am   90  PHE90      -0.1960
    122  CA        43.3530   10.6980   29.6850 C.3    90  PHE90       0.1771
    123  C         42.5830   11.4380   30.7670 C.2    90  PHE90       0.2620
    124  O         41.3550   11.4870   30.7320 O.2    90  PHE90      -0.2715
    125  CB        43.9980   11.7240   28.7530 C.3    90  PHE90       0.0574
    126  CG        44.8510   11.1150   27.6690 C.ar   90  PHE90      -0.0200
    127  CD1       46.2330   11.1270   27.7700 C.ar   90  PHE90      -0.0042
    128  CD2       44.2690   10.5560   26.5360 C.ar   90  PHE90      -0.0042
    129  CE1       47.0240   10.5970   26.7610 C.ar   90  PHE90      -0.0003
    130  CE2       45.0520   10.0240   25.5260 C.ar   90  PHE90      -0.0003
    131  CZ        46.4330   10.0450   25.6390 C.ar   90  PHE90      -0.0000
    132  N         43.2930   12.0170   31.7310 N.am   91  ASP91      -0.1957
    133  CA        42.6470   12.9300   32.6660 C.3    91  ASP91       0.1840
    134  C         43.0170   14.3770   32.3380 C.2    91  ASP91       0.2622
    135  O         43.7060   14.6310   31.3530 O.2    91  ASP91      -0.2715
    136  CB        43.0020   12.5650   34.1230 C.3    91  ASP91       0.1450
    137  CG        44.4800   12.7860   34.4690 C.2    91  ASP91       0.3671
    138  OD1       44.8710   12.3410   35.5680 O.co2  91  ASP91      -0.2456
    139  OD2       45.2420   13.3940   33.6770 O.co2  91  ASP91      -0.2456
    140  N         42.5430   15.3190   33.1470 N.am   92  ASP92      -0.1971
    141  CA        42.6870   16.7410   32.8390 C.3    92  ASP92       0.1709
    142  C         44.1420   17.2040   32.8050 C.2    92  ASP92       0.2293
    143  O         44.4420   18.2860   32.3080 O.2    92  ASP92      -0.2864
    144  CB        41.9160   17.5850   33.8620 C.3    92  ASP92       0.1436
    145  CG        40.4190   17.4490   33.7090 C.2    92  ASP92       0.3671
    146  OD1       39.8760   17.9090   32.6830 O.co2  92  ASP92      -0.2456
    147  OD2       39.7850   16.8740   34.6120 O.co2  92  ASP92      -0.2456
    148  N         40.5010    1.1920   20.5670 N.3   102  HIS102     -0.1241
    149  CA        39.3680    1.2340   19.6300 C.3   102  HIS102      0.1621
    150  C         39.5590    2.0760   18.3650 C.2   102  HIS102      0.2264
    151  O         40.1970    3.1320   18.3790 O.2   102  HIS102     -0.2867
    152  CB        38.0730    1.6450   20.3670 C.3   102  HIS102      0.0745
    153  CG        37.6680    3.0800   20.1870 C.ar  102  HIS102      0.0817
    154  ND1       37.4720    3.9330   21.2540 N.ar  102  HIS102     -0.2268
    155  CD2       37.3470    3.7900   19.0790 C.ar  102  HIS102      0.1154
    156  CE1       37.0500    5.1040   20.8120 C.ar  102  HIS102      0.1986
    157  NE2       36.9650    5.0430   19.4950 N.ar  102  HIS102     -0.2212
    158  N         42.8680    8.6870   15.6300 N.3   106  VAL106     -0.1245
    159  CA        42.7130    9.8910   14.8200 C.3   106  VAL106      0.1561
    160  C         44.0340   10.4410   14.2960 C.2   106  VAL106      0.2260
    161  O         44.0410   11.2830   13.4090 O.2   106  VAL106     -0.2867
    162  CB        41.9750   11.0110   15.5960 C.3   106  VAL106      0.0252
    163  CG1       40.5630   10.5590   15.9180 C.3   106  VAL106      0.0019
    164  CG2       42.7400   11.3730   16.8620 C.3   106  VAL106      0.0019
    165  N         43.7420    9.8090   10.7980 N.3   109  VAL109     -0.1245
    166  CA        42.9540   10.8200   10.0940 C.3   109  VAL109      0.1561
    167  C         43.8310   12.0380    9.8060 C.2   109  VAL109      0.2260
    168  O         43.7780   12.6100    8.7210 O.2   109  VAL109     -0.2867
    169  CB        41.7370   11.2750   10.9240 C.3   109  VAL109      0.0252
    170  CG1       40.9500   12.3380   10.1510 C.3   109  VAL109      0.0019
    171  CG2       40.8480   10.0770   11.2440 C.3   109  VAL109      0.0019
    172  N         44.5090   19.7140    8.8510 N.3   116  LEU116     -0.1245
    173  CA        43.5720   19.4690    9.9270 C.3   116  LEU116      0.1561
    174  C         43.6660   20.6100   10.9220 C.2   116  LEU116      0.2260
    175  O         44.7530   20.9780   11.3600 O.2   116  LEU116     -0.2867
    176  CB        43.8680   18.1250   10.6060 C.3   116  LEU116      0.0270
    177  CG        42.9420   17.7800   11.7700 C.3   116  LEU116      0.0019
    178  CD1       42.7580   16.2670   11.8730 C.3   116  LEU116      0.0001
    179  CD2       43.5140   18.3520   13.0530 C.3   116  LEU116      0.0001
    180  N         42.5170   21.9630   14.5770 N.3   118  LEU118     -0.1245
    181  CA        42.0080   21.5710   15.8790 C.3   118  LEU118      0.1561
    182  C         41.7730   22.8160   16.7330 C.2   118  LEU118      0.2260
    183  O         42.6680   23.6450   16.9090 O.2   118  LEU118     -0.2867
    184  CB        43.0150   20.6460   16.5580 C.3   118  LEU118      0.0270
    185  CG        42.6590   20.0700   17.9300 C.3   118  LEU118      0.0019
    186  CD1       41.3230   19.3380   17.8740 C.3   118  LEU118      0.0001
    187  CD2       43.7710   19.1160   18.3520 C.3   118  LEU118      0.0001
    188  N         38.5960   25.1550   26.5690 N.3   122  ARG122     -0.1245
    189  CA        38.5980   24.6670   27.9460 C.3   122  ARG122      0.1563
    190  C         39.4440   25.5560   28.8480 C.2   122  ARG122      0.2260
    191  O         40.2810   26.3310   28.3730 O.2   122  ARG122     -0.2867
    192  CB        39.1230   23.2270   28.0180 C.3   122  ARG122      0.0307
    193  CG        40.5600   23.0490   27.5530 C.3   122  ARG122      0.0489
    194  CD        41.3030   22.0410   28.4310 C.3   122  ARG122      0.2205
    195  NE        40.6220   20.7580   28.4530 N.pl3 122  ARG122     -0.0865
    196  CZ        40.4810   19.9870   29.5290 C.cat 122  ARG122      0.5346
    197  NH1       40.9750   20.3540   30.7020 N.pl3 122  ARG122      0.1354
    198  NH2       39.8300   18.8400   29.4220 N.pl3 122  ARG122      0.1354
    199  N         35.2870   20.4580   21.8430 N.3   151  THR151     -0.1218
    200  CA        36.3210   20.2870   20.8290 C.3   151  THR151      0.1862
    201  C         35.7310   20.4670   19.4330 C.2   151  THR151      0.2287
    202  O         34.6240   19.9940   19.1430 O.2   151  THR151     -0.2866
    203  CB        36.9700   18.8760   20.9140 C.3   151  THR151      0.1770
    204  OG1       37.5730   18.6940   22.2030 O.3   151  THR151     -0.2211
    205  CG2       38.0320   18.7110   19.8300 C.3   151  THR151      0.0375
    206  N         37.0180   19.9970   15.3320 N.3   153  VAL153     -0.1245
    207  CA        38.0480   19.6750   14.3640 C.3   153  VAL153      0.1561
    208  C         37.5030   19.6210   12.9470 C.2   153  VAL153      0.2260
    209  O         36.4500   19.0330   12.6860 O.2   153  VAL153     -0.2867
    210  CB        38.7380   18.3370   14.7090 C.3   153  VAL153      0.0252
    211  CG1       37.7080   17.2230   14.8100 C.3   153  VAL153      0.0019
    212  CG2       39.7850   18.0150   13.6550 C.3   153  VAL153      0.0019
    213  N         38.8810   18.6250    9.0270 N.3   155  PHE155     -0.1241
    214  CA        39.9990   18.0740    8.2680 C.3   155  PHE155      0.1605
    215  C         39.7050   18.0150    6.7750 C.2   155  PHE155      0.2264
    216  O         38.5690   17.7700    6.3620 O.2   155  PHE155     -0.2867
    217  CB        40.3800   16.6770    8.7990 C.3   155  PHE155      0.0534
    218  CG        39.2560   15.6730    8.7530 C.ar  155  PHE155     -0.0203
    219  CD1       38.3830   15.5420    9.8180 C.ar  155  PHE155     -0.0042
    220  CD2       39.0850   14.8510    7.6500 C.ar  155  PHE155     -0.0042
    221  CE1       37.3620   14.6110    9.7890 C.ar  155  PHE155     -0.0003
    222  CE2       38.0590   13.9110    7.6110 C.ar  155  PHE155     -0.0003
    223  CZ        37.1980   13.7920    8.6840 C.ar  155  PHE155     -0.0000
@<TRIPOS>BOND
     1   216   215    2
     2   215   214    1
     3   222   220   ar
     4   222   223   ar
     5   220   218   ar
     6   214   217    1
     7   214   213    1
     8   223   221   ar
     9   168   167    2
    10   218   217    1
    11   218   219   ar
    12   172   173    1
    13   221   219   ar
    14   167   166    1
    15   173   176    1
    16   173   174    1
    17   166   165    1
    18   166   169    1
    19   170   169    1
    20   176   177    1
    21   174   175    2
    22   169   171    1
    23   177   178    1
    24   177   179    1
    25   209   208    2
    26    38    39    1
    27    44    42    1
    28   208   207    1
    29     7     5    1
    30   161   160    2
    31   212   210    1
    32    39    42    1
    33    39    40    1
    34     1     2    1
    35     5     2    1
    36     5     6    1
    37    42    43    1
    38   160   159    1
    39   207   210    1
    40   207   206    1
    41   180   181    1
    42   210   211    1
    43   159   162    1
    44   159   158    1
    45     2     3    1
    46   103   102    1
    47    99    98    2
    48    40    41    2
    49   162   163    1
    50   162   164    1
    51     3     4    2
    52   181   184    1
    53   181   182    1
    54    98    97    1
    55   184   185    1
    56   182   183    2
    57   102   101    1
    58    97   100    1
    59    97    96    1
    60   100   101    1
    61    91    90    2
    62   186   185    1
    63   185   187    1
    64   150   151    2
    65   150   149    1
    66    96    90   am
    67    90    89    1
    68     8     9    1
    69    15    13   am
    70   155   157   ar
    71   155   153   ar
    72   202   201    2
    73    45    46    1
    74    13    12    1
    75    13    14    2
    76    12     9    1
    77   201   200    1
    78    20    17    1
    79   157   156   ar
    80   149   152    1
    81   149   148    1
    82   205   203    1
    83     9    10    1
    84    16    17    1
    85    16    10   am
    86    89    92    1
    87    89    88    1
    88   153   152    1
    89   153   154   ar
    90    93    95    1
    91    93    92    1
    92    46    49    1
    93    46    47    1
    94    17    18    1
    95    92    94    1
    96    51    50   ar
    97    10    11    2
    98   156   154   ar
    99   200   203    1
   100   200   199    1
   101    49    50    1
   102   203   204    1
   103    75    73    1
   104    50    52   ar
   105    18    19    2
   106    48    47    2
   107   104   105    1
   108   105   106    1
   109    73    72    1
   110    86    85    2
   111    21    22    1
   112    27    26   ar
   113    28    26   ar
   114    72    74    1
   115    72    69    1
   116   106   108   am
   117   106   107    2
   118    26    25    1
   119   108   109    1
   120    85    84    1
   121    25    22    1
   122    22    23    1
   123    68    69    1
   124    68    66   am
   125    69    70    1
   126    29    23   am
   127    29    30    1
   128    33    34    1
   129    33    30    1
   130   109   110    1
   131    71    70    2
   132    84    83    1
   133    84    87    1
   134    65    66    1
   135    65    64    1
   136    23    24    2
   137   130   131   ar
   138   130   128   ar
   139   111   110    2
   140    34    35    1
   141    70    76   am
   142   131   129   ar
   143    66    67    2
   144    30    31    1
   145    79    78    2
   146   110   112   am
   147    64    55   am
   148    31    32    2
   149   128   126   ar
   150   188   189    1
   151    76    82    1
   152    76    77    1
   153    78    77    1
   154   129   127   ar
   155    35    36   ar
   156    35    37   ar
   157    82    81    1
   158   112   113    1
   159    53    54    1
   160    55    56    2
   161    55    54    1
   162    77    80    1
   163   193   192    1
   164   193   194    1
   165   126   127   ar
   166   126   125    1
   167   189   192    1
   168   189   190    1
   169   118   117    1
   170   118   119    1
   171   113   114    1
   172   113   116    1
   173    54    57    1
   174   191   190    2
   175   194   195    1
   176   195   196    2
   177   120   119    1
   178    80    81    1
   179   117   116    1
   180   125   122    1
   181   114   121   am
   182   114   115    2
   183   121   122    1
   184    57    58    1
   185   198   196    1
   186   196   197    1
   187   122   123    1
   188    63    61    1
   189    58    59    1
   190    60    61    2
   191    60    59    1
   192   124   123    2
   193   123   132   am
   194    61    62    1
   195   135   134    2
   196   132   133    1
   197   143   142    2
   198   134   133    1
   199   134   140   am
   200   133   136    1
   201   146   145   ar
   202   142   141    1
   203   141   140    1
   204   141   144    1
   205   139   137   ar
   206   145   144    1
   207   145   147   ar
   208   136   137    1
   209   137   138   ar
