@<TRIPOS>MOLECULE
tmp/3g7fB02.pdb
 72 69 0 0 0
SMALL
GASTEIGER

@<TRIPOS>ATOM
      1  N        146.8300   84.1070    2.3150 N.3    61  LEU61      -0.1231
      2  CA       146.1420   84.1660    1.0270 C.3    61  LEU61       0.1678
      3  C        146.8520   83.3990   -0.0990 C.2    61  LEU61       0.2434
      4  O        148.0780   83.3900   -0.1590 O.2    61  LEU61      -0.2733
      5  CB       145.9300   85.6200    0.6400 C.3    61  LEU61       0.0284
      6  CG       145.1200   86.4130    1.6570 C.3    61  LEU61       0.0019
      7  CD1      145.0430   87.8930    1.2290 C.3    61  LEU61       0.0001
      8  CD2      143.7150   85.7700    1.8530 C.3    61  LEU61       0.0001
      9  N        146.0780   82.7670   -1.0070 N.am   62  PRO62      -0.2718
     10  CA       146.6990   81.9380   -2.0770 C.3    62  PRO62       0.1535
     11  C        147.6000   82.7130   -3.0320 C.2    62  PRO62       0.2598
     12  O        148.4790   82.1140   -3.6200 O.2    62  PRO62      -0.2715
     13  CB       145.5060   81.3750   -2.8510 C.3    62  PRO62       0.0310
     14  CG       144.3160   82.2420   -2.4400 C.3    62  PRO62       0.0237
     15  CD       144.6010   82.7720   -1.0730 C.3    62  PRO62       0.0939
     16  N        147.3990   84.0200   -3.1720 N.am   63  HIS63      -0.1974
     17  CA       148.2210   84.8370   -4.0780 C.3    63  HIS63       0.1656
     18  C        148.9980   85.9530   -3.3540 C.2    63  HIS63       0.2291
     19  O        149.1550   87.0390   -3.8810 O.2    63  HIS63      -0.2864
     20  CB       147.3560   85.4190   -5.2240 C.3    63  HIS63       0.0771
     21  CG       146.5380   84.3840   -5.9310 C.ar   63  HIS63       0.0820
     22  ND1      147.0950   83.4450   -6.7750 N.ar   63  HIS63      -0.2267
     23  CD2      145.2160   84.0940   -5.8650 C.ar   63  HIS63       0.1154
     24  CE1      146.1480   82.6300   -7.2110 C.ar   63  HIS63       0.1986
     25  NE2      144.9990   83.0020   -6.6700 N.ar   63  HIS63      -0.2212
     26  N        145.3040   87.9620    5.9450 N.3    67  VAL67      -0.1245
     27  CA       144.1350   88.6150    6.4960 C.3    67  VAL67       0.1561
     28  C        143.9440   88.0890    7.9170 C.2    67  VAL67       0.2260
     29  O        143.9740   86.8630    8.1400 O.2    67  VAL67      -0.2867
     30  CB       142.8760   88.3170    5.6350 C.3    67  VAL67       0.0252
     31  CG1      141.6160   88.8220    6.3150 C.3    67  VAL67       0.0019
     32  CG2      143.0020   88.9240    4.2430 C.3    67  VAL67       0.0019
     33  N        138.0200   94.4030   -0.6310 N.3   112  ALA112     -0.1245
     34  CA       139.3040   94.8180   -1.1660 C.3   112  ALA112      0.1562
     35  C        139.1410   95.2470   -2.6140 C.2   112  ALA112      0.2260
     36  O        138.3320   94.6620   -3.3290 O.2   112  ALA112     -0.2867
     37  CB       140.2720   93.6690   -1.0740 C.3   112  ALA112      0.0290
     38  N        140.5580   94.5690   -5.2790 N.3   114  VAL114     -0.1231
     39  CA       141.4260   93.5370   -5.8030 C.3   114  VAL114      0.1692
     40  C        140.5790   92.6720   -6.7640 C.2   114  VAL114      0.2592
     41  O        139.3980   92.4070   -6.5080 O.2   114  VAL114     -0.2718
     42  CB       141.9980   92.6670   -4.6000 C.3   114  VAL114      0.0266
     43  CG1      142.1920   91.2050   -4.9640 C.3   114  VAL114      0.0020
     44  CG2      143.2870   93.2830   -3.9960 C.3   114  VAL114      0.0020
     45  N        141.1840   92.2700   -7.8770 N.am  115  VAL115     -0.1966
     46  CA       140.5480   91.4290   -8.8640 C.3   115  VAL115      0.1727
     47  C        140.5920   89.9960   -8.3320 C.2   115  VAL115      0.2616
     48  O        141.6620   89.4940   -7.9490 O.2   115  VAL115     -0.2715
     49  CB       141.2800   91.5330  -10.2350 C.3   115  VAL115      0.0290
     50  CG1      140.7190   90.5360  -11.2190 C.3   115  VAL115      0.0023
     51  CG2      141.1730   92.9430  -10.8010 C.3   115  VAL115      0.0023
     52  N        139.4390   89.3300   -8.2970 N.am  116  ASP116     -0.1957
     53  CA       139.3990   87.9720   -7.7940 C.3   116  ASP116      0.1840
     54  C        140.1290   87.1000   -8.8000 C.2   116  ASP116      0.2621
     55  O        140.0190   87.3300  -10.0180 O.2   116  ASP116     -0.2715
     56  CB       137.9560   87.5200   -7.6290 C.3   116  ASP116      0.1450
     57  CG       137.8130   86.3610   -6.6650 C.2   116  ASP116      0.3671
     58  OD1      138.6550   86.2350   -5.7450 O.co2 116  ASP116     -0.2456
     59  OD2      136.8550   85.5770   -6.8260 O.co2 116  ASP116     -0.2456
     60  N        140.8590   86.1030   -8.3100 N.am  117  ALA117     -0.1977
     61  CA       141.7230   85.2950   -9.1670 C.3   117  ALA117      0.1597
     62  C        141.3530   83.8190   -9.2970 C.2   117  ALA117      0.2287
     63  O        140.7860   83.2250   -8.3720 O.2   117  ALA117     -0.2864
     64  CB       143.1760   85.4100   -8.6990 C.3   117  ALA117      0.0319
     65  N        136.6210   92.9230   -6.3360 N.3   223  LEU223     -0.1245
     66  CA       135.6830   92.4090   -5.3440 C.3   223  LEU223      0.1561
     67  C        134.7190   93.4940   -4.8820 C.2   223  LEU223      0.2260
     68  O        133.5310   93.2310   -4.7350 O.2   223  LEU223     -0.2867
     69  CB       136.4220   91.7970   -4.1490 C.3   223  LEU223      0.0270
     70  CG       137.0930   90.4490   -4.4440 C.3   223  LEU223      0.0019
     71  CD1      137.9270   89.9830   -3.2280 C.3   223  LEU223      0.0001
     72  CD2      136.0500   89.3780   -4.8720 C.3   223  LEU223      0.0001
@<TRIPOS>BOND
     1    50    49    1
     2    51    49    1
     3    49    46    1
     4    55    54    2
     5    62    61    1
     6    62    63    2
     7    61    64    1
     8    61    60    1
     9    46    47    1
    10    46    45    1
    11    54    60   am
    12    54    53    1
    13    47    52   am
    14    47    48    2
    15    52    53    1
    16    45    40   am
    17    53    56    1
    18    56    57    1
    19    24    22   ar
    20    24    25   ar
    21    59    57   ar
    22    22    21   ar
    23    40    41    2
    24    40    39    1
    25    25    23   ar
    26    57    58   ar
    27    65    66    1
    28    21    23   ar
    29    21    20    1
    30    39    38    1
    31    39    42    1
    32    66    67    1
    33    66    69    1
    34    20    17    1
    35    43    42    1
    36    67    68    2
    37    72    70    1
    38    42    44    1
    39    70    69    1
    40    70    71    1
    41    17    18    1
    42    17    16    1
    43    19    18    2
    44    12    11    2
    45    36    35    2
    46    16    11   am
    47    11    10    1
    48    13    14    1
    49    13    10    1
    50    35    34    1
    51    14    15    1
    52    10     9    1
    53    34    37    1
    54    34    33    1
    55    15     9    1
    56     9     3   am
    57     4     3    2
    58     3     2    1
    59     5     2    1
    60     5     6    1
    61     2     1    1
    62     7     6    1
    63     6     8    1
    64    32    30    1
    65    30    31    1
    66    30    27    1
    67    26    27    1
    68    27    28    1
    69    28    29    2
