@<TRIPOS>MOLECULE
tmp/3g7fC03.pdb
 135 130 0 0 0
SMALL
GASTEIGER

@<TRIPOS>ATOM
      1  N        125.3810   65.1980    4.2590 N.3   186  ALA186     -0.1245
      2  CA       125.7590   66.2720    3.3480 C.3   186  ALA186      0.1562
      3  C        126.1580   67.5730    4.0870 C.2   186  ALA186      0.2260
      4  O        127.1030   68.2570    3.6580 O.2   186  ALA186     -0.2867
      5  CB       124.6530   66.5240    2.3290 C.3   186  ALA186      0.0290
      6  N        129.7450   67.0060    5.1900 N.3   189  LEU189     -0.1231
      7  CA       130.6060   67.1620    4.0360 C.3   189  LEU189      0.1693
      8  C        130.7340   68.6330    3.6340 C.2   189  LEU189      0.2592
      9  O        131.8450   69.1140    3.4110 O.2   189  LEU189     -0.2718
     10  CB       130.0900   66.3320    2.8640 C.3   189  LEU189      0.0284
     11  CG       130.1730   64.7930    2.9770 C.3   189  LEU189      0.0019
     12  CD1      129.5600   64.1040    1.7320 C.3   189  LEU189      0.0001
     13  CD2      131.6200   64.3010    3.2160 C.3   189  LEU189      0.0001
     14  N        129.6120   69.3580    3.5510 N.am  190  HIS190     -0.1976
     15  CA       129.6810   70.7510    3.1040 C.3   190  HIS190      0.1656
     16  C        130.4850   71.6180    4.0910 C.2   190  HIS190      0.2291
     17  O        131.3840   72.3840    3.6840 O.2   190  HIS190     -0.2864
     18  CB       128.2820   71.3200    2.8450 C.3   190  HIS190      0.0771
     19  CG       128.2690   72.7940    2.6100 C.ar  190  HIS190      0.0820
     20  ND1      128.9910   73.3890    1.5990 N.ar  190  HIS190     -0.2267
     21  CD2      127.6330   73.8040    3.2640 C.ar  190  HIS190      0.1154
     22  CE1      128.8050   74.7010    1.6380 C.ar  190  HIS190      0.1986
     23  NE2      127.9830   74.9810    2.6370 N.ar  190  HIS190     -0.2212
     24  N        134.1290   70.5770    3.9760 N.3   193  LEU193     -0.1231
     25  CA       134.8310   70.9510    2.7560 C.3   193  LEU193      0.1693
     26  C        135.2650   72.3870    2.8720 C.2   193  LEU193      0.2591
     27  O        136.4480   72.6900    2.7130 O.2   193  LEU193     -0.2718
     28  CB       133.9980   70.7470    1.4850 C.3   193  LEU193      0.0284
     29  CG       134.7700   71.0600    0.1800 C.3   193  LEU193      0.0019
     30  CD1      136.0560   70.1590   -0.0300 C.3   193  LEU193      0.0001
     31  CD2      133.8340   70.9610   -1.0460 C.3   193  LEU193      0.0001
     32  N        134.3130   73.2590    3.1920 N.am  194  ILE194     -0.1980
     33  CA       134.5900   74.6790    3.3530 C.3   194  ILE194      0.1595
     34  C        135.6710   74.9290    4.3980 C.2   194  ILE194      0.2287
     35  O        136.5920   75.7000    4.1620 O.2   194  ILE194     -0.2864
     36  CB       133.2920   75.4700    3.6870 C.3   194  ILE194      0.0276
     37  CG1      132.3000   75.3870    2.5120 C.3   194  ILE194      0.0022
     38  CG2      133.6000   76.9230    4.0410 C.3   194  ILE194      0.0022
     39  CD1      132.7350   76.1640    1.2600 C.3   194  ILE194      0.0001
     40  N        138.1640   73.0030   -4.2480 N.3   212  GLU212     -0.1231
     41  CA       136.8860   72.5110   -3.7390 C.3   212  GLU212      0.1699
     42  C        136.3270   71.4700   -4.6820 C.2   212  GLU212      0.2592
     43  O        135.9110   70.3960   -4.2300 O.2   212  GLU212     -0.2718
     44  CB       135.8550   73.6320   -3.6480 C.3   212  GLU212      0.0402
     45  CG       135.6510   74.3470   -2.3190 C.3   212  GLU212      0.1161
     46  CD       134.5630   75.4500   -2.4190 C.2   212  GLU212      0.3649
     47  OE1      134.0760   75.7780   -3.5330 O.co2 212  GLU212     -0.2457
     48  OE2      134.1900   76.0280   -1.3940 O.co2 212  GLU212     -0.2457
     49  N        136.2890   71.7920   -5.9830 N.am  213  ASN213     -0.1974
     50  CA       135.6760   70.8960   -6.9690 C.3   213  ASN213      0.1688
     51  C        136.5720   69.7150   -7.2160 C.2   213  ASN213      0.2292
     52  O        136.0870   68.5900   -7.4380 O.2   213  ASN213     -0.2864
     53  CB       135.3640   71.5910   -8.3050 C.3   213  ASN213      0.1181
     54  CG       134.1940   72.5550   -8.2100 C.2   213  ASN213      0.2629
     55  OD1      133.0720   72.1810   -7.8340 O.2   213  ASN213     -0.2716
     56  ND2      134.4460   73.8040   -8.5660 N.am  213  ASN213     -0.0877
     57  N        136.0090   66.5770   -4.5260 N.3   216  PHE216     -0.1241
     58  CA       134.9470   65.5810   -4.7180 C.3   216  PHE216      0.1605
     59  C        135.0200   64.9060   -6.0720 C.2   216  PHE216      0.2264
     60  O        134.6090   63.7420   -6.2040 O.2   216  PHE216     -0.2867
     61  CB       133.5490   66.1530   -4.4780 C.3   216  PHE216      0.0534
     62  CG       133.1980   66.2450   -3.0380 C.ar  216  PHE216     -0.0203
     63  CD1      132.9670   65.0930   -2.2930 C.ar  216  PHE216     -0.0042
     64  CD2      133.1500   67.4830   -2.3970 C.ar  216  PHE216     -0.0042
     65  CE1      132.6630   65.1820   -0.9240 C.ar  216  PHE216     -0.0003
     66  CE2      132.8440   67.5740   -1.0580 C.ar  216  PHE216     -0.0003
     67  CZ       132.6030   66.4240   -0.3150 C.ar  216  PHE216     -0.0000
     68  N        134.6950   61.0390   -5.5160 N.3   220  VAL220     -0.1245
     69  CA       133.4950   60.3210   -5.9760 C.3   220  VAL220      0.1561
     70  C        133.2100   60.4760   -7.4570 C.2   220  VAL220      0.2260
     71  O        132.2310   59.9380   -7.9470 O.2   220  VAL220     -0.2867
     72  CB       132.2220   60.7100   -5.1610 C.3   220  VAL220      0.0252
     73  CG1      132.4070   60.3700   -3.6730 C.3   220  VAL220      0.0019
     74  CG2      131.8560   62.2070   -5.3700 C.3   220  VAL220      0.0019
     75  N        132.5250   63.2390   -9.1700 N.3   222  TYR222     -0.1227
     76  CA       131.5850   64.2940   -9.5310 C.3   222  TYR222      0.1736
     77  C        131.6570   65.3780   -8.4740 C.2   222  TYR222      0.2596
     78  O        131.9510   65.0850   -7.3110 O.2   222  TYR222     -0.2718
     79  CB       130.1500   63.7430   -9.6640 C.3   222  TYR222      0.0548
     80  CG       129.1850   64.8510   -9.9460 C.ar  222  TYR222     -0.0200
     81  CD1      129.2910   65.6060  -11.1310 C.ar  222  TYR222     -0.0009
     82  CD2      128.2000   65.1980   -9.0230 C.ar  222  TYR222     -0.0009
     83  CE1      128.4380   66.6530  -11.3970 C.ar  222  TYR222      0.0417
     84  CE2      127.3240   66.2680   -9.2830 C.ar  222  TYR222      0.0417
     85  CZ       127.4550   66.9860  -10.4640 C.ar  222  TYR222      0.1957
     86  OH       126.5960   68.0350  -10.7320 O.3   222  TYR222     -0.2866
     87  N        131.4080   66.6220   -8.8720 N.am  223  SER223     -0.1938
     88  CA       131.3090   67.7180   -7.9200 C.3   223  SER223      0.2055
     89  C        130.1150   68.6000   -8.2760 C.2   223  SER223      0.2643
     90  O        130.0220   69.1190   -9.3910 O.2   223  SER223     -0.2714
     91  CB       132.5900   68.5320   -7.9190 C.3   223  SER223      0.2130
     92  OG       132.4660   69.7310   -7.1730 O.3   223  SER223     -0.2179
     93  N        129.1920   68.7790   -7.3370 N.am  224  ILE224     -0.1963
     94  CA       127.9940   69.5500   -7.6590 C.3   224  ILE224      0.1727
     95  C        128.2390   71.0520   -7.8220 C.2   224  ILE224      0.2617
     96  O        127.4910   71.7060   -8.5390 O.2   224  ILE224     -0.2715
     97  CB       126.8310   69.2690   -6.6750 C.3   224  ILE224      0.0290
     98  CG1      125.4840   69.4860   -7.3780 C.3   224  ILE224      0.0022
     99  CG2      127.0070   70.0820   -5.3410 C.3   224  ILE224      0.0023
    100  CD1      124.2960   69.1140   -6.5280 C.3   224  ILE224      0.0001
    101  N        129.2630   71.5960   -7.1560 N.am  225  GLY225     -0.1940
    102  CA       129.5640   73.0320   -7.2470 C.3   225  GLY225      0.2014
    103  C        129.0070   73.8660   -6.0960 C.2   225  GLY225      0.2638
    104  O        128.0260   73.4780   -5.4270 O.2   225  GLY225     -0.2714
    105  N        129.6060   75.0400   -5.9010 N.am  226  ALA226     -0.1977
    106  CA       129.3770   75.8820   -4.7340 C.3   226  ALA226      0.1597
    107  C        127.9430   76.3910   -4.5460 C.2   226  ALA226      0.2287
    108  O        127.4140   76.3420   -3.4400 O.2   226  ALA226     -0.2864
    109  CB       130.3730   77.0400   -4.7270 C.3   226  ALA226      0.0319
    110  N        125.3020   73.1920   -4.1190 N.3   229  ILE229     -0.1231
    111  CA       125.2610   72.4080   -2.8790 C.3   229  ILE229      0.1692
    112  C        124.2980   73.0600   -1.8950 C.2   229  ILE229      0.2592
    113  O        123.6390   72.3850   -1.1130 O.2   229  ILE229     -0.2718
    114  CB       126.6850   72.1490   -2.2600 C.3   229  ILE229      0.0266
    115  CG1      126.6090   71.1820   -1.0680 C.3   229  ILE229      0.0019
    116  CG2      127.3990   73.4360   -1.8970 C.3   229  ILE229      0.0020
    117  CD1      125.9620   69.8850   -1.4060 C.3   229  ILE229      0.0001
    118  N        124.1840   74.3810   -1.9770 N.am  230  HIS230     -0.1976
    119  CA       123.2490   75.0920   -1.1240 C.3   230  HIS230      0.1656
    120  C        121.8030   74.7840   -1.5750 C.2   230  HIS230      0.2291
    121  O        120.9470   74.4940   -0.7490 O.2   230  HIS230     -0.2864
    122  CB       123.6260   76.5810   -1.0200 C.3   230  HIS230      0.0771
    123  CG       124.9420   76.8170   -0.3310 C.ar  230  HIS230      0.0820
    124  ND1      126.1300   76.9220   -1.0190 N.ar  230  HIS230     -0.2267
    125  CD2      125.2640   76.9220    0.9890 C.ar  230  HIS230      0.1154
    126  CE1      127.1230   77.1130   -0.1600 C.ar  230  HIS230      0.1986
    127  NE2      126.6280   77.1170    1.0720 N.ar  230  HIS230     -0.2212
    128  N        120.8900   72.0540   -3.1390 N.3   232  LEU232     -0.1245
    129  CA       120.7290   70.6680   -2.8020 C.3   232  LEU232      0.1561
    130  C        120.4270   70.4920   -1.3040 C.2   232  LEU232      0.2260
    131  O        119.5100   69.7450   -0.9220 O.2   232  LEU232     -0.2867
    132  CB       121.9850   69.8810   -3.1920 C.3   232  LEU232      0.0270
    133  CG       121.8750   68.3840   -2.8730 C.3   232  LEU232      0.0019
    134  CD1      120.7410   67.6960   -3.6600 C.3   232  LEU232      0.0001
    135  CD2      123.1920   67.6440   -3.0560 C.3   232  LEU232      0.0001
@<TRIPOS>BOND
     1    83    81   ar
     2    83    85   ar
     3    81    80   ar
     4    86    85    1
     5    85    84   ar
     6    80    79    1
     7    80    82   ar
     8    79    76    1
     9    76    75    1
    10    76    77    1
    11    90    89    2
    12    84    82   ar
    13    87    77   am
    14    87    88    1
    15    56    54   am
    16    96    95    2
    17    77    78    2
    18    53    54    1
    19    53    50    1
    20    89    88    1
    21    89    93   am
    22    54    55    2
    23    71    70    2
    24    88    91    1
    25    91    92    1
    26    95    94    1
    27    95   101   am
    28    94    93    1
    29    94    97    1
    30    70    69    1
    31    52    51    2
    32    98    97    1
    33    98   100    1
    34   102   101    1
    35   102   103    1
    36    51    50    1
    37    50    49    1
    38    97    99    1
    39    60    59    2
    40   103   105   am
    41   103   104    2
    42    59    58    1
    43    49    42   am
    44    69    68    1
    45    69    72    1
    46   105   106    1
    47    74    72    1
    48    72    73    1
    49   106   109    1
    50   106   107    1
    51    58    57    1
    52    58    61    1
    53    42    43    2
    54    42    41    1
    55   107   108    2
    56    61    62    1
    57    40    41    1
    58   110   111    1
    59    41    44    1
    60   134   133    1
    61    44    45    1
    62    47    46   ar
    63   132   133    1
    64   132   129    1
    65   128   129    1
    66   135   133    1
    67    62    64   ar
    68    62    63   ar
    69   111   114    1
    70   111   112    1
    71   129   130    1
    72    46    45    1
    73    46    48   ar
    74    64    66   ar
    75    63    65   ar
    76   114   116    1
    77   114   115    1
    78   118   112   am
    79   118   119    1
    80   112   113    2
    81   120   119    1
    82   120   121    2
    83   117   115    1
    84   130   131    2
    85   119   122    1
    86    66    67   ar
    87    31    29    1
    88   122   123    1
    89   124   123   ar
    90   124   126   ar
    91    65    67   ar
    92   123   125   ar
    93   126   127   ar
    94    30    29    1
    95    29    28    1
    96   125   127   ar
    97    39    37    1
    98    28    25    1
    99    20    22   ar
   100    20    19   ar
   101    22    23   ar
   102    12    11    1
   103     5     2    1
   104    37    36    1
   105    19    18    1
   106    19    21   ar
   107    23    21   ar
   108    27    26    2
   109    25    26    1
   110    25    24    1
   111    18    15    1
   112    10    11    1
   113    10     7    1
   114    26    32   am
   115    11    13    1
   116    15    14    1
   117    15    16    1
   118    32    33    1
   119     2     3    1
   120     2     1    1
   121    33    36    1
   122    33    34    1
   123     9     8    2
   124    14     8   am
   125     8     7    1
   126     4     3    2
   127    17    16    2
   128    36    38    1
   129     7     6    1
   130    35    34    2
