@<TRIPOS>MOLECULE
tmp/3g7fC04.pdb
 111 108 0 0 0
SMALL
GASTEIGER

@<TRIPOS>ATOM
      1  N        114.2000   96.3310   18.8310 N.3    26  VAL26      -0.1245
      2  CA       114.4880   96.2950   20.2690 C.3    26  VAL26       0.1561
      3  C        115.7780   95.5070   20.4960 C.2    26  VAL26       0.2260
      4  O        115.8070   94.2820   20.3580 O.2    26  VAL26      -0.2867
      5  CB       113.3740   95.6470   21.0790 C.3    26  VAL26       0.0252
      6  CG1      113.7920   95.5960   22.5690 C.3    26  VAL26       0.0019
      7  CG2      112.0190   96.4150   20.9010 C.3    26  VAL26       0.0019
      8  N        116.8110   92.7860   17.8520 N.3    29  TYR29      -0.1227
      9  CA       115.5780   92.2610   17.2540 C.3    29  TYR29       0.1736
     10  C        114.7590   93.2600   16.4390 C.2    29  TYR29       0.2595
     11  O        114.2950   94.2810   16.9790 O.2    29  TYR29      -0.2718
     12  CB       114.6240   91.7600   18.3340 C.3    29  TYR29       0.0548
     13  CG       115.1820   90.6920   19.2310 C.ar   29  TYR29      -0.0200
     14  CD1      115.3380   89.3780   18.7730 C.ar   29  TYR29      -0.0009
     15  CD2      115.5420   90.9880   20.5510 C.ar   29  TYR29      -0.0009
     16  CE1      115.8520   88.3960   19.6000 C.ar   29  TYR29       0.0417
     17  CE2      116.0670   90.0100   21.3900 C.ar   29  TYR29       0.0417
     18  CZ       116.2120   88.7200   20.9140 C.ar   29  TYR29       0.1957
     19  OH       116.7140   87.7340   21.7500 O.3    29  TYR29      -0.2866
     20  N        114.4880   92.9320   15.1750 N.am   30  PHE30      -0.1962
     21  CA       113.4830   93.6860   14.4410 C.3    30  PHE30       0.1771
     22  C        112.1130   93.3570   15.0130 C.2    30  PHE30       0.2619
     23  O        111.8450   92.2070   15.4100 O.2    30  PHE30      -0.2715
     24  CB       113.5030   93.3670   12.9460 C.3    30  PHE30       0.0574
     25  CG       112.4300   94.0770   12.1650 C.ar   30  PHE30      -0.0200
     26  CD1      112.4910   95.4650   11.9560 C.ar   30  PHE30      -0.0042
     27  CD2      111.3470   93.3730   11.6450 C.ar   30  PHE30      -0.0042
     28  CE1      111.4910   96.1280   11.2230 C.ar   30  PHE30      -0.0003
     29  CE2      110.3460   94.0320   10.9210 C.ar   30  PHE30      -0.0003
     30  CZ       110.4160   95.4100   10.7140 C.ar   30  PHE30      -0.0000
     31  N        111.2360   94.3540   15.0360 N.am   31  VAL31      -0.1977
     32  CA       109.9260   94.1340   15.5730 C.3    31  VAL31       0.1596
     33  C        108.9390   93.8650   14.4390 C.2    31  VAL31       0.2287
     34  O        108.7250   92.7140   14.0730 O.2    31  VAL31      -0.2864
     35  CB       109.4970   95.2810   16.5600 C.3    31  VAL31       0.0276
     36  CG1      108.1300   95.0030   17.1600 C.3    31  VAL31       0.0022
     37  CG2      110.5230   95.4120   17.6740 C.3    31  VAL31       0.0022
     38  N        106.2790   90.7720   14.6780 N.3    35  GLY35      -0.1225
     39  CA       107.0260   90.6420   15.9210 C.3    35  GLY35       0.1811
     40  C        106.0320   90.7990   17.0510 C.2    35  GLY35       0.2280
     41  O        106.0030   90.0040   17.9770 O.2    35  GLY35      -0.2866
     42  N        103.7810   87.8000   17.1730 N.3    38  ALA38      -0.1231
     43  CA       104.5990   86.6840   17.7080 C.3    38  ALA38       0.1694
     44  C        104.6660   86.7390   19.2280 C.2    38  ALA38       0.2591
     45  O        104.3310   85.7590   19.8980 O.2    38  ALA38      -0.2718
     46  CB       106.0110   86.6630   17.1200 C.3    38  ALA38       0.0304
     47  N        105.0830   87.8930   19.7560 N.am   39  ILE39      -0.1980
     48  CA       105.2240   88.0910   21.1860 C.3    39  ILE39       0.1595
     49  C        103.8890   87.7820   21.8710 C.2    39  ILE39       0.2287
     50  O        103.8480   87.1250   22.9040 O.2    39  ILE39      -0.2864
     51  CB       105.6900   89.5410   21.5440 C.3    39  ILE39       0.0276
     52  CG1      106.9970   89.9060   20.8210 C.3    39  ILE39       0.0022
     53  CG2      105.7910   89.7310   23.0910 C.3    39  ILE39       0.0022
     54  CD1      108.2320   89.0240   21.1630 C.3    39  ILE39       0.0001
     55  N        103.1190   84.0290   21.7880 N.3    42  ILE42      -0.1231
     56  CA       104.0890   83.3550   22.6430 C.3    42  ILE42       0.1692
     57  C        103.7150   83.5330   24.1130 C.2    42  ILE42       0.2592
     58  O        103.6200   82.5620   24.8630 O.2    42  ILE42      -0.2718
     59  CB       105.5210   83.8670   22.4070 C.3    42  ILE42       0.0266
     60  CG1      106.0040   83.4620   21.0090 C.3    42  ILE42       0.0019
     61  CG2      106.4450   83.3340   23.4830 C.3    42  ILE42       0.0020
     62  CD1      107.2560   84.1870   20.5250 C.3    42  ILE42       0.0001
     63  N        103.4970   84.7790   24.5060 N.am   43  PHE43      -0.1976
     64  CA       103.1350   85.0900   25.8630 C.3    43  PHE43       0.1639
     65  C        101.8850   84.2880   26.2700 C.2    43  PHE43       0.2290
     66  O        101.8690   83.6350   27.3220 O.2    43  PHE43      -0.2864
     67  CB       102.9100   86.6060   26.0370 C.3    43  PHE43       0.0560
     68  CG       102.4450   86.9690   27.4040 C.ar   43  PHE43      -0.0200
     69  CD1      103.3650   87.0910   28.4550 C.ar   43  PHE43      -0.0042
     70  CD2      101.0820   87.1300   27.6730 C.ar   43  PHE43      -0.0042
     71  CE1      102.9360   87.3960   29.7660 C.ar   43  PHE43      -0.0003
     72  CE2      100.6410   87.4360   28.9750 C.ar   43  PHE43      -0.0003
     73  CZ       101.5690   87.5690   30.0200 C.ar   43  PHE43      -0.0000
     74  N        102.7060   80.3030   26.3030 N.3    46  VAL46      -0.1231
     75  CA       103.5200   79.9490   27.4580 C.3    46  VAL46       0.1692
     76  C        102.7610   80.1040   28.8060 C.2    46  VAL46       0.2592
     77  O        102.8840   79.2550   29.7190 O.2    46  VAL46      -0.2718
     78  CB       104.8360   80.7330   27.4600 C.3    46  VAL46       0.0266
     79  CG1      105.5860   80.5500   28.7820 C.3    46  VAL46       0.0020
     80  CG2      105.6870   80.2860   26.2820 C.3    46  VAL46       0.0020
     81  N        101.9870   81.1820   28.9140 N.am   47  SER47      -0.1952
     82  CA       101.1190   81.3940   30.0660 C.3    47  SER47       0.1924
     83  C        100.1100   80.2530   30.2320 C.2    47  SER47       0.2314
     84  O         99.9120   79.7480   31.3420 O.2    47  SER47      -0.2863
     85  CB       100.3870   82.7370   29.9480 C.3    47  SER47       0.2116
     86  OG       101.3180   83.8040   30.0390 O.3    47  SER47      -0.2180
     87  N        106.1670   84.3890   12.9830 N.3   100  TRP100     -0.1241
     88  CA       107.6090   84.2830   12.8970 C.3   100  TRP100      0.1605
     89  C        108.0540   84.2300   11.4400 C.2   100  TRP100      0.2264
     90  O        108.9800   84.9300   11.0440 O.2   100  TRP100     -0.2867
     91  CB       108.0850   83.0300   13.6310 C.3   100  TRP100      0.0550
     92  CG       109.5130   83.0630   13.9310 C.ar  100  TRP100      0.0003
     93  CD1      110.5050   82.3990   13.2780 C.ar  100  TRP100      0.0946
     94  CD2      110.1470   83.8330   14.9580 C.ar  100  TRP100      0.0152
     95  NE1      111.7320   82.6870   13.8570 N.ar  100  TRP100     -0.2442
     96  CE2      111.5350   83.5600   14.8910 C.ar  100  TRP100      0.0810
     97  CE3      109.6720   84.7100   15.9490 C.ar  100  TRP100      0.0012
     98  CZ2      112.4460   84.1410   15.7520 C.ar  100  TRP100      0.0191
     99  CZ3      110.5780   85.2890   16.8010 C.ar  100  TRP100      0.0001
    100  CH2      111.9590   85.0030   16.7010 C.ar  100  TRP100      0.0015
    101  N        107.3150   87.6710    9.7200 N.3   103  ARG103     -0.1245
    102  CA       108.3570   88.5930   10.1670 C.3   103  ARG103      0.1563
    103  C        109.6800   88.3650    9.4190 C.2   103  ARG103      0.2260
    104  O        110.3890   89.3180    9.1060 O.2   103  ARG103     -0.2867
    105  CB       108.5660   88.4430   11.6750 C.3   103  ARG103      0.0307
    106  CG       109.6430   89.3150   12.2560 C.3   103  ARG103      0.0489
    107  CD       109.5670   89.2190   13.7790 C.3   103  ARG103      0.2205
    108  NE       110.7160   89.7820   14.4850 N.pl3 103  ARG103     -0.0865
    109  CZ       111.7270   89.0310   14.9100 C.cat 103  ARG103      0.5346
    110  NH1      111.7010   87.7190   14.6600 N.pl3 103  ARG103      0.1354
    111  NH2      112.7460   89.5620   15.5920 N.pl3 103  ARG103      0.1354
@<TRIPOS>BOND
     1   104   103    2
     2   103   102    1
     3   101   102    1
     4   102   105    1
     5    30    29   ar
     6    30    28   ar
     7    29    27   ar
     8    90    89    2
     9    28    26   ar
    10    89    88    1
    11    27    25   ar
    12   105   106    1
    13    26    25   ar
    14    25    24    1
    15   106   107    1
    16    88    87    1
    17    88    91    1
    18    24    21    1
    19    93    95   ar
    20    93    92   ar
    21    91    92    1
    22   107   108    1
    23    95    96   ar
    24    92    94   ar
    25    34    33    2
    26    33    32    1
    27    21    22    1
    28    21    20    1
    29   108   109    2
    30   110   109    1
    31    38    39    1
    32    96    94   ar
    33    96    98   ar
    34   109   111    1
    35    94    97   ar
    36    22    31   am
    37    22    23    2
    38    31    32    1
    39    20    10   am
    40    32    35    1
    41    98   100   ar
    42    39    40    1
    43    97    99   ar
    44    10    11    2
    45    10     9    1
    46    35    36    1
    47    35    37    1
    48   100    99   ar
    49    40    41    2
    50    46    43    1
    51    42    43    1
    52     9     8    1
    53     9    12    1
    54    43    44    1
    55    12    13    1
    56    14    13   ar
    57    14    16   ar
    58     1     2    1
    59    44    47   am
    60    44    45    2
    61    13    15   ar
    62    16    18   ar
    63    47    48    1
    64     2     3    1
    65     2     5    1
    66     4     3    2
    67    62    60    1
    68    15    17   ar
    69    52    54    1
    70    52    51    1
    71     7     5    1
    72    18    17   ar
    73    18    19    1
    74    60    59    1
    75     5     6    1
    76    48    51    1
    77    48    49    1
    78    51    53    1
    79    55    56    1
    80    49    50    2
    81    59    56    1
    82    59    61    1
    83    56    57    1
    84    57    63   am
    85    57    58    2
    86    63    64    1
    87    64    67    1
    88    64    65    1
    89    67    68    1
    90    65    66    2
    91    80    78    1
    92    74    75    1
    93    68    70   ar
    94    68    69   ar
    95    75    78    1
    96    75    76    1
    97    78    79    1
    98    70    72   ar
    99    69    71   ar
   100    76    81   am
   101    76    77    2
   102    81    82    1
   103    72    73   ar
   104    71    73   ar
   105    85    86    1
   106    85    82    1
   107    82    83    1
   108    83    84    2
