@<TRIPOS>MOLECULE
tmp/3g7lA00.pdb
 180 182 0 0 0
SMALL
GASTEIGER

@<TRIPOS>ATOM
      1  N        -10.9440  -13.5920  -19.2710 N.3     1  ALA1       -0.1231
      2  CA       -12.1420  -13.9040  -18.4920 C.3     1  ALA1        0.1694
      3  C        -11.8090  -14.2220  -17.0240 C.2     1  ALA1        0.2592
      4  O        -11.9160  -13.3540  -16.1500 O.2     1  ALA1       -0.2718
      5  CB       -12.8980  -15.0660  -19.1340 C.3     1  ALA1        0.0304
      6  N        -11.4230  -15.4680  -16.7510 N.am    2  ASP2       -0.1960
      7  CA       -10.9430  -15.8490  -15.4180 C.3     2  ASP2        0.1840
      8  C         -9.4560  -15.5200  -15.2690 C.2     2  ASP2        0.2622
      9  O         -8.7290  -16.2180  -14.5730 O.2     2  ASP2       -0.2715
     10  CB       -11.1700  -17.3460  -15.1590 C.3     2  ASP2        0.1450
     11  CG       -12.4790  -17.6300  -14.4160 C.2     2  ASP2        0.3671
     12  OD1      -12.9930  -16.7340  -13.7080 O.co2   2  ASP2       -0.2456
     13  OD2      -12.9880  -18.7660  -14.5320 O.co2   2  ASP2       -0.2456
     14  N         -9.0110  -14.4530  -15.9280 N.am    3  VAL3       -0.1963
     15  CA        -7.5970  -14.1140  -15.9840 C.3     3  VAL3        0.1727
     16  C         -7.3500  -12.8460  -15.1830 C.2     3  VAL3        0.2616
     17  O         -8.0210  -11.8450  -15.3930 O.2     3  VAL3       -0.2715
     18  CB        -7.1120  -13.9560  -17.4710 C.3     3  VAL3        0.0290
     19  CG1       -5.8530  -13.0770  -17.5790 C.3     3  VAL3        0.0023
     20  CG2       -6.8600  -15.3310  -18.0940 C.3     3  VAL3        0.0023
     21  N         -6.3880  -12.8860  -14.2620 N.am    4  TYR4       -0.1960
     22  CA        -6.1390  -11.7320  -13.4010 C.3     4  TYR4        0.1771
     23  C         -4.6610  -11.3770  -13.3410 C.2     4  TYR4        0.2619
     24  O         -3.7980  -12.1680  -13.7490 O.2     4  TYR4       -0.2715
     25  CB        -6.6470  -12.0140  -11.9870 C.3     4  TYR4        0.0574
     26  CG        -8.1180  -12.3590  -11.9120 C.ar    4  TYR4       -0.0198
     27  CD1       -9.0720  -11.4010  -11.5510 C.ar    4  TYR4       -0.0009
     28  CD2       -8.5590  -13.6510  -12.1840 C.ar    4  TYR4       -0.0009
     29  CE1      -10.4250  -11.7280  -11.4810 C.ar    4  TYR4        0.0417
     30  CE2       -9.9010  -13.9870  -12.1100 C.ar    4  TYR4        0.0417
     31  CZ       -10.8320  -13.0300  -11.7630 C.ar    4  TYR4        0.1957
     32  OH       -12.1680  -13.3990  -11.7100 O.3     4  TYR4       -0.2866
     33  N         -4.3780  -10.1810  -12.8260 N.am    5  GLU5       -0.1963
     34  CA        -3.0100   -9.7250  -12.6600 C.3     5  GLU5        0.1733
     35  C         -2.3620  -10.4570  -11.4840 C.2     5  GLU5        0.2616
     36  O         -2.9550  -10.5780  -10.4070 O.2     5  GLU5       -0.2715
     37  CB        -2.9970   -8.2230  -12.4090 C.3     5  GLU5        0.0429
     38  CG        -1.6180   -7.5780  -12.4780 C.3     5  GLU5        0.1163
     39  CD        -1.6730   -6.0500  -12.3670 C.2     5  GLU5        0.3649
     40  OE1       -2.7900   -5.4720  -12.4120 O.co2   5  GLU5       -0.2457
     41  OE2       -0.5990   -5.4200  -12.2370 O.co2   5  GLU5       -0.2457
     42  N         -1.1590  -10.9650  -11.7250 N.am    6  VAL6       -0.1977
     43  CA        -0.2970  -11.5350  -10.7010 C.3     6  VAL6        0.1596
     44  C          0.5310  -10.4430  -10.0140 C.2     6  VAL6        0.2287
     45  O          1.2700   -9.7140  -10.6720 O.2     6  VAL6       -0.2864
     46  CB         0.6680  -12.5650  -11.3410 C.3     6  VAL6        0.0276
     47  CG1        1.7890  -12.9480  -10.3790 C.3     6  VAL6        0.0022
     48  CG2       -0.1070  -13.8040  -11.8390 C.3     6  VAL6        0.0022
     49  N         -2.5390  -12.2490   -5.7920 N.3    26  TRP26      -0.1241
     50  CA        -3.2260  -11.5930   -6.8950 C.3    26  TRP26       0.1605
     51  C         -3.3050  -10.0780   -6.6400 C.2    26  TRP26       0.2264
     52  O         -3.8340   -9.6480   -5.6190 O.2    26  TRP26      -0.2867
     53  CB        -4.6270  -12.2040   -7.0490 C.3    26  TRP26       0.0550
     54  CG        -4.6120  -13.6870   -7.4360 C.ar   26  TRP26       0.0003
     55  CD1       -4.8750  -14.7540   -6.6210 C.ar   26  TRP26       0.0946
     56  CD2       -4.3220  -14.2460   -8.7470 C.ar   26  TRP26       0.0152
     57  NE1       -4.7790  -15.9390   -7.3390 N.ar   26  TRP26      -0.2442
     58  CE2       -4.4350  -15.6520   -8.6400 C.ar   26  TRP26       0.0810
     59  CE3       -3.9750  -13.6870   -9.9920 C.ar   26  TRP26       0.0012
     60  CZ2       -4.2000  -16.5170   -9.7300 C.ar   26  TRP26       0.0191
     61  CZ3       -3.7540  -14.5520  -11.0910 C.ar   26  TRP26       0.0001
     62  CH2       -3.8690  -15.9460  -10.9490 C.ar   26  TRP26       0.0015
     63  N         -6.0740   -8.1510   -4.4400 N.3    29  TYR29      -0.1241
     64  CA        -6.8480   -9.1110   -3.6700 C.3    29  TYR29       0.1605
     65  C         -6.0520   -9.4120   -2.4000 C.2    29  TYR29       0.2264
     66  O         -4.8190   -9.3360   -2.4090 O.2    29  TYR29      -0.2867
     67  CB        -7.1020  -10.3790   -4.4940 C.3    29  TYR29       0.0534
     68  CG        -8.1190  -10.1600   -5.5970 C.ar   29  TYR29      -0.0201
     69  CD1       -9.4670  -10.4440   -5.3920 C.ar   29  TYR29      -0.0009
     70  CD2       -7.7370   -9.6370   -6.8290 C.ar   29  TYR29      -0.0009
     71  CE1      -10.4050  -10.2250   -6.3920 C.ar   29  TYR29       0.0417
     72  CE2       -8.6630   -9.4150   -7.8350 C.ar   29  TYR29       0.0417
     73  CZ        -9.9950   -9.7090   -7.6120 C.ar   29  TYR29       0.1957
     74  OH       -10.9240   -9.4870   -8.6030 O.3    29  TYR29      -0.2866
     75  N         -7.1370  -14.6600   -0.5860 N.3    33  ASP33      -0.1239
     76  CA        -7.4970  -14.9880   -1.9740 C.3    33  ASP33       0.1674
     77  C         -6.3790  -15.7100   -2.7390 C.2    33  ASP33       0.2266
     78  O         -6.5470  -16.0520   -3.9050 O.2    33  ASP33      -0.2867
     79  CB        -7.8540  -13.7130   -2.7320 C.3    33  ASP33       0.1410
     80  CG        -9.0760  -13.0490   -2.1850 C.2    33  ASP33       0.3668
     81  OD1       -9.6380  -13.5840   -1.2130 O.co2  33  ASP33      -0.2456
     82  OD2       -9.4740  -12.0050   -2.7270 O.co2  33  ASP33      -0.2456
     83  N         -3.9460  -18.3610   -4.2520 N.3    35  THR35      -0.1203
     84  CA        -4.2760  -19.6770   -4.7830 C.3    35  THR35       0.1994
     85  C         -3.0220  -20.3490   -5.3120 C.2    35  THR35       0.2618
     86  O         -2.0710  -19.6770   -5.7000 O.2    35  THR35      -0.2717
     87  CB        -5.4040  -19.6120   -5.8860 C.3    35  THR35       0.1784
     88  OG1       -5.0130  -18.7850   -7.0020 O.3    35  THR35      -0.2211
     89  CG2       -6.7030  -19.0740   -5.2880 C.3    35  THR35       0.0376
     90  N         -3.0110  -21.6770   -5.2700 N.am   36  TRP36      -0.1961
     91  CA        -1.9930  -22.4640   -5.9580 C.3    36  TRP36       0.1771
     92  C         -2.4100  -22.6640   -7.4210 C.2    36  TRP36       0.2619
     93  O         -3.5160  -23.1400   -7.6830 O.2    36  TRP36      -0.2715
     94  CB        -1.8480  -23.8300   -5.2880 C.3    36  TRP36       0.0590
     95  CG        -1.2550  -23.7270   -3.9190 C.ar   36  TRP36       0.0006
     96  CD1       -1.9310  -23.6070   -2.7220 C.ar   36  TRP36       0.0946
     97  CD2        0.1460  -23.6940   -3.5960 C.ar   36  TRP36       0.0152
     98  NE1       -1.0310  -23.5160   -1.6840 N.ar   36  TRP36      -0.2442
     99  CE2        0.2440  -23.5570   -2.1860 C.ar   36  TRP36       0.0810
    100  CE3        1.3240  -23.7380   -4.3630 C.ar   36  TRP36       0.0012
    101  CZ2        1.4750  -23.4960   -1.5330 C.ar   36  TRP36       0.0191
    102  CZ3        2.5440  -23.6800   -3.7100 C.ar   36  TRP36       0.0001
    103  CH2        2.6070  -23.5750   -2.3030 C.ar   36  TRP36       0.0015
    104  N         -1.5410  -22.2990   -8.3650 N.am   37  GLU37      -0.1964
    105  CA        -1.8560  -22.4820   -9.7940 C.3    37  GLU37       0.1718
    106  C         -0.7960  -23.3330  -10.4420 C.2    37  GLU37       0.2458
    107  O          0.3930  -23.1540  -10.1600 O.2    37  GLU37      -0.2730
    108  CB        -1.9480  -21.1480  -10.5650 C.3    37  GLU37       0.0428
    109  CG        -2.9750  -20.1090  -10.0510 C.3    37  GLU37       0.1163
    110  CD        -4.3790  -20.6750   -9.9270 C.2    37  GLU37       0.3649
    111  OE1       -4.6270  -21.7390  -10.5340 O.co2  37  GLU37      -0.2457
    112  OE2       -5.2310  -20.0730   -9.2170 O.co2  37  GLU37      -0.2457
    113  N         -1.2180  -24.2450  -11.3390 N.am   38  PRO38      -0.2727
    114  CA        -0.2520  -25.0280  -12.1190 C.3    38  PRO38       0.1402
    115  C          0.5360  -24.1120  -13.0330 C.2    38  PRO38       0.2269
    116  O          0.0540  -23.0410  -13.4050 O.2    38  PRO38      -0.2865
    117  CB        -1.1430  -25.9730  -12.9400 C.3    38  PRO38       0.0296
    118  CG        -2.4550  -25.2330  -13.0960 C.3    38  PRO38       0.0237
    119  CD        -2.6150  -24.5460  -11.7280 C.3    38  PRO38       0.0939
    120  N         -1.0020  -22.0820  -16.0130 N.3    41  ASN41      -0.1225
    121  CA        -1.8610  -20.9270  -15.8010 C.3    41  ASN41       0.1785
    122  C         -1.0600  -19.6280  -15.7760 C.2    41  ASN41       0.2597
    123  O         -1.6340  -18.5390  -15.7350 O.2    41  ASN41      -0.2718
    124  CB        -2.6640  -21.0760  -14.5030 C.3    41  ASN41       0.1169
    125  CG        -3.8600  -21.9890  -14.6530 C.2    41  ASN41       0.2627
    126  OD1       -4.0350  -22.6420  -15.6900 O.2    41  ASN41      -0.2716
    127  ND2       -4.7020  -22.0360  -13.6220 N.am   41  ASN41      -0.0877
    128  N          0.2660  -19.7400  -15.7680 N.am   42  LEU42      -0.1966
    129  CA         1.1280  -18.5510  -15.6580 C.3    42  LEU42       0.1728
    130  C          1.6010  -18.0660  -17.0490 C.2    42  LEU42       0.2616
    131  O          2.6010  -17.3640  -17.1540 O.2    42  LEU42      -0.2715
    132  CB         2.3260  -18.8370  -14.7230 C.3    42  LEU42       0.0311
    133  CG         2.0750  -18.5620  -13.1940 C.3    42  LEU42       0.0022
    134  CD1        0.7680  -19.1950  -12.6680 C.3    42  LEU42       0.0001
    135  CD2        3.2500  -19.0250  -12.3350 C.3    42  LEU42       0.0001
    136  N          0.8440  -18.4220  -18.0950 N.am   43  PHE43      -0.1960
    137  CA         1.1380  -18.0130  -19.4680 C.3    43  PHE43       0.1771
    138  C          1.3290  -16.5050  -19.6190 C.2    43  PHE43       0.2620
    139  O          2.0940  -16.0490  -20.4590 O.2    43  PHE43      -0.2715
    140  CB         0.0180  -18.4790  -20.3990 C.3    43  PHE43       0.0574
    141  CG        -1.3320  -17.9130  -20.0510 C.ar   43  PHE43      -0.0200
    142  CD1       -2.2590  -18.6710  -19.3510 C.ar   43  PHE43      -0.0042
    143  CD2       -1.6740  -16.6240  -20.4190 C.ar   43  PHE43      -0.0042
    144  CE1       -3.4880  -18.1570  -19.0240 C.ar   43  PHE43      -0.0003
    145  CE2       -2.9180  -16.1090  -20.1060 C.ar   43  PHE43      -0.0003
    146  CZ        -3.8260  -16.8740  -19.4110 C.ar   43  PHE43      -0.0000
    147  N          0.6410  -15.7270  -18.7980 N.am   44  GLY44      -0.1940
    148  CA         0.7380  -14.2770  -18.8860 C.3    44  GLY44       0.2014
    149  C          1.7810  -13.6480  -17.9770 C.2    44  GLY44       0.2639
    150  O          1.9540  -12.4370  -17.9910 O.2    44  GLY44      -0.2714
    151  N          2.5050  -14.4800  -17.2290 N.am   45  ALA45      -0.1963
    152  CA         3.3350  -14.0230  -16.1170 C.3    45  ALA45       0.1728
    153  C          4.7750  -14.4890  -16.2620 C.2    45  ALA45       0.2616
    154  O          5.4130  -14.8770  -15.2660 O.2    45  ALA45      -0.2715
    155  CB         2.7580  -14.5470  -14.7820 C.3    45  ALA45       0.0334
    156  N          5.2740  -14.4340  -17.4940 N.am   46  GLU46      -0.1963
    157  CA         6.5860  -14.9640  -17.8650 C.3    46  GLU46       0.1733
    158  C          7.6980  -14.3490  -17.0120 C.2    46  GLU46       0.2616
    159  O          8.5320  -15.0550  -16.4490 O.2    46  GLU46      -0.2715
    160  CB         6.8410  -14.7090  -19.3740 C.3    46  GLU46       0.0429
    161  CG         7.8440  -15.6860  -20.0440 C.3    46  GLU46       0.1163
    162  CD         7.8990  -15.5980  -21.6140 C.2    46  GLU46       0.3649
    163  OE1        8.5880  -16.4410  -22.2420 O.co2  46  GLU46      -0.2457
    164  OE2        7.2580  -14.7040  -22.2210 O.co2  46  GLU46      -0.2457
    165  N          7.6930  -13.0310  -16.8840 N.am   47  LYS47      -0.1963
    166  CA         8.7660  -12.3500  -16.1760 C.3    47  LYS47       0.1728
    167  C          8.8390  -12.7180  -14.6750 C.2    47  LYS47       0.2616
    168  O          9.9160  -12.9760  -14.1630 O.2    47  LYS47      -0.2715
    169  CB         8.6180  -10.8390  -16.3540 C.3    47  LYS47       0.0311
    170  CG         9.8170  -10.0360  -15.9100 C.3    47  LYS47       0.0038
    171  CD         9.6680   -8.5700  -16.3060 C.3    47  LYS47       0.0206
    172  CE        10.7740   -7.7180  -15.7020 C.3    47  LYS47       0.1093
    173  NZ        10.5740   -6.2680  -15.9390 N.3    47  LYS47      -0.1314
    174  N          7.7150  -12.7300  -13.9620 N.am   48  VAL48      -0.1977
    175  CA         7.7600  -12.9770  -12.5170 C.3    48  VAL48       0.1596
    176  C          8.0890  -14.4500  -12.2450 C.2    48  VAL48       0.2287
    177  O          8.7700  -14.7860  -11.2590 O.2    48  VAL48      -0.2864
    178  CB         6.4460  -12.5490  -11.7610 C.3    48  VAL48       0.0276
    179  CG1        5.1950  -12.8100  -12.5880 C.3    48  VAL48       0.0022
    180  CG2        6.3480  -13.2690  -10.3980 C.3    48  VAL48       0.0022
@<TRIPOS>BOND
     1   163   162   ar
     2   164   162   ar
     3   162   161    1
     4   139   138    2
     5   143   145   ar
     6   143   141   ar
     7   140   141    1
     8   140   137    1
     9   145   146   ar
    10   141   142   ar
    11   161   160    1
    12   138   137    1
    13   138   147   am
    14   137   136    1
    15   146   144   ar
    16   160   157    1
    17   142   144   ar
    18     1     2    1
    19     5     2    1
    20   148   147    1
    21   148   149    1
    22     2     3    1
    23   136   130   am
    24    20    18    1
    25   150   149    2
    26   149   151   am
    27   157   156    1
    28   157   158    1
    29    19    18    1
    30   156   153   am
    31    18    15    1
    32   151   152    1
    33   131   130    2
    34   130   129    1
    35     3     6   am
    36     3     4    2
    37   158   165   am
    38   158   159    2
    39   165   166    1
    40     6     7    1
    41   169   166    1
    42   169   170    1
    43   171   170    1
    44   171   172    1
    45   153   152    1
    46   153   154    2
    47   166   167    1
    48   152   155    1
    49   120   121    1
    50    15    14    1
    51    15    16    1
    52   173   172    1
    53    14     8   am
    54   121   122    1
    55   121   124    1
    56   122   128   am
    57   122   123    2
    58   128   129    1
    59   126   125    2
    60   129   132    1
    61     7     8    1
    62     7    10    1
    63    17    16    2
    64     8     9    2
    65    16    21   am
    66    10    11    1
    67   132   133    1
    68   167   168    2
    69   167   174   am
    70   125   124    1
    71   125   127   am
    72    13    11   ar
    73    11    12   ar
    74    21    22    1
    75   174   175    1
    76    24    23    2
    77   116   115    2
    78    22    23    1
    79    22    25    1
    80    23    33   am
    81   133   134    1
    82   133   135    1
    83   118   117    1
    84   118   119    1
    85   115   114    1
    86   117   114    1
    87    33    34    1
    88    34    37    1
    89    34    35    1
    90   179   178    1
    91   175   176    1
    92   175   178    1
    93    38    37    1
    94    38    39    1
    95    40    39   ar
    96    39    41   ar
    97   176   177    2
    98    28    30   ar
    99    28    26   ar
   100   114   113    1
   101    30    31   ar
   102    25    26    1
   103    26    27   ar
   104    48    46    1
   105    31    32    1
   106    31    29   ar
   107   178   180    1
   108   119   113    1
   109    42    35   am
   110    42    43    1
   111    27    29   ar
   112    35    36    2
   113    46    43    1
   114    46    47    1
   115   113   106   am
   116    61    62   ar
   117    61    59   ar
   118    62    60   ar
   119    43    44    1
   120    45    44    2
   121   108   109    1
   122   108   105    1
   123   111   110   ar
   124   106   107    2
   125   106   105    1
   126   109   110    1
   127    59    56   ar
   128   110   112   ar
   129   105   104    1
   130    60    58   ar
   131    56    58   ar
   132    56    54   ar
   133    58    57   ar
   134    74    73    1
   135   104    92   am
   136    72    73   ar
   137    72    70   ar
   138    93    92    2
   139    73    71   ar
   140    54    53    1
   141    54    55   ar
   142    92    91    1
   143    57    55   ar
   144    53    50    1
   145    88    87    1
   146    50    51    1
   147    50    49    1
   148    70    68   ar
   149    51    52    2
   150    71    69   ar
   151    91    94    1
   152    91    90    1
   153    87    89    1
   154    87    84    1
   155    86    85    2
   156    68    69   ar
   157    68    67    1
   158    85    90   am
   159    85    84    1
   160    94    95    1
   161    84    83    1
   162    67    64    1
   163    63    64    1
   164   100   102   ar
   165   100    97   ar
   166    95    97   ar
   167    95    96   ar
   168    78    77    2
   169   102   103   ar
   170    64    65    1
   171    97    99   ar
   172    77    76    1
   173    79    80    1
   174    79    76    1
   175    82    80   ar
   176    96    98   ar
   177    66    65    2
   178   103   101   ar
   179    99    98   ar
   180    99   101   ar
   181    80    81   ar
   182    76    75    1
