@<TRIPOS>MOLECULE
tmp/3g86A00.pdb
 223 212 0 0 0
SMALL
GASTEIGER

@<TRIPOS>ATOM
      1  N        -23.6200   12.8070  -19.1890 N.3   153  ARG153     -0.1245
      2  CA       -22.5830   12.2660  -20.0720 C.3   153  ARG153      0.1563
      3  C        -23.2080   11.1020  -20.8380 C.2   153  ARG153      0.2260
      4  O        -24.2070   10.5500  -20.4030 O.2   153  ARG153     -0.2867
      5  CB       -21.3630   11.7780  -19.2800 C.3   153  ARG153      0.0307
      6  CG       -20.4780   12.8920  -18.7310 C.3   153  ARG153      0.0489
      7  CD       -19.0910   12.3750  -18.3960 C.3   153  ARG153      0.2205
      8  NE       -19.1300   11.2710  -17.4360 N.pl3 153  ARG153     -0.0865
      9  CZ       -18.0920   10.4870  -17.1190 C.cat 153  ARG153      0.5346
     10  NH1      -16.8960   10.6650  -17.6920 N.pl3 153  ARG153      0.1354
     11  NH2      -18.2470    9.5060  -16.2160 N.pl3 153  ARG153      0.1354
     12  N         -1.7190    5.1930  -14.2500 N.3   188  PHE188     -0.1241
     13  CA        -2.6190    4.2340  -13.6190 C.3   188  PHE188      0.1605
     14  C         -1.8370    3.1120  -12.8940 C.2   188  PHE188      0.2264
     15  O         -2.4320    2.2560  -12.2410 O.2   188  PHE188     -0.2867
     16  CB        -3.5940    3.6580  -14.6620 C.3   188  PHE188      0.0534
     17  CG        -4.6670    4.6120  -15.1110 C.ar  188  PHE188     -0.0203
     18  CD1       -5.5530    5.1560  -14.2160 C.ar  188  PHE188     -0.0042
     19  CD2       -4.8730    4.8650  -16.4590 C.ar  188  PHE188     -0.0042
     20  CE1       -6.5660    6.0200  -14.6420 C.ar  188  PHE188     -0.0003
     21  CE2       -5.9020    5.7040  -16.8830 C.ar  188  PHE188     -0.0003
     22  CZ        -6.7470    6.2610  -15.9800 C.ar  188  PHE188     -0.0000
     23  N         -2.3830    5.9100   -4.6320 N.3   192  PRO192     -0.2116
     24  CA        -2.2930    7.3370   -4.2450 C.3   192  PRO192      0.1372
     25  C         -0.9790    7.7530   -3.5440 C.2   192  PRO192      0.2244
     26  O         -0.4360    8.8360   -3.8140 O.2   192  PRO192     -0.2868
     27  CB        -3.5090    7.5400   -3.3350 C.3   192  PRO192      0.0268
     28  CG        -4.4100    6.3930   -3.5970 C.3   192  PRO192      0.0207
     29  CD        -3.5440    5.2450   -4.0180 C.3   192  PRO192      0.0892
     30  N          1.5270    8.0890   -6.3850 N.3   195  ARG195     -0.1245
     31  CA         1.2660    9.2710   -7.2010 C.3   195  ARG195      0.1563
     32  C          1.8030   10.5410   -6.5840 C.2   195  ARG195      0.2260
     33  O          2.4020   11.3560   -7.2830 O.2   195  ARG195     -0.2867
     34  CB        -0.2270    9.4450   -7.4850 C.3   195  ARG195      0.0307
     35  CG        -0.5290   10.3820   -8.6420 C.3   195  ARG195      0.0489
     36  CD        -2.0190   10.5820   -8.8270 C.3   195  ARG195      0.2205
     37  NE        -2.2840   11.7680   -9.6170 N.pl3 195  ARG195     -0.0865
     38  CZ        -2.2810   11.8150  -10.9500 C.cat 195  ARG195      0.5346
     39  NH1       -2.0080   10.7310  -11.6840 N.pl3 195  ARG195      0.1354
     40  NH2       -2.5230   12.9690  -11.5580 N.pl3 195  ARG195      0.1354
     41  N        -12.9460   12.4820  -25.9670 N.3   220  ASP220     -0.1239
     42  CA       -13.5080   11.3370  -26.7040 C.3   220  ASP220      0.1674
     43  C        -13.9340   11.6840  -28.1320 C.2   220  ASP220      0.2266
     44  O        -13.6670   10.9320  -29.0550 O.2   220  ASP220     -0.2867
     45  CB       -14.7000   10.7390  -25.9310 C.3   220  ASP220      0.1410
     46  CG       -14.2770    9.7260  -24.8600 C.2   220  ASP220      0.3668
     47  OD1      -13.0670    9.5680  -24.5630 O.co2 220  ASP220     -0.2456
     48  OD2      -15.1690    9.0860  -24.2990 O.co2 220  ASP220     -0.2456
     49  N        -10.8780    2.0370  -24.2630 N.3   282  THR282     -0.1203
     50  CA       -11.1060    3.4620  -24.0530 C.3   282  THR282      0.1994
     51  C         -9.9580    4.1180  -23.2410 C.2   282  THR282      0.2618
     52  O         -9.3840    5.0860  -23.6700 O.2   282  THR282     -0.2717
     53  CB       -12.4840    3.7200  -23.3870 C.3   282  THR282      0.1784
     54  OG1      -13.5280    3.1890  -24.2200 O.3   282  THR282     -0.2211
     55  CG2      -12.7300    5.2110  -23.1870 C.3   282  THR282      0.0376
     56  N         -9.6140    3.5590  -22.0830 N.am  283  SER283     -0.1951
     57  CA        -8.5660    4.1120  -21.2390 C.3   283  SER283      0.1924
     58  C         -7.1560    4.0350  -21.8530 C.2   283  SER283      0.2314
     59  O         -6.4230    5.0220  -21.8450 O.2   283  SER283     -0.2863
     60  CB        -8.6020    3.4460  -19.8520 C.3   283  SER283      0.2116
     61  OG        -7.4950    3.8560  -19.0660 O.3   283  SER283     -0.2180
     62  N         -7.1050    6.2530  -25.0920 N.3   286  ASN286     -0.1240
     63  CA        -7.0320    7.6770  -24.7380 C.3   286  ASN286      0.1653
     64  C         -5.6740    8.0240  -24.1810 C.2   286  ASN286      0.2266
     65  O         -5.1560    9.0910  -24.4660 O.2   286  ASN286     -0.2867
     66  CB        -8.1190    8.0800  -23.7390 C.3   286  ASN286      0.1155
     67  CG        -9.4580    8.3330  -24.4020 C.2   286  ASN286      0.2627
     68  OD1       -9.5820    8.2790  -25.6400 O.2   286  ASN286     -0.2716
     69  ND2      -10.4630    8.6370  -23.5970 N.am  286  ASN286     -0.0877
     70  N         -3.1270   10.0470  -17.4970 N.3   311  ASN311     -0.1225
     71  CA        -4.1390    9.0730  -17.1400 C.3   311  ASN311      0.1785
     72  C         -5.2920    9.2140  -18.1110 C.2   311  ASN311      0.2598
     73  O         -6.1890   10.0310  -17.8910 O.2   311  ASN311     -0.2718
     74  CB        -4.6830    9.3250  -15.7170 C.3   311  ASN311      0.1169
     75  CG        -3.6760    9.0490  -14.6120 C.2   311  ASN311      0.2627
     76  OD1       -2.7320    9.7920  -14.4460 O.2   311  ASN311     -0.2716
     77  ND2       -3.9330    8.0140  -13.7950 N.am  311  ASN311     -0.0877
     78  N         -5.2730    8.4720  -19.2110 N.am  312  GLY312     -0.1942
     79  CA        -6.3000    8.6440  -20.2330 C.3   312  GLY312      0.2014
     80  C         -6.1900   10.0380  -20.8270 C.2   312  GLY312      0.2639
     81  O         -5.1340   10.4120  -21.3310 O.2   312  GLY312     -0.2714
     82  N         -7.2920   10.7910  -20.7670 N.am  313  ASP313     -0.1957
     83  CA        -7.3870   12.1600  -21.2770 C.3   313  ASP313      0.1840
     84  C         -6.9110   13.2180  -20.2650 C.2   313  ASP313      0.2622
     85  O         -6.9100   14.3940  -20.5810 O.2   313  ASP313     -0.2715
     86  CB        -8.8410   12.5000  -21.6840 C.3   313  ASP313      0.1450
     87  CG        -9.8800   12.2900  -20.5360 C.2   313  ASP313      0.3671
     88  OD1       -9.5230   11.8010  -19.4210 O.co2 313  ASP313     -0.2456
     89  OD2      -11.0750   12.5780  -20.7870 O.co2 313  ASP313     -0.2456
     90  N         -6.5060   12.7920  -19.0710 N.am  314  ASP314     -0.1971
     91  CA        -6.0620   13.7020  -18.0430 C.3   314  ASP314      0.1709
     92  C         -4.5510   13.8320  -18.1180 C.2   314  ASP314      0.2293
     93  O         -3.8460   12.8380  -18.0090 O.2   314  ASP314     -0.2864
     94  CB        -6.5150   13.1920  -16.6570 C.3   314  ASP314      0.1436
     95  CG        -6.2890   14.2280  -15.5460 C.2   314  ASP314      0.3671
     96  OD1       -5.0990   14.5940  -15.2730 O.co2 314  ASP314     -0.2456
     97  OD2       -7.2820   14.6710  -14.9390 O.co2 314  ASP314     -0.2456
     98  N         -6.1720   14.5940  -12.3370 N.3   361  CYS361     -0.1221
     99  CA        -7.0780   13.5410  -11.8750 C.3   361  CYS361      0.1808
    100  C         -7.9500   14.0620  -10.7270 C.2   361  CYS361      0.2602
    101  O         -8.0760   13.4000   -9.6670 O.2   361  CYS361     -0.2717
    102  CB        -6.3190   12.2760  -11.4510 C.3   361  CYS361      0.0970
    103  SG        -5.7280   11.2580  -12.8170 S.3   361  CYS361     -0.0800
    104  N         -8.4940   15.2690  -10.9410 N.am  362  SER362     -0.1938
    105  CA        -9.4410   15.9240  -10.0420 C.3   362  SER362      0.2055
    106  C         -8.8950   16.2310   -8.6260 C.2   362  SER362      0.2643
    107  O         -9.6800   16.5850   -7.7380 O.2   362  SER362     -0.2714
    108  CB       -10.7330   15.1010   -9.9350 C.3   362  SER362      0.2130
    109  OG       -11.3060   14.8680  -11.2150 O.3   362  SER362     -0.2179
    110  N         -7.5680   16.1650   -8.4640 N.am  363  SER363     -0.1949
    111  CA        -6.8980   16.1940   -7.1760 C.3   363  SER363      0.1924
    112  C         -5.6530   17.0820   -7.1660 C.2   363  SER363      0.2314
    113  O         -4.9340   17.1970   -8.1720 O.2   363  SER363     -0.2863
    114  CB        -6.4610   14.7850   -6.7950 C.3   363  SER363      0.2116
    115  OG        -7.4980   13.8500   -7.0050 O.3   363  SER363     -0.2180
    116  N         -2.7000   13.6530   -1.5270 N.3   379  LEU379     -0.1245
    117  CA        -3.6470   14.1180   -2.5160 C.3   379  LEU379      0.1561
    118  C         -5.0560   14.3810   -1.9150 C.2   379  LEU379      0.2260
    119  O         -5.6160   13.5540   -1.1970 O.2   379  LEU379     -0.2867
    120  CB        -3.7660   13.0940   -3.6450 C.3   379  LEU379      0.0270
    121  CG        -3.0170   13.2220   -4.9780 C.3   379  LEU379      0.0019
    122  CD1       -2.0940   14.4420   -5.1130 C.3   379  LEU379      0.0001
    123  CD2       -2.3140   11.8900   -5.2880 C.3   379  LEU379      0.0001
    124  N         -8.9860   16.8960   -2.6960 N.3   381  ARG381     -0.1245
    125  CA        -9.7780   17.6090   -3.6500 C.3   381  ARG381      0.1563
    126  C        -10.8560   18.4260   -2.9530 C.2   381  ARG381      0.2260
    127  O        -11.0530   18.3220   -1.7400 O.2   381  ARG381     -0.2867
    128  CB       -10.4040   16.6270   -4.6420 C.3   381  ARG381      0.0307
    129  CG       -11.3810   15.6350   -4.0540 C.3   381  ARG381      0.0489
    130  CD       -12.1930   14.9930   -5.1770 C.3   381  ARG381      0.2205
    131  NE       -13.2670   15.8460   -5.6750 N.pl3 381  ARG381     -0.0865
    132  CZ       -13.8250   15.7240   -6.8870 C.cat 381  ARG381      0.5346
    133  NH1      -13.4120   14.8010   -7.7470 N.pl3 381  ARG381      0.1354
    134  NH2      -14.8090   16.5290   -7.2450 N.pl3 381  ARG381      0.1354
    135  N        -19.6310    5.3380   -4.0890 N.3   402  SER402     -0.1217
    136  CA       -18.6160    6.3350   -4.2680 C.3   402  SER402      0.1889
    137  C        -18.0090    6.7570   -2.9560 C.2   402  SER402      0.2288
    138  O        -16.8390    7.1440   -2.9230 O.2   402  SER402     -0.2866
    139  CB       -19.1730    7.5540   -5.0070 C.3   402  SER402      0.2089
    140  OG       -19.9130    8.4090   -4.1560 O.3   402  SER402     -0.2183
    141  N        -15.0520    4.3020   -2.3900 N.3   405  GLY405     -0.1210
    142  CA       -13.9230    4.6380   -3.2520 C.3   405  GLY405      0.1956
    143  C        -13.2470    5.9000   -2.7460 C.2   405  GLY405      0.2611
    144  O        -12.0390    5.9620   -2.6760 O.2   405  GLY405     -0.2717
    145  N        -14.0410    6.8830   -2.3510 N.am  406  ASN406     -0.1974
    146  CA       -13.4920    8.1390   -1.8270 C.3   406  ASN406      0.1688
    147  C        -12.7630    7.9910   -0.5110 C.2   406  ASN406      0.2292
    148  O        -11.7580    8.6400   -0.3340 O.2   406  ASN406     -0.2864
    149  CB       -14.5560    9.2330   -1.7500 C.3   406  ASN406      0.1181
    150  CG       -14.8270    9.8420   -3.0990 C.2   406  ASN406      0.2629
    151  OD1      -13.9200    9.9720   -3.8900 O.2   406  ASN406     -0.2716
    152  ND2      -16.0610   10.2310   -3.3590 N.am  406  ASN406     -0.0877
    153  N         -9.3670    6.3070   -1.5780 N.3   409  MET409     -0.1230
    154  CA        -8.4270    7.1020   -2.3450 C.3   409  MET409      0.1702
    155  C         -8.0410    8.3760   -1.6350 C.2   409  MET409      0.2592
    156  O         -6.9690    8.9220   -1.9060 O.2   409  MET409     -0.2718
    157  CB        -8.9990    7.4230   -3.7270 C.3   409  MET409      0.0401
    158  CG        -9.2110    6.1870   -4.6110 C.3   409  MET409      0.0596
    159  SD        -7.7260    5.2610   -5.0750 S.3   409  MET409     -0.1393
    160  CE        -7.0940    6.3220   -6.3930 C.3   409  MET409      0.0692
    161  N         -8.8990    8.8610   -0.7420 N.am  410  TYR410     -0.1976
    162  CA        -8.6640   10.1270   -0.0410 C.3   410  TYR410      0.1639
    163  C         -8.6010    9.9630    1.4710 C.2   410  TYR410      0.2290
    164  O         -8.9760   10.8710    2.2100 O.2   410  TYR410     -0.2864
    165  CB        -9.7430   11.1440   -0.4060 C.3   410  TYR410      0.0560
    166  CG        -9.7100   11.5910   -1.8400 C.ar  410  TYR410     -0.0198
    167  CD1       -8.6760   12.3820   -2.3000 C.ar  410  TYR410     -0.0009
    168  CD2      -10.7040   11.2150   -2.7350 C.ar  410  TYR410     -0.0009
    169  CE1       -8.6200   12.7920   -3.6120 C.ar  410  TYR410      0.0417
    170  CE2      -10.6660   11.6270   -4.0600 C.ar  410  TYR410      0.0417
    171  CZ        -9.6080   12.4200   -4.4970 C.ar  410  TYR410      0.1957
    172  OH        -9.5480   12.8820   -5.7980 O.3   410  TYR410     -0.2866
    173  N        -15.5350    1.4800   -7.4660 N.3   441  GLN441     -0.1231
    174  CA       -14.7510    1.5610   -8.6930 C.3   441  GLN441      0.1698
    175  C        -13.4780    2.3660   -8.4810 C.2   441  GLN441      0.2592
    176  O        -13.5360    3.5130   -8.0420 O.2   441  GLN441     -0.2718
    177  CB       -15.5730    2.2220   -9.7950 C.3   441  GLN441      0.0381
    178  CG       -16.4810    1.2810  -10.5460 C.3   441  GLN441      0.0905
    179  CD       -17.1600    1.9450  -11.7420 C.2   441  GLN441      0.2608
    180  OE1      -17.8390    1.2770  -12.5190 O.2   441  GLN441     -0.2717
    181  NE2      -16.9790    3.2520  -11.8940 N.am  441  GLN441     -0.0878
    182  N        -12.3410    1.7510   -8.8010 N.am  442  ILE442     -0.1966
    183  CA       -11.0270    2.4080   -8.7310 C.3   442  ILE442      0.1727
    184  C        -10.3120    2.2670  -10.0860 C.2   442  ILE442      0.2616
    185  O        -10.1180    1.1650  -10.5660 O.2   442  ILE442     -0.2715
    186  CB       -10.1660    1.8110   -7.5860 C.3   442  ILE442      0.0290
    187  CG1      -10.8010    2.1470   -6.2010 C.3   442  ILE442      0.0022
    188  CG2       -8.7200    2.3230   -7.6620 C.3   442  ILE442      0.0023
    189  CD1      -10.2460    1.3340   -5.0780 C.3   442  ILE442      0.0001
    190  N         -9.9610    3.3940  -10.7070 N.am  443  TYR443     -0.1960
    191  CA        -9.3110    3.4100  -12.0440 C.3   443  TYR443      0.1771
    192  C        -10.1400    2.6300  -13.0930 C.2   443  TYR443      0.2620
    193  O         -9.6070    1.9260  -13.9500 O.2   443  TYR443     -0.2715
    194  CB        -7.8740    2.8810  -11.9700 C.3   443  TYR443      0.0574
    195  CG        -6.8730    3.7590  -11.2080 C.ar  443  TYR443     -0.0198
    196  CD1       -7.2020    5.0400  -10.7410 C.ar  443  TYR443     -0.0009
    197  CD2       -5.5680    3.3170  -11.0170 C.ar  443  TYR443     -0.0009
    198  CE1       -6.2740    5.8240  -10.0710 C.ar  443  TYR443      0.0417
    199  CE2       -4.6170    4.1020  -10.3670 C.ar  443  TYR443      0.0417
    200  CZ        -4.9700    5.3420   -9.8850 C.ar  443  TYR443      0.1957
    201  OH        -4.0050    6.0880   -9.2330 O.3   443  TYR443     -0.2866
    202  N        -11.4540    2.7430  -12.9640 N.am  444  GLY444     -0.1954
    203  CA       -12.4060    2.1710  -13.8880 C.3   444  GLY444      0.1869
    204  C        -12.7900    0.7220  -13.6610 C.2   444  GLY444      0.2309
    205  O        -13.7420    0.2580  -14.2740 O.2   444  GLY444     -0.2863
    206  N         -9.2710    1.3140  -16.7910 N.3   550  TYR550     -0.1227
    207  CA       -10.2920    0.5270  -17.4740 C.3   550  TYR550      0.1736
    208  C        -11.6370    1.2910  -17.5800 C.2   550  TYR550      0.2596
    209  O        -12.6960    0.6810  -17.6620 O.2   550  TYR550     -0.2718
    210  CB       -10.5020   -0.8140  -16.7400 C.3   550  TYR550      0.0548
    211  CG        -9.2720   -1.6810  -16.6110 C.ar  550  TYR550     -0.0200
    212  CD1       -8.8350   -2.4590  -17.6670 C.ar  550  TYR550     -0.0009
    213  CD2       -8.5360   -1.7190  -15.4320 C.ar  550  TYR550     -0.0009
    214  CE1       -7.7210   -3.2590  -17.5490 C.ar  550  TYR550      0.0417
    215  CE2       -7.4050   -2.5110  -15.3140 C.ar  550  TYR550      0.0417
    216  CZ        -7.0130   -3.2730  -16.3600 C.ar  550  TYR550      0.1957
    217  OH        -5.9000   -4.0620  -16.2460 O.3   550  TYR550     -0.2866
    218  N        -11.5980    2.6190  -17.6330 N.am  551  SER551     -0.1952
    219  CA       -12.8450    3.4010  -17.7580 C.3   551  SER551      0.1924
    220  C        -13.7090    2.8700  -18.9210 C.2   551  SER551      0.2314
    221  O        -13.2130    2.7240  -20.0470 O.2   551  SER551     -0.2863
    222  CB       -12.5320    4.8820  -17.9670 C.3   551  SER551      0.2116
    223  OG       -13.7250    5.6140  -18.1180 O.3   551  SER551     -0.2180
@<TRIPOS>BOND
     1    44    43    2
     2    43    42    1
     3    42    41    1
     4    42    45    1
     5    45    46    1
     6    68    67    2
     7    62    63    1
     8    46    47   ar
     9    46    48   ar
    10    63    64    1
    11    63    66    1
    12    65    64    2
    13    67    66    1
    14    67    69   am
    15    49    50    1
    16    54    53    1
    17    50    53    1
    18    50    51    1
    19    52    51    2
    20    53    55    1
    21    51    56   am
    22    56    57    1
    23    58    59    2
    24    58    57    1
    25    86    83    1
    26    86    87    1
    27    81    80    2
    28    83    82    1
    29    83    84    1
    30    57    60    1
    31     3     4    2
    32     3     2    1
    33    80    82   am
    34    80    79    1
    35    89    87   ar
    36    85    84    2
    37    87    88   ar
    38    84    90   am
    39    79    78    1
    40     2     5    1
    41     2     1    1
    42   221   220    2
    43    60    61    1
    44     5     6    1
    45    78    72   am
    46    90    91    1
    47   220   219    1
    48     6     7    1
    49     7     8    1
    50   223   222    1
    51    92    91    1
    52    92    93    2
    53    72    73    2
    54    72    71    1
    55    91    94    1
    56   222   219    1
    57   219   218    1
    58    10     9    1
    59   212   214   ar
    60   212   211   ar
    61   209   208    2
    62   218   208   am
    63   208   207    1
    64   214   216   ar
    65    70    71    1
    66   207   206    1
    67   207   210    1
    68     8     9    2
    69    71    74    1
    70     9    11    1
    71    21    19   ar
    72    21    22   ar
    73   210   211    1
    74    94    95    1
    75   211   213   ar
    76    19    17   ar
    77   216   217    1
    78   216   215   ar
    79    22    20   ar
    80    74    75    1
    81    95    96   ar
    82    95    97   ar
    83   213   215   ar
    84    17    16    1
    85    17    18   ar
    86    16    13    1
    87    20    18   ar
    88    75    76    2
    89    75    77   am
    90   205   204    2
    91    12    13    1
    92   193   192    2
    93   203   204    1
    94   203   202    1
    95    13    14    1
    96   192   202   am
    97   192   191    1
    98    14    15    2
    99   103   102    1
   100   180   179    2
   101    98    99    1
   102   191   194    1
   103   191   190    1
   104   194   195    1
   105   181   179   am
   106    99   102    1
   107    99   100    1
   108   179   178    1
   109    39    38    1
   110    40    38    1
   111   109   108    1
   112   195   197   ar
   113   195   196   ar
   114   197   199   ar
   115    38    37    2
   116   104   100   am
   117   104   105    1
   118   196   198   ar
   119   100   101    2
   120   190   184   am
   121   185   184    2
   122   178   177    1
   123   199   200   ar
   124   184   183    1
   125   198   200   ar
   126   105   108    1
   127   105   106    1
   128   200   201    1
   129   177   174    1
   130    37    36    1
   131    36    35    1
   132   182   183    1
   133   182   175   am
   134   183   186    1
   135   174   175    1
   136   174   173    1
   137    35    34    1
   138   106   110   am
   139   106   107    2
   140   175   176    2
   141   110   111    1
   142   113   112    2
   143   133   132    1
   144   188   186    1
   145   186   187    1
   146    34    31    1
   147    33    32    2
   148   134   132    1
   149    31    32    1
   150    31    30    1
   151   111   112    1
   152   111   114    1
   153   115   114    1
   154   132   131    2
   155   160   159    1
   156   187   189    1
   157   172   171    1
   158   131   130    1
   159   123   121    1
   160   130   129    1
   161   122   121    1
   162   159   158    1
   163   139   136    1
   164   139   140    1
   165   121   120    1
   166   128   129    1
   167   128   125    1
   168    23    24    1
   169    23    29    1
   170   158   157    1
   171   171   170   ar
   172   171   169   ar
   173   136   135    1
   174   136   137    1
   175    24    25    1
   176    24    27    1
   177   170   168   ar
   178    29    28    1
   179   151   150    2
   180    26    25    2
   181   157   154    1
   182   125   126    1
   183   125   124    1
   184   120   117    1
   185   169   167   ar
   186    28    27    1
   187   152   150   am
   188   142   143    1
   189   142   141    1
   190   150   149    1
   191   137   138    2
   192   126   127    2
   193   143   144    2
   194   143   145   am
   195   168   166   ar
   196   117   118    1
   197   117   116    1
   198   145   146    1
   199   154   155    1
   200   154   153    1
   201   167   166   ar
   202   118   119    2
   203   156   155    2
   204   166   165    1
   205   146   149    1
   206   146   147    1
   207   155   161   am
   208   161   162    1
   209   147   148    2
   210   165   162    1
   211   162   163    1
   212   163   164    2
