@<TRIPOS>MOLECULE
tmp/3g8bB00.pdb
 152 147 0 0 0
SMALL
GASTEIGER

@<TRIPOS>ATOM
      1  N         27.4000   26.6340  -52.3540 N.3    58  HIS58      -0.1241
      2  CA        26.0390   27.1470  -52.4730 C.3    58  HIS58       0.1621
      3  C         25.0010   26.4210  -51.6150 C.2    58  HIS58       0.2264
      4  O         24.3110   27.0540  -50.8200 O.2    58  HIS58      -0.2867
      5  CB        25.6230   27.2160  -53.9440 C.3    58  HIS58       0.0745
      6  CG        26.5190   28.0870  -54.7690 C.ar   58  HIS58       0.0817
      7  ND1       26.3990   29.4540  -54.8040 N.ar   58  HIS58      -0.2268
      8  CD2       27.5760   27.7770  -55.5640 C.ar   58  HIS58       0.1154
      9  CE1       27.3320   29.9590  -55.5990 C.ar   58  HIS58       0.1986
     10  NE2       28.0560   28.9590  -56.0670 N.ar   58  HIS58      -0.2212
     11  N         16.6410   38.6980  -49.1180 N.3    80  LEU80      -0.1231
     12  CA        16.7840   39.8860  -49.9490 C.3    80  LEU80       0.1693
     13  C         17.8640   39.7220  -51.0140 C.2    80  LEU80       0.2593
     14  O         19.0140   39.4240  -50.7030 O.2    80  LEU80      -0.2718
     15  CB        17.0930   41.1070  -49.0840 C.3    80  LEU80       0.0284
     16  CG        17.1270   42.4270  -49.8620 C.3    80  LEU80       0.0019
     17  CD1       15.7330   42.7720  -50.3640 C.3    80  LEU80       0.0001
     18  CD2       17.6850   43.5510  -49.0110 C.3    80  LEU80       0.0001
     19  N         17.4910   39.9360  -52.2710 N.am   81  GLY81      -0.1942
     20  CA        18.4220   39.7630  -53.3720 C.3    81  GLY81       0.2014
     21  C         18.7740   38.2970  -53.5230 C.2    81  GLY81       0.2640
     22  O         19.9460   37.9300  -53.6110 O.2    81  GLY81      -0.2714
     23  N         17.7390   37.4640  -53.5660 N.am   82  THR82      -0.1936
     24  CA        17.8890   36.0130  -53.5230 C.3    82  THR82       0.2028
     25  C         18.5670   35.4190  -54.7580 C.2    82  THR82       0.2643
     26  O         19.0990   34.3110  -54.7040 O.2    82  THR82      -0.2714
     27  CB        16.5200   35.3250  -53.3350 C.3    82  THR82       0.1808
     28  OG1       16.7110   33.9200  -53.1340 O.3    82  THR82      -0.2208
     29  CG2       15.6440   35.5410  -54.5600 C.3    82  THR82       0.0379
     30  N         18.5510   36.1480  -55.8680 N.am   83  GLY83      -0.1939
     31  CA        19.1180   35.6330  -57.1020 C.3    83  GLY83       0.2014
     32  C         18.3960   34.3720  -57.5420 C.2    83  GLY83       0.2638
     33  O         17.1900   34.3970  -57.7850 O.2    83  GLY83      -0.2714
     34  N         19.1280   33.2640  -57.6270 N.am   84  ALA84      -0.1977
     35  CA        18.5460   31.9900  -58.0460 C.3    84  ALA84       0.1597
     36  C         17.9030   31.2360  -56.8850 C.2    84  ALA84       0.2287
     37  O         17.4400   30.1060  -57.0450 O.2    84  ALA84      -0.2864
     38  CB        19.5980   31.1220  -58.7190 C.3    84  ALA84       0.0319
     39  N         19.2050   31.7260  -53.2360 N.3    86  PHE86      -0.1228
     40  CA        20.1790   31.4590  -52.1850 C.3    86  PHE86       0.1721
     41  C         20.3930   32.7030  -51.3360 C.2    86  PHE86       0.2437
     42  O         20.5600   33.8000  -51.8660 O.2    86  PHE86      -0.2733
     43  CB        21.5010   30.9750  -52.7840 C.3    86  PHE86       0.0547
     44  CG        21.3650   29.7330  -53.6180 C.ar   86  PHE86      -0.0202
     45  CD1       21.4010   28.4780  -53.0300 C.ar   86  PHE86      -0.0042
     46  CD2       21.1900   29.8200  -54.9880 C.ar   86  PHE86      -0.0042
     47  CE1       21.2700   27.3340  -53.7960 C.ar   86  PHE86      -0.0003
     48  CE2       21.0590   28.6810  -55.7580 C.ar   86  PHE86      -0.0003
     49  CZ        21.0990   27.4370  -55.1630 C.ar   86  PHE86      -0.0000
     50  N         20.4090   32.5320  -50.0080 N.am   87  PRO87      -0.2729
     51  CA        20.3700   31.2380  -49.3120 C.3    87  PRO87       0.1401
     52  C         18.9580   30.7280  -49.0150 C.2    87  PRO87       0.2269
     53  O         18.8060   29.7220  -48.3220 O.2    87  PRO87      -0.2865
     54  CB        21.0780   31.5480  -47.9940 C.3    87  PRO87       0.0296
     55  CG        20.7770   33.0000  -47.7440 C.3    87  PRO87       0.0237
     56  CD        20.5140   33.6620  -49.0690 C.3    87  PRO87       0.0939
     57  N         13.0590   37.7800  -52.3480 N.3   103  VAL103     -0.1231
     58  CA        12.9480   38.9920  -53.1470 C.3   103  VAL103      0.1692
     59  C         14.1550   39.2150  -54.0510 C.2   103  VAL103      0.2592
     60  O         15.2970   38.9900  -53.6530 O.2   103  VAL103     -0.2718
     61  CB        12.7720   40.2350  -52.2480 C.3   103  VAL103      0.0266
     62  CG1       12.9700   41.5060  -53.0510 C.3   103  VAL103      0.0020
     63  CG2       11.4000   40.2190  -51.5860 C.3   103  VAL103      0.0020
     64  N         13.8910   39.6570  -55.2750 N.am  104  ASP104     -0.1960
     65  CA        14.9520   40.1010  -56.1690 C.3   104  ASP104      0.1840
     66  C         14.4140   41.1400  -57.1430 C.2   104  ASP104      0.2622
     67  O         13.2570   41.0670  -57.5620 O.2   104  ASP104     -0.2715
     68  CB        15.5670   38.9230  -56.9220 C.3   104  ASP104      0.1450
     69  CG        16.9590   39.2310  -57.4390 C.2   104  ASP104      0.3671
     70  OD1       17.0760   39.9630  -58.4460 O.co2 104  ASP104     -0.2456
     71  OD2       17.9370   38.7380  -56.8360 O.co2 104  ASP104     -0.2456
     72  N         15.2570   42.1040  -57.4970 N.am  105  ALA105     -0.1963
     73  CA        14.8580   43.1840  -58.3910 C.3   105  ALA105      0.1728
     74  C         14.8550   42.7340  -59.8480 C.2   105  ALA105      0.2616
     75  O         14.3600   43.4410  -60.7270 O.2   105  ALA105     -0.2715
     76  CB        15.7760   44.3920  -58.2050 C.3   105  ALA105      0.0334
     77  N         15.4020   41.5490  -60.0970 N.am  106  THR106     -0.1951
     78  CA        15.4850   41.0160  -61.4520 C.3   106  THR106      0.1897
     79  C         14.3760   40.0000  -61.6960 C.2   106  THR106      0.2313
     80  O         14.3480   38.9340  -61.0810 O.2   106  THR106     -0.2863
     81  CB        16.8540   40.3580  -61.7170 C.3   106  THR106      0.1794
     82  OG1       17.8910   41.3310  -61.5390 O.3   106  THR106     -0.2208
     83  CG2       16.9170   39.8070  -63.1330 C.3   106  THR106      0.0378
     84  N         15.1400   36.2410  -62.3760 N.3   109  LYS109     -0.1245
     85  CA        15.5480   35.5080  -61.1840 C.3   109  LYS109      0.1561
     86  C         14.3120   35.0550  -60.4160 C.2   109  LYS109      0.2260
     87  O         14.2060   33.8970  -60.0100 O.2   109  LYS109     -0.2867
     88  CB        16.4210   36.3900  -60.2890 C.3   109  LYS109      0.0271
     89  CG        17.6320   36.9930  -60.9860 C.3   109  LYS109      0.0035
     90  CD        18.7580   35.9850  -61.1390 C.3   109  LYS109      0.0206
     91  CE        19.9370   36.5810  -61.9000 C.3   109  LYS109      0.1093
     92  NZ        20.5370   37.7530  -61.1960 N.3   109  LYS109     -0.1314
     93  N         10.7850   42.7510  -56.7750 N.3   130  GLY130     -0.1210
     94  CA        10.7530   44.0640  -56.1550 C.3   130  GLY130      0.1956
     95  C         12.0990   44.6310  -55.7450 C.2   130  GLY130      0.2612
     96  O         13.1090   43.9270  -55.7080 O.2   130  GLY130     -0.2717
     97  N         12.0960   45.9230  -55.4310 N.am  131  ARG131     -0.1965
     98  CA        13.2920   46.6510  -55.0280 C.3   131  ARG131      0.1729
     99  C         13.2690   46.8740  -53.5180 C.2   131  ARG131      0.2616
    100  O         12.2910   47.3860  -52.9780 O.2   131  ARG131     -0.2715
    101  CB        13.3390   47.9970  -55.7590 C.3   131  ARG131      0.0348
    102  CG        14.5420   48.8640  -55.4370 C.3   131  ARG131      0.0492
    103  CD        15.7880   48.3700  -56.1500 C.3   131  ARG131      0.2205
    104  NE        16.9480   49.2030  -55.8490 N.pl3 131  ARG131     -0.0865
    105  CZ        18.2020   48.8610  -56.1240 C.cat 131  ARG131      0.5346
    106  NH1       18.4590   47.6960  -56.7050 N.pl3 131  ARG131      0.1354
    107  NH2       19.1980   49.6810  -55.8140 N.pl3 131  ARG131      0.1354
    108  N         14.3470   46.4900  -52.8410 N.am  132  ALA132     -0.1963
    109  CA        14.4100   46.5750  -51.3840 C.3   132  ALA132      0.1728
    110  C         13.9720   47.9350  -50.8470 C.2   132  ALA132      0.2616
    111  O         13.1600   48.0140  -49.9280 O.2   132  ALA132     -0.2715
    112  CB        15.8130   46.2480  -50.8960 C.3   132  ALA132      0.0334
    113  N         14.5160   49.0030  -51.4230 N.am  133  GLU133     -0.1977
    114  CA        14.2260   50.3510  -50.9510 C.3   133  GLU133      0.1602
    115  C         12.7520   50.7050  -51.1260 C.2   133  GLU133      0.2287
    116  O         12.1980   51.4910  -50.3580 O.2   133  GLU133     -0.2864
    117  CB        15.1040   51.3770  -51.6740 C.3   133  GLU133      0.0415
    118  CG        16.6040   51.1970  -51.4600 C.3   133  GLU133      0.1163
    119  CD        17.2560   50.3020  -52.5000 C.2   133  GLU133      0.3649
    120  OE1       16.6750   49.2560  -52.8570 O.co2 133  GLU133     -0.2457
    121  OE2       18.3660   50.6450  -52.9560 O.co2 133  GLU133     -0.2457
    122  N         22.8770   37.1840  -49.0070 N.3   151  ARG151     -0.1231
    123  CA        24.2320   36.8050  -49.3820 C.3   151  ARG151      0.1694
    124  C         24.6270   37.5180  -50.6680 C.2   151  ARG151      0.2592
    125  O         23.8390   37.5910  -51.6090 O.2   151  ARG151     -0.2718
    126  CB        24.3470   35.2920  -49.5700 C.3   151  ARG151      0.0321
    127  CG        25.7810   34.8140  -49.7580 C.3   151  ARG151      0.0489
    128  CD        25.8590   33.3140  -50.0170 C.3   151  ARG151      0.2205
    129  NE        25.3270   32.9630  -51.3300 N.pl3 151  ARG151     -0.0865
    130  CZ        25.6120   31.8360  -51.9740 C.cat 151  ARG151      0.5346
    131  NH1       26.4360   30.9450  -51.4300 N.pl3 151  ARG151      0.1354
    132  NH2       25.0820   31.6020  -53.1680 N.pl3 151  ARG151      0.1354
    133  N         25.8450   38.0490  -50.6910 N.am  152  ALA152     -0.1966
    134  CA        26.3970   38.6950  -51.8790 C.3   152  ALA152      0.1728
    135  C         25.4720   39.7640  -52.4530 C.2   152  ALA152      0.2616
    136  O         25.1330   39.7280  -53.6370 O.2   152  ALA152     -0.2715
    137  CB        26.7340   37.6550  -52.9410 C.3   152  ALA152      0.0334
    138  N         25.0670   40.7140  -51.6150 N.am  153  VAL153     -0.1977
    139  CA        24.2230   41.8180  -52.0690 C.3   153  VAL153      0.1596
    140  C         24.9360   43.1670  -51.9850 C.2   153  VAL153      0.2287
    141  O         24.9270   43.9350  -52.9440 O.2   153  VAL153     -0.2864
    142  CB        22.8880   41.8870  -51.2960 C.3   153  VAL153      0.0276
    143  CG1       22.1030   43.1400  -51.6880 C.3   153  VAL153      0.0022
    144  CG2       22.0650   40.6380  -51.5600 C.3   153  VAL153      0.0022
    145  N         19.2800   48.2800  -46.0060 N.3   162  LEU162     -0.1245
    146  CA        18.3430   47.5360  -46.8410 C.3   162  LEU162      0.1561
    147  C         17.5770   46.4860  -46.0430 C.2   162  LEU162      0.2260
    148  O         16.4150   46.2040  -46.3330 O.2   162  LEU162     -0.2867
    149  CB        19.0780   46.8560  -47.9990 C.3   162  LEU162      0.0270
    150  CG        19.8500   47.7570  -48.9670 C.3   162  LEU162      0.0019
    151  CD1       20.5160   46.9260  -50.0570 C.3   162  LEU162      0.0001
    152  CD2       18.9290   48.8120  -49.5690 C.3   162  LEU162      0.0001
@<TRIPOS>BOND
     1    83    81    1
     2    84    85    1
     3    91    92    1
     4    91    90    1
     5    81    82    1
     6    81    78    1
     7    79    78    1
     8    79    80    2
     9    78    77    1
    10    85    86    1
    11    85    88    1
    12    90    89    1
    13    89    88    1
    14    75    74    2
    15    86    87    2
    16    77    74   am
    17    74    73    1
    18    38    35    1
    19    70    69   ar
    20    73    76    1
    21    73    72    1
    22    35    34    1
    23    35    36    1
    24    33    32    2
    25    34    32   am
    26    67    66    2
    27    32    31    1
    28    72    66   am
    29    69    68    1
    30    69    71   ar
    31    66    65    1
    32    31    30    1
    33    37    36    2
    34    68    65    1
    35    93    94    1
    36   106   105    1
    37    65    64    1
    38    94    95    1
    39   103   104    1
    40   103   102    1
    41   105   104    2
    42   105   107    1
    43    10     9   ar
    44    10     8   ar
    45    30    25   am
    46   101   102    1
    47   101    98    1
    48    48    49   ar
    49    48    46   ar
    50    95    96    2
    51    95    97   am
    52     9     7   ar
    53     8     6   ar
    54    97    98    1
    55    64    59   am
    56    49    47   ar
    57    98    99    1
    58    46    44   ar
    59     7     6   ar
    60     6     5    1
    61    25    26    2
    62    25    24    1
    63    29    27    1
    64    59    60    2
    65    59    58    1
    66     5     2    1
    67    47    45   ar
    68   136   135    2
    69    44    45   ar
    70    44    43    1
    71    22    21    2
    72    23    21   am
    73    23    24    1
    74    21    20    1
    75    24    27    1
    76    99   100    2
    77    99   108   am
    78    20    19    1
    79    27    28    1
    80    39    40    1
    81   132   130    1
    82    58    57    1
    83    58    61    1
    84    62    61    1
    85   121   119   ar
    86   141   140    2
    87   137   134    1
    88   120   119   ar
    89   108   109    1
    90    43    40    1
    91   119   118    1
    92     2     1    1
    93     2     3    1
    94   135   134    1
    95   135   138   am
    96    19    13   am
    97    61    63    1
    98    40    41    1
    99   139   140    1
   100   139   138    1
   101   139   142    1
   102   130   131    1
   103   130   129    2
   104   134   133    1
   105    42    41    2
   106   143   142    1
   107   117   118    1
   108   117   114    1
   109     3     4    2
   110   125   124    2
   111   144   142    1
   112   113   114    1
   113   113   110   am
   114   109   112    1
   115   109   110    1
   116    41    50   am
   117   129   128    1
   118   115   114    1
   119   115   116    2
   120    13    14    2
   121    13    12    1
   122   110   111    2
   123   133   124   am
   124   124   123    1
   125    17    16    1
   126   151   150    1
   127   128   127    1
   128    50    51    1
   129    50    56    1
   130    12    11    1
   131    12    15    1
   132    16    15    1
   133    16    18    1
   134   127   126    1
   135   126   123    1
   136   152   150    1
   137   123   122    1
   138    51    52    1
   139    51    54    1
   140    56    55    1
   141    52    53    2
   142   150   149    1
   143   149   146    1
   144    54    55    1
   145   146   147    1
   146   146   145    1
   147   148   147    2
