@<TRIPOS>MOLECULE
tmp/3g8cB01.pdb
 130 124 0 0 0
SMALL
GASTEIGER

@<TRIPOS>ATOM
      1  N         52.8980   16.6230  -44.8890 N.3     9  ASN9       -0.1225
      2  CA        54.0320   15.8480  -44.4290 C.3     9  ASN9        0.1785
      3  C         53.6080   14.3780  -44.2970 C.2     9  ASN9        0.2597
      4  O         52.5210   13.9990  -44.7290 O.2     9  ASN9       -0.2718
      5  CB        54.5840   16.4040  -43.0970 C.3     9  ASN9        0.1169
      6  CG        56.0990   16.2580  -42.9860 C.2     9  ASN9        0.2627
      7  OD1       56.6250   15.1470  -42.9700 O.2     9  ASN9       -0.2716
      8  ND2       56.8070   17.3850  -42.9220 N.am    9  ASN9       -0.0877
      9  N         54.4650   13.5720  -43.6860 N.am   10  ARG10      -0.1979
     10  CA        54.2740   12.1340  -43.6050 C.3    10  ARG10       0.1597
     11  C         54.8290   11.6120  -42.2860 C.2    10  ARG10       0.2287
     12  O         55.3460   12.3750  -41.4700 O.2    10  ARG10      -0.2864
     13  CB        54.9810   11.4450  -44.7820 C.3    10  ARG10       0.0334
     14  CG        56.4950   11.5900  -44.7600 C.3    10  ARG10       0.0492
     15  CD        57.1530   10.7580  -45.8300 C.3    10  ARG10       0.2205
     16  NE        56.7560    9.3500  -45.7890 N.pl3  10  ARG10      -0.0865
     17  CZ        57.2240    8.4450  -44.9280 C.cat  10  ARG10       0.5346
     18  NH1       58.1260    8.7750  -44.0110 N.pl3  10  ARG10       0.1354
     19  NH2       56.7900    7.1900  -44.9940 N.pl3  10  ARG10       0.1354
     20  N         58.0770   19.3790  -40.3900 N.3    82  TYR82      -0.1227
     21  CA        59.4970   19.7210  -40.5140 C.3    82  TYR82       0.1736
     22  C         60.0800   19.0550  -41.7640 C.2    82  TYR82       0.2596
     23  O         59.5060   18.0960  -42.2970 O.2    82  TYR82      -0.2718
     24  CB        60.2800   19.3280  -39.2530 C.3    82  TYR82       0.0548
     25  CG        60.1600   17.8580  -38.8510 C.ar   82  TYR82      -0.0200
     26  CD1       60.6200   16.8410  -39.6960 C.ar   82  TYR82      -0.0009
     27  CD2       59.6040   17.4920  -37.6240 C.ar   82  TYR82      -0.0009
     28  CE1       60.5170   15.4950  -39.3420 C.ar   82  TYR82       0.0417
     29  CE2       59.5030   16.1270  -37.2510 C.ar   82  TYR82       0.0417
     30  CZ        59.9600   15.1460  -38.1250 C.ar   82  TYR82       0.1957
     31  OH        59.8620   13.8060  -37.7900 O.3    82  TYR82      -0.2866
     32  N         61.2190   19.5500  -42.2340 N.am   83  GLY83      -0.1942
     33  CA        61.7830   19.0450  -43.4900 C.3    83  GLY83       0.2014
     34  C         60.8890   19.4290  -44.6620 C.2    83  GLY83       0.2638
     35  O         60.0890   20.3660  -44.5570 O.2    83  GLY83      -0.2714
     36  N         61.1580   18.9100  -45.7490 N.am   84  PHE84      -0.1973
     37  CA        60.3300   19.1000  -46.9320 C.3    84  PHE84       0.1639
     38  C         60.2060   20.5830  -47.2220 C.2    84  PHE84       0.2290
     39  O         61.2230   21.2220  -47.4700 O.2    84  PHE84      -0.2864
     40  CB        58.9440   18.4030  -46.8260 C.3    84  PHE84       0.0560
     41  CG        58.9880   16.8810  -46.9000 C.ar   84  PHE84      -0.0200
     42  CD1       58.2550   16.1230  -45.9980 C.ar   84  PHE84      -0.0042
     43  CD2       59.7100   16.2180  -47.8680 C.ar   84  PHE84      -0.0042
     44  CE1       58.2890   14.7190  -46.0460 C.ar   84  PHE84      -0.0003
     45  CE2       59.7580   14.8280  -47.9590 C.ar   84  PHE84      -0.0003
     46  CZ        59.0510   14.0730  -47.0310 C.ar   84  PHE84      -0.0000
     47  N         60.5610   24.9990  -44.4910 N.3    87  GLU87      -0.1245
     48  CA        61.4150   26.1790  -44.5200 C.3    87  GLU87       0.1567
     49  C         61.6900   26.6300  -45.9500 C.2    87  GLU87       0.2260
     50  O         62.7190   27.2390  -46.2410 O.2    87  GLU87      -0.2867
     51  CB        62.6970   25.9240  -43.7430 C.3    87  GLU87       0.0388
     52  CG        62.4320   25.7820  -42.2610 C.3    87  GLU87       0.1160
     53  CD        63.6270   25.2900  -41.5080 C.2    87  GLU87       0.3649
     54  OE1       64.0160   24.1210  -41.7240 O.co2  87  GLU87      -0.2457
     55  OE2       64.1690   26.0730  -40.6970 O.co2  87  GLU87      -0.2457
     56  N         73.8990   14.8160  -37.6660 N.3   237  GLN237     -0.1231
     57  CA        72.5100   14.4080  -37.4750 C.3   237  GLN237      0.1698
     58  C         72.2960   14.0240  -36.0110 C.2   237  GLN237      0.2592
     59  O         73.0070   13.1680  -35.4730 O.2   237  GLN237     -0.2718
     60  CB        72.1640   13.2290  -38.3830 C.3   237  GLN237      0.0381
     61  CG        70.6650   13.0020  -38.5790 C.3   237  GLN237      0.0905
     62  CD        70.0410   13.9310  -39.6160 C.2   237  GLN237      0.2608
     63  OE1       70.7420   14.6610  -40.3340 O.2   237  GLN237     -0.2717
     64  NE2       68.7130   13.8970  -39.7080 N.am  237  GLN237     -0.0878
     65  N         71.3120   14.6630  -35.3820 N.am  238  LYS238     -0.1980
     66  CA        70.9710   14.3990  -33.9820 C.3   238  LYS238      0.1596
     67  C         70.4880   12.9720  -33.7690 C.2   238  LYS238      0.2287
     68  O         69.7220   12.4390  -34.5750 O.2   238  LYS238     -0.2864
     69  CB        69.9200   15.4050  -33.4890 C.3   238  LYS238      0.0298
     70  CG        70.4470   16.8190  -33.3960 C.3   238  LYS238      0.0038
     71  CD        69.3290   17.8340  -33.5100 C.3   238  LYS238      0.0206
     72  CE        69.8610   19.2490  -33.4070 C.3   238  LYS238      0.1093
     73  NZ        68.7740   20.2430  -33.6650 N.3   238  LYS238     -0.1314
     74  N         60.3220   26.6570  -37.8150 N.3   292  ARG292     -0.1245
     75  CA        59.4100   25.5310  -37.9770 C.3   292  ARG292      0.1563
     76  C         59.4050   24.7760  -36.6580 C.2   292  ARG292      0.2260
     77  O         60.2170   25.0720  -35.7870 O.2   292  ARG292     -0.2867
     78  CB        59.9170   24.5900  -39.0810 C.3   292  ARG292      0.0307
     79  CG        61.3680   24.1220  -38.8840 C.3   292  ARG292      0.0489
     80  CD        61.6440   22.8420  -39.6620 C.3   292  ARG292      0.2205
     81  NE        63.0740   22.5390  -39.6790 N.pl3 292  ARG292     -0.0865
     82  CZ        63.7110   21.8210  -38.7570 C.cat 292  ARG292      0.5346
     83  NH1       63.0520   21.3060  -37.7210 N.pl3 292  ARG292      0.1354
     84  NH2       65.0140   21.6070  -38.8800 N.pl3 292  ARG292      0.1354
     85  N         62.1200   18.5940  -34.6100 N.3   295  VAL295     -0.1245
     86  CA        61.9110   17.1430  -34.4910 C.3   295  VAL295      0.1561
     87  C         61.7710   16.7620  -33.0040 C.2   295  VAL295      0.2260
     88  O         60.8260   16.0780  -32.5980 O.2   295  VAL295     -0.2867
     89  CB        63.0800   16.3360  -35.1340 C.3   295  VAL295      0.0252
     90  CG1       62.9610   14.8560  -34.8060 C.3   295  VAL295      0.0019
     91  CG2       63.1060   16.5260  -36.6360 C.3   295  VAL295      0.0019
     92  N         66.0100    9.0210  -31.0610 N.3   338  ARG338     -0.1245
     93  CA        65.4800    8.8410  -32.4080 C.3   338  ARG338      0.1563
     94  C         65.6230    7.3780  -32.8120 C.2   338  ARG338      0.2260
     95  O         66.6910    6.7780  -32.6470 O.2   338  ARG338     -0.2867
     96  CB        66.1840    9.7490  -33.4160 C.3   338  ARG338      0.0307
     97  CG        65.9450   11.2370  -33.1990 C.3   338  ARG338      0.0489
     98  CD        66.4140   12.0360  -34.4120 C.3   338  ARG338      0.2205
     99  NE        66.4120   13.4750  -34.1670 N.pl3 338  ARG338     -0.0865
    100  CZ        66.5350   14.3900  -35.1190 C.cat 338  ARG338      0.5346
    101  NH1       66.6670   14.0160  -36.3900 N.pl3 338  ARG338      0.1354
    102  NH2       66.5330   15.6790  -34.8060 N.pl3 338  ARG338      0.1354
    103  N         62.0660    7.8850  -48.3900 N.3   381  TYR381     -0.1227
    104  CA        61.9890    8.9570  -47.4080 C.3   381  TYR381      0.1736
    105  C         63.0390    8.7800  -46.3140 C.2   381  TYR381      0.2595
    106  O         63.7810    7.7980  -46.3100 O.2   381  TYR381     -0.2718
    107  CB        60.5580    9.0420  -46.8450 C.3   381  TYR381      0.0548
    108  CG        59.5000    8.9320  -47.9310 C.ar  381  TYR381     -0.0200
    109  CD1       58.6880    7.7960  -48.0330 C.ar  381  TYR381     -0.0009
    110  CD2       59.3450    9.9420  -48.8890 C.ar  381  TYR381     -0.0009
    111  CE1       57.7230    7.6840  -49.0430 C.ar  381  TYR381      0.0417
    112  CE2       58.3940    9.8310  -49.9110 C.ar  381  TYR381      0.0417
    113  CZ        57.5880    8.7040  -49.9800 C.ar  381  TYR381      0.1957
    114  OH        56.6560    8.5820  -50.9820 O.3   381  TYR381     -0.2866
    115  N         63.1130    9.7500  -45.4090 N.am  382  ASP382     -0.1974
    116  CA        64.0510    9.7220  -44.2870 C.3   382  ASP382      0.1709
    117  C         63.9130    8.4180  -43.4680 C.2   382  ASP382      0.2293
    118  O         62.8180    7.8580  -43.3420 O.2   382  ASP382     -0.2864
    119  CB        63.8160   10.9450  -43.4030 C.3   382  ASP382      0.1436
    120  CG        64.9010   11.1350  -42.3670 C.2   382  ASP382      0.3671
    121  OD1       64.6200   10.9080  -41.1700 O.co2 382  ASP382     -0.2456
    122  OD2       66.0370   11.4990  -42.7390 O.co2 382  ASP382     -0.2456
    123  N         64.1610    7.9130  -40.2630 N.3   384  MET384     -0.1245
    124  CA        63.6650    8.0260  -38.8850 C.3   384  MET384      0.1570
    125  C         62.2140    7.5860  -38.8200 C.2   384  MET384      0.2261
    126  O         61.3250    8.2390  -39.3840 O.2   384  MET384     -0.2867
    127  CB        63.8240    9.4440  -38.3300 C.3   384  MET384      0.0387
    128  CG        63.6300    9.5090  -36.7990 C.3   384  MET384      0.0595
    129  SD        63.2730   11.1670  -36.1840 S.3   384  MET384     -0.1393
    130  CE        61.5510   11.2930  -36.6060 C.3   384  MET384      0.0692
@<TRIPOS>BOND
     1   114   113    1
     2   113   112   ar
     3   113   111   ar
     4   112   110   ar
     5   111   109   ar
     6   110   108   ar
     7   103   104    1
     8   109   108   ar
     9    45    43   ar
    10    45    46   ar
    11   108   107    1
    12    43    41   ar
    13    39    38    2
    14   104   107    1
    15   104   105    1
    16    38    37    1
    17    46    44   ar
    18    37    40    1
    19    37    36    1
    20    41    40    1
    21    41    42   ar
    22   105   106    2
    23   105   115   am
    24    50    49    2
    25    44    42   ar
    26    49    48    1
    27    15    16    1
    28    15    14    1
    29    16    17    2
    30    36    34   am
    31   115   116    1
    32    19    17    1
    33    17    18    1
    34     1     2    1
    35    13    14    1
    36    13    10    1
    37     4     3    2
    38    34    35    2
    39    34    33    1
    40    48    47    1
    41    48    51    1
    42     2     3    1
    43     2     5    1
    44     3     9   am
    45   116   117    1
    46   116   119    1
    47    51    52    1
    48     9    10    1
    49    10    11    1
    50    33    32    1
    51   117   118    2
    52   119   120    1
    53     5     6    1
    54     6     7    2
    55     6     8   am
    56   122   120   ar
    57   120   121   ar
    58    23    22    2
    59    11    12    2
    60    52    53    1
    61    32    22   am
    62    22    21    1
    63    54    53   ar
    64    53    55   ar
    65    21    20    1
    66    21    24    1
    67    63    62    2
    68   123   124    1
    69    64    62   am
    70    26    28   ar
    71    26    25   ar
    72    81    80    1
    73    81    82    2
    74    80    79    1
    75    62    61    1
    76   126   125    2
    77    28    30   ar
    78    24    25    1
    79    78    79    1
    80    78    75    1
    81   124   125    1
    82   124   127    1
    83    84    82    1
    84    25    27   ar
    85    82    83    1
    86    61    60    1
    87    60    57    1
    88   127   128    1
    89    30    31    1
    90    30    29   ar
    91    75    74    1
    92    75    76    1
    93    56    57    1
    94    27    29   ar
    95    57    58    1
    96   128   129    1
    97    76    77    2
    98    91    89    1
    99   130   129    1
   100   101   100    1
   101    58    59    2
   102    58    65   am
   103    65    66    1
   104    89    90    1
   105    89    86    1
   106   100   102    1
   107   100    99    2
   108    85    86    1
   109    68    67    2
   110    86    87    1
   111    98    99    1
   112    98    97    1
   113    66    67    1
   114    66    69    1
   115    73    72    1
   116    71    72    1
   117    71    70    1
   118    69    70    1
   119    96    97    1
   120    96    93    1
   121    87    88    2
   122    94    95    2
   123    94    93    1
   124    93    92    1
