@<TRIPOS>MOLECULE
tmp/3g8cB00.pdb
 183 173 0 0 0
SMALL
GASTEIGER

@<TRIPOS>ATOM
      1  N         71.9630   32.1780  -44.1410 N.3   116  LYS116     -0.1245
      2  CA        72.7650   32.2040  -42.9300 C.3   116  LYS116      0.1561
      3  C         73.4350   33.5410  -42.6740 C.2   116  LYS116      0.2260
      4  O         73.5210   33.9640  -41.5310 O.2   116  LYS116     -0.2867
      5  CB        73.7800   31.0620  -42.9180 C.3   116  LYS116      0.0271
      6  CG        73.1190   29.6970  -42.7680 C.3   116  LYS116      0.0035
      7  CD        74.1180   28.6300  -42.3800 C.3   116  LYS116      0.0206
      8  CE        73.4250   27.4950  -41.6520 C.3   116  LYS116      0.1093
      9  NZ        74.3290   26.3350  -41.4840 N.3   116  LYS116     -0.1314
     10  N         78.6770   33.7310  -33.3600 N.3   131  VAL131     -0.1245
     11  CA        80.0590   33.2750  -33.4960 C.3   131  VAL131      0.1561
     12  C         80.8410   34.3890  -34.1940 C.2   131  VAL131      0.2260
     13  O         80.3930   34.9140  -35.2150 O.2   131  VAL131     -0.2867
     14  CB        80.1790   31.9780  -34.3430 C.3   131  VAL131      0.0252
     15  CG1       81.6300   31.5200  -34.4220 C.3   131  VAL131      0.0019
     16  CG2       79.3020   30.8410  -33.7910 C.3   131  VAL131      0.0019
     17  N         86.0750   28.2670  -40.0410 N.3   157  ILE157     -0.1245
     18  CA        85.2600   27.3690  -40.8350 C.3   157  ILE157      0.1561
     19  C         84.5730   28.1680  -41.9410 C.2   157  ILE157      0.2260
     20  O         84.0750   29.2720  -41.7050 O.2   157  ILE157     -0.2867
     21  CB        84.2620   26.5540  -39.9440 C.3   157  ILE157      0.0252
     22  CG1       83.5630   25.4600  -40.7530 C.3   157  ILE157      0.0019
     23  CG2       83.2610   27.4730  -39.2180 C.3   157  ILE157      0.0019
     24  CD1       82.8380   24.4330  -39.8960 C.3   157  ILE157      0.0001
     25  N         81.5290   28.3500  -44.5200 N.3   159  LYS159     -0.1245
     26  CA        80.1640   27.8370  -44.5410 C.3   159  LYS159      0.1561
     27  C         79.3570   28.4500  -45.6810 C.2   159  LYS159      0.2260
     28  O         79.4700   29.6450  -45.9610 O.2   159  LYS159     -0.2867
     29  CB        79.4710   28.1100  -43.1980 C.3   159  LYS159      0.0271
     30  CG        80.2250   27.5770  -41.9710 C.3   159  LYS159      0.0035
     31  CD        79.5870   28.0050  -40.6450 C.3   159  LYS159      0.0206
     32  CE        78.3570   27.1700  -40.2940 C.3   159  LYS159      0.1093
     33  NZ        77.7890   27.5170  -38.9520 N.3   159  LYS159     -0.1314
     34  N         73.1640   27.0460  -47.5590 N.3   163  GLY163     -0.1210
     35  CA        73.1960   25.6890  -47.0280 C.3   163  GLY163      0.1956
     36  C         72.2330   25.4670  -45.8830 C.2   163  GLY163      0.2612
     37  O         72.6400   25.4290  -44.7200 O.2   163  GLY163     -0.2717
     38  N         70.9510   25.3230  -46.2170 N.am  164  GLY164     -0.1942
     39  CA        69.9260   24.9700  -45.2380 C.3   164  GLY164      0.2014
     40  C         69.9520   23.4740  -44.9940 C.2   164  GLY164      0.2639
     41  O         68.9020   22.8290  -44.8880 O.2   164  GLY164     -0.2714
     42  N         71.1670   22.9300  -44.9120 N.am  165  GLY165     -0.1939
     43  CA        71.3960   21.4960  -44.7680 C.3   165  GLY165      0.2014
     44  C         72.8690   21.1980  -44.5650 C.2   165  GLY165      0.2639
     45  O         73.7200   22.0740  -44.7500 O.2   165  GLY165     -0.2714
     46  N         73.1570   19.9470  -44.2050 N.am  166  GLY166     -0.1954
     47  CA        74.4840   19.5120  -43.7520 C.3   166  GLY166      0.1869
     48  C         75.7060   19.9740  -44.5280 C.2   166  GLY166      0.2309
     49  O         76.6040   20.6090  -43.9580 O.2   166  GLY166     -0.2863
     50  N         80.5920   22.8870  -45.7580 N.3   169  MET169     -0.1245
     51  CA        81.3770   23.2880  -44.5960 C.3   169  MET169      0.1570
     52  C         82.7740   22.6990  -44.6500 C.2   169  MET169      0.2261
     53  O         82.9510   21.5160  -44.9520 O.2   169  MET169     -0.2867
     54  CB        80.6820   22.8650  -43.3030 C.3   169  MET169      0.0387
     55  CG        79.8450   23.9570  -42.6680 C.3   169  MET169      0.0595
     56  SD        78.7940   23.3950  -41.3160 S.3   169  MET169     -0.1393
     57  CE        79.8920   22.2980  -40.4220 C.3   169  MET169      0.0692
     58  N         83.4270   31.8110  -40.2090 N.3   201  GLU201     -0.1231
     59  CA        83.3280   32.0480  -38.7650 C.3   201  GLU201      0.1699
     60  C         84.3310   31.2210  -37.9750 C.2   201  GLU201      0.2592
     61  O         84.9250   30.2690  -38.5080 O.2   201  GLU201     -0.2718
     62  CB        81.8870   31.8750  -38.2380 C.3   201  GLU201      0.0402
     63  CG        81.2940   30.4930  -38.3860 C.3   201  GLU201      0.1161
     64  CD        79.8820   30.3750  -37.8110 C.2   201  GLU201      0.3649
     65  OE1       79.0920   31.3380  -37.9060 O.co2 201  GLU201     -0.2457
     66  OE2       79.5640   29.3020  -37.2620 O.co2 201  GLU201     -0.2457
     67  N         84.5290   31.6010  -36.7140 N.am  202  LYS202     -0.1966
     68  CA        85.4050   30.8740  -35.8060 C.3   202  LYS202      0.1728
     69  C         84.9600   29.4210  -35.7100 C.2   202  LYS202      0.2616
     70  O         83.7670   29.1320  -35.5860 O.2   202  LYS202     -0.2715
     71  CB        85.3890   31.5180  -34.4120 C.3   202  LYS202      0.0311
     72  CG        86.3480   30.9040  -33.3950 C.3   202  LYS202      0.0038
     73  CD        87.7420   31.5190  -33.4880 C.3   202  LYS202      0.0206
     74  CE        88.5950   31.1320  -32.2920 C.3   202  LYS202      0.1093
     75  NZ        89.9270   31.7920  -32.3480 N.3   202  LYS202     -0.1314
     76  N         85.9250   28.5140  -35.7770 N.am  203  TYR203     -0.1960
     77  CA        85.6460   27.1090  -35.5510 C.3   203  TYR203      0.1771
     78  C         85.7890   26.7770  -34.0680 C.2   203  TYR203      0.2619
     79  O         86.8500   26.9710  -33.4860 O.2   203  TYR203     -0.2715
     80  CB        86.5640   26.2340  -36.4050 C.3   203  TYR203      0.0574
     81  CG        86.2680   24.7630  -36.2680 C.ar  203  TYR203     -0.0198
     82  CD1       85.1000   24.2160  -36.8000 C.ar  203  TYR203     -0.0009
     83  CD2       87.1500   23.9150  -35.5940 C.ar  203  TYR203     -0.0009
     84  CE1       84.8120   22.8550  -36.6680 C.ar  203  TYR203      0.0417
     85  CE2       86.8770   22.5530  -35.4580 C.ar  203  TYR203      0.0417
     86  CZ        85.7120   22.0320  -36.0040 C.ar  203  TYR203      0.1957
     87  OH        85.4380   20.6920  -35.8770 O.3   203  TYR203     -0.2866
     88  N         84.7090   26.2890  -33.4580 N.am  204  LEU204     -0.1977
     89  CA        84.7200   25.9600  -32.0350 C.3   204  LEU204      0.1596
     90  C         85.0540   24.4830  -31.8460 C.2   204  LEU204      0.2287
     91  O         84.4190   23.6130  -32.4410 O.2   204  LEU204     -0.2864
     92  CB        83.3790   26.3190  -31.3800 C.3   204  LEU204      0.0297
     93  CG        82.8880   27.7620  -31.5410 C.3   204  LEU204      0.0022
     94  CD1       81.4770   27.9140  -30.9970 C.3   204  LEU204      0.0001
     95  CD2       83.8320   28.7650  -30.8750 C.3   204  LEU204      0.0001
     96  N         82.4490   22.3570  -28.3740 N.3   207  PRO207     -0.2116
     97  CA        81.1710   22.9160  -27.9390 C.3   207  PRO207      0.1372
     98  C         80.0920   21.8580  -27.7200 C.2   207  PRO207      0.2244
     99  O         80.1800   20.7590  -28.2630 O.2   207  PRO207     -0.2868
    100  CB        80.7680   23.7810  -29.1280 C.3   207  PRO207      0.0268
    101  CG        81.2860   23.0130  -30.3170 C.3   207  PRO207      0.0207
    102  CD        82.5340   22.2930  -29.8480 C.3   207  PRO207      0.0892
    103  N         75.8290   21.2930  -28.2680 N.3   209  HIS209     -0.1241
    104  CA        74.7320   21.8520  -29.0360 C.3   209  HIS209      0.1621
    105  C         73.5770   22.1130  -28.0820 C.2   209  HIS209      0.2264
    106  O         72.9720   21.1740  -27.5650 O.2   209  HIS209     -0.2867
    107  CB        74.2970   20.9100  -30.1580 C.3   209  HIS209      0.0745
    108  CG        73.1180   21.4130  -30.9320 C.ar  209  HIS209      0.0817
    109  ND1       73.2230   21.8860  -32.2220 N.ar  209  HIS209     -0.2268
    110  CD2       71.8180   21.5620  -30.5810 C.ar  209  HIS209      0.1154
    111  CE1       72.0310   22.2740  -32.6440 C.ar  209  HIS209      0.1986
    112  NE2       71.1630   22.0980  -31.6640 N.ar  209  HIS209     -0.2212
    113  N         75.4850   13.4070  -31.7890 N.3   233  GLN233     -0.1245
    114  CA        75.2860   13.5120  -33.2260 C.3   233  GLN233      0.1566
    115  C         76.1980   12.5570  -33.9850 C.2   233  GLN233      0.2260
    116  O         77.2750   12.1870  -33.5060 O.2   233  GLN233     -0.2867
    117  CB        75.5410   14.9430  -33.7030 C.3   233  GLN233      0.0367
    118  CG        74.5130   15.9590  -33.2290 C.3   233  GLN233      0.0905
    119  CD        74.9000   17.3930  -33.5360 C.2   233  GLN233      0.2608
    120  OE1       75.6640   17.6690  -34.4640 O.2   233  GLN233     -0.2717
    121  NE2       74.3680   18.3200  -32.7520 N.am  233  GLN233     -0.0878
    122  N         76.5730   15.1830  -38.0500 N.3   236  HIS236     -0.1241
    123  CA        75.7740   16.3680  -37.7250 C.3   236  HIS236      0.1621
    124  C         74.2620   16.0950  -37.6750 C.2   236  HIS236      0.2264
    125  O         73.4530   17.0210  -37.6210 O.2   236  HIS236     -0.2867
    126  CB        76.1350   17.5420  -38.6530 C.3   236  HIS236      0.0745
    127  CG        77.6100   17.6840  -38.8910 C.ar  236  HIS236      0.0817
    128  ND1       78.4820   18.1240  -37.9180 N.ar  236  HIS236     -0.2268
    129  CD2       78.3660   17.4250  -39.9850 C.ar  236  HIS236      0.1154
    130  CE1       79.7100   18.1430  -38.4050 C.ar  236  HIS236      0.1986
    131  NE2       79.6690   17.7190  -39.6570 N.ar  236  HIS236     -0.2212
    132  N         69.3320   27.6950  -32.4870 N.3   276  GLU276     -0.1245
    133  CA        70.3810   26.7290  -32.1940 C.3   276  GLU276      0.1567
    134  C         71.6940   27.4330  -31.9010 C.2   276  GLU276      0.2260
    135  O         72.1200   28.3150  -32.6620 O.2   276  GLU276     -0.2867
    136  CB        70.5570   25.7450  -33.3460 C.3   276  GLU276      0.0388
    137  CG        69.3360   24.8510  -33.6000 C.3   276  GLU276      0.1160
    138  CD        69.6180   23.7700  -34.6300 C.2   276  GLU276      0.3649
    139  OE1       70.5460   23.9550  -35.4300 O.co2 276  GLU276     -0.2457
    140  OE2       68.9110   22.7420  -34.6490 O.co2 276  GLU276     -0.2457
    141  N         75.9090   26.9510  -30.3460 N.3   278  LEU278     -0.1245
    142  CA        77.0340   26.2070  -29.8150 C.3   278  LEU278      0.1561
    143  C         77.3610   26.7980  -28.4510 C.2   278  LEU278      0.2260
    144  O         77.4620   28.0200  -28.2950 O.2   278  LEU278     -0.2867
    145  CB        78.2260   26.3090  -30.7660 C.3   278  LEU278      0.0270
    146  CG        78.4710   25.2060  -31.8140 C.3   278  LEU278      0.0019
    147  CD1       77.3260   24.2230  -32.0020 C.3   278  LEU278      0.0001
    148  CD2       78.9180   25.8010  -33.1440 C.3   278  LEU278      0.0001
    149  N         74.2290   29.7690  -34.1850 N.3   287  ILE287     -0.1231
    150  CA        74.6230   29.2350  -35.4880 C.3   287  ILE287      0.1692
    151  C         73.4910   29.2910  -36.5090 C.2   287  ILE287      0.2591
    152  O         73.7210   29.6160  -37.6810 O.2   287  ILE287     -0.2718
    153  CB        75.2880   27.8420  -35.4050 C.3   287  ILE287      0.0266
    154  CG1       74.4550   26.8660  -34.5690 C.3   287  ILE287      0.0019
    155  CG2       76.7030   27.9950  -34.8300 C.3   287  ILE287      0.0020
    156  CD1       74.8190   25.3840  -34.7780 C.3   287  ILE287      0.0001
    157  N         72.2740   28.9800  -36.0620 N.am  288  GLU288     -0.1979
    158  CA        71.1020   29.1540  -36.9120 C.3   288  GLU288      0.1602
    159  C         69.7670   29.0800  -36.1830 C.2   288  GLU288      0.2287
    160  O         69.6920   28.7060  -35.0100 O.2   288  GLU288     -0.2864
    161  CB        71.1130   28.1780  -38.0840 C.3   288  GLU288      0.0415
    162  CG        70.7080   26.7850  -37.7430 C.3   288  GLU288      0.1163
    163  CD        70.3860   25.9870  -38.9780 C.2   288  GLU288      0.3649
    164  OE1       70.0860   26.5890  -40.0350 O.co2 288  GLU288     -0.2457
    165  OE2       70.4320   24.7450  -38.8890 O.co2 288  GLU288     -0.2457
    166  N         79.7600   17.8580  -28.9770 N.3   437  ILE437     -0.1231
    167  CA        79.2140   17.4580  -30.2820 C.3   437  ILE437      0.1692
    168  C         80.0260   16.3770  -31.0220 C.2   437  ILE437      0.2592
    169  O         79.5690   15.8380  -32.0290 O.2   437  ILE437     -0.2718
    170  CB        78.9560   18.6750  -31.2210 C.3   437  ILE437      0.0266
    171  CG1       80.2460   19.4720  -31.4630 C.3   437  ILE437      0.0019
    172  CG2       77.8460   19.5620  -30.6550 C.3   437  ILE437      0.0020
    173  CD1       80.1570   20.4950  -32.5990 C.3   437  ILE437      0.0001
    174  N         81.2190   16.0640  -30.5130 N.am  438  HIS438     -0.1976
    175  CA        82.1080   15.0960  -31.1580 C.3   438  HIS438      0.1656
    176  C         82.0910   13.7430  -30.4820 C.2   438  HIS438      0.2291
    177  O         82.6870   12.7880  -30.9910 O.2   438  HIS438     -0.2864
    178  CB        83.5430   15.6270  -31.1740 C.3   438  HIS438      0.0771
    179  CG        83.6680   16.9860  -31.7760 C.ar  438  HIS438      0.0820
    180  ND1       83.3520   17.2430  -33.0910 N.ar  438  HIS438     -0.2267
    181  CD2       84.0440   18.1680  -31.2380 C.ar  438  HIS438      0.1154
    182  CE1       83.5400   18.5240  -33.3430 C.ar  438  HIS438      0.1986
    183  NE2       83.9640   19.1070  -32.2360 N.ar  438  HIS438     -0.2212
@<TRIPOS>BOND
     1    34    35    1
     2    35    36    1
     3    38    36   am
     4    38    39    1
     5    28    27    2
     6    36    37    2
     7    50    51    1
     8    27    26    1
     9    39    40    1
    10    40    42   am
    11    40    41    2
    12    53    52    2
    13    42    43    1
    14    43    44    1
    15    45    44    2
    16    52    51    1
    17    51    54    1
    18    44    46   am
    19    26    25    1
    20    26    29    1
    21    48    49    2
    22    48    47    1
    23    46    47    1
    24     1     2    1
    25    54    55    1
    26    29    30    1
    27     2     5    1
    28     2     3    1
    29     5     6    1
    30     6     7    1
    31     3     4    2
    32    55    56    1
    33     7     8    1
    34    30    31    1
    35    19    20    2
    36    19    18    1
    37     8     9    1
    38    56    57    1
    39    18    17    1
    40    18    21    1
    41    22    21    1
    42    22    24    1
    43    31    32    1
    44    32    33    1
    45    58    59    1
    46   164   163   ar
    47   129   131   ar
    48   129   127   ar
    49    21    23    1
    50   131   130   ar
    51   163   165   ar
    52   163   162    1
    53   127   126    1
    54   127   128   ar
    55    59    62    1
    56    59    60    1
    57   126   123    1
    58    61    60    2
    59   130   128   ar
    60    63    62    1
    61    63    64    1
    62   161   162    1
    63   161   158    1
    64   122   123    1
    65    60    67   am
    66    65    64   ar
    67    64    66   ar
    68   123   124    1
    69   152   151    2
    70   124   125    2
    71   158   159    1
    72   158   157    1
    73    82    84   ar
    74    82    81   ar
    75    67    68    1
    76    84    86   ar
    77   151   157   am
    78   151   150    1
    79    80    81    1
    80    80    77    1
    81    81    83   ar
    82   159   160    2
    83    86    87    1
    84    86    85   ar
    85    68    69    1
    86    68    71    1
    87    76    69   am
    88    76    77    1
    89    69    70    2
    90    83    85   ar
    91    77    78    1
    92   150   153    1
    93   150   149    1
    94   139   138   ar
    95   153   155    1
    96   153   154    1
    97    13    12    2
    98   156   154    1
    99   140   138   ar
   100   138   137    1
   101   120   119    2
   102    15    14    1
   103    71    72    1
   104    14    16    1
   105    14    11    1
   106    12    11    1
   107    78    79    2
   108    78    88   am
   109   115   116    2
   110   115   114    1
   111   117   118    1
   112   117   114    1
   113   137   136    1
   114   119   118    1
   115   119   121   am
   116    11    10    1
   117    73    72    1
   118    73    74    1
   119    88    89    1
   120   136   133    1
   121   182   180   ar
   122   182   183   ar
   123   114   113    1
   124   148   146    1
   125   180   179   ar
   126   135   134    2
   127   111   109   ar
   128   111   112   ar
   129   173   171    1
   130   132   133    1
   131    91    90    2
   132    75    74    1
   133   183   181   ar
   134   109   108   ar
   135   133   134    1
   136    89    90    1
   137    89    92    1
   138   169   168    2
   139   147   146    1
   140   146   145    1
   141   179   181   ar
   142   179   178    1
   143   112   110   ar
   144    93    92    1
   145    93    94    1
   146    93    95    1
   147   171   170    1
   148   170   172    1
   149   170   167    1
   150   178   175    1
   151   175   174    1
   152   175   176    1
   153   168   174   am
   154   168   167    1
   155   177   176    2
   156   108   110   ar
   157   108   107    1
   158   145   142    1
   159   141   142    1
   160   101   102    1
   161   101   100    1
   162   167   166    1
   163   107   104    1
   164   102    96    1
   165   142   143    1
   166   100    97    1
   167   104   103    1
   168   104   105    1
   169   143   144    2
   170    96    97    1
   171    99    98    2
   172   105   106    2
   173    97    98    1
