@<TRIPOS>MOLECULE
tmp/3g8eA00.pdb
 228 217 0 0 0
SMALL
GASTEIGER

@<TRIPOS>ATOM
      1  N         41.5980    3.9180  -13.4410 N.3   168  TYR168     -0.1227
      2  CA        41.4100    2.5090  -13.7660 C.3   168  TYR168      0.1736
      3  C         41.1180    1.7160  -12.4950 C.2   168  TYR168      0.2595
      4  O         41.3080    0.5070  -12.4510 O.2   168  TYR168     -0.2718
      5  CB        42.6580    1.9380  -14.4670 C.3   168  TYR168      0.0548
      6  CG        42.9260    2.5030  -15.8630 C.ar  168  TYR168     -0.0200
      7  CD1       43.7860    3.5920  -16.0500 C.ar  168  TYR168     -0.0009
      8  CD2       42.3030    1.9550  -16.9990 C.ar  168  TYR168     -0.0009
      9  CE1       44.0170    4.1220  -17.3270 C.ar  168  TYR168      0.0417
     10  CE2       42.5290    2.4810  -18.2850 C.ar  168  TYR168      0.0417
     11  CZ        43.3850    3.5630  -18.4370 C.ar  168  TYR168      0.1957
     12  OH        43.5940    4.0950  -19.6890 O.3   168  TYR168     -0.2866
     13  N         40.6250    2.3910  -11.4650 N.am  169  LYS169     -0.1980
     14  CA        40.3690    1.7150  -10.1970 C.3   169  LYS169      0.1596
     15  C         38.9620    1.1320   -9.9890 C.2   169  LYS169      0.2287
     16  O         38.7620    0.2980   -9.1120 O.2   169  LYS169     -0.2864
     17  CB        40.7230    2.6590   -9.0410 C.3   169  LYS169      0.0298
     18  CG        41.4950    1.9770   -7.9260 C.3   169  LYS169      0.0038
     19  CD        42.9830    2.3470   -7.9430 C.3   169  LYS169      0.0206
     20  CE        43.8490    1.2260   -7.3600 C.3   169  LYS169      0.1093
     21  NZ        45.2320    1.6680   -7.0770 N.3   169  LYS169     -0.1314
     22  N         36.0470   -0.7810  -12.1620 N.3   171  HIS171     -0.1241
     23  CA        35.7600   -1.3570  -13.4590 C.3   171  HIS171      0.1621
     24  C         34.2710   -1.6870  -13.5700 C.2   171  HIS171      0.2264
     25  O         33.6840   -2.3000  -12.6690 O.2   171  HIS171     -0.2867
     26  CB        36.6420   -2.6040  -13.6560 C.3   171  HIS171      0.0745
     27  CG        36.9240   -2.9410  -15.0920 C.ar  171  HIS171      0.0817
     28  ND1       36.2160   -3.8990  -15.7900 N.ar  171  HIS171     -0.2268
     29  CD2       37.8470   -2.4560  -15.9550 C.ar  171  HIS171      0.1154
     30  CE1       36.6910   -3.9890  -17.0180 C.ar  171  HIS171      0.1986
     31  NE2       37.6800   -3.1250  -17.1450 N.ar  171  HIS171     -0.2212
     32  N         31.2400   -3.7100  -14.6070 N.3   173  PHE173     -0.1241
     33  CA        30.8630   -5.0900  -14.9360 C.3   173  PHE173      0.1605
     34  C         29.3780   -5.1210  -15.3600 C.2   173  PHE173      0.2264
     35  O         28.8410   -6.1370  -15.8080 O.2   173  PHE173     -0.2867
     36  CB        31.0500   -5.9940  -13.7070 C.3   173  PHE173      0.0534
     37  CG        32.4860   -6.2020  -13.3050 C.ar  173  PHE173     -0.0203
     38  CD1       33.5370   -5.6290  -14.0090 C.ar  173  PHE173     -0.0042
     39  CD2       32.7960   -7.0140  -12.2380 C.ar  173  PHE173     -0.0042
     40  CE1       34.8920   -5.8820  -13.6340 C.ar  173  PHE173     -0.0003
     41  CE2       34.1310   -7.2880  -11.8480 C.ar  173  PHE173     -0.0003
     42  CZ        35.1720   -6.7220  -12.5470 C.ar  173  PHE173     -0.0000
     43  N         27.2360   -4.7720  -17.7390 N.3   175  TYR175     -0.1227
     44  CA        26.5880   -5.4360  -18.8740 C.3   175  TYR175      0.1736
     45  C         25.4990   -6.5080  -18.6490 C.2   175  TYR175      0.2595
     46  O         24.3930   -6.4010  -19.2050 O.2   175  TYR175     -0.2718
     47  CB        27.6570   -5.9640  -19.8360 C.3   175  TYR175      0.0548
     48  CG        27.2720   -5.8240  -21.3010 C.ar  175  TYR175     -0.0200
     49  CD1       28.1910   -6.1060  -22.3060 C.ar  175  TYR175     -0.0009
     50  CD2       25.9760   -5.4560  -21.6800 C.ar  175  TYR175     -0.0009
     51  CE1       27.8360   -6.0390  -23.6500 C.ar  175  TYR175      0.0417
     52  CE2       25.6090   -5.3870  -23.0220 C.ar  175  TYR175      0.0417
     53  CZ        26.5460   -5.6840  -24.0030 C.ar  175  TYR175      0.1957
     54  OH        26.2020   -5.6590  -25.3390 O.3   175  TYR175     -0.2866
     55  N         25.7860   -7.5340  -17.8550 N.am  176  ARG176     -0.1966
     56  CA        24.7820   -8.5610  -17.6350 C.3   176  ARG176      0.1729
     57  C         23.8400   -8.1250  -16.5260 C.2   176  ARG176      0.2616
     58  O         22.7880   -8.7420  -16.3070 O.2   176  ARG176     -0.2715
     59  CB        25.4360   -9.8870  -17.2650 C.3   176  ARG176      0.0348
     60  CG        26.0370   -9.9150  -15.8820 C.3   176  ARG176      0.0492
     61  CD        26.2270  -11.3500  -15.4260 C.3   176  ARG176      0.2205
     62  NE        27.6300  -11.7310  -15.2420 N.pl3 176  ARG176     -0.0865
     63  CZ        28.5450  -11.7740  -16.2060 C.cat 176  ARG176      0.5346
     64  NH1       28.2240  -11.4510  -17.4470 N.pl3 176  ARG176      0.1354
     65  NH2       29.7780  -12.1690  -15.9340 N.pl3 176  ARG176      0.1354
     66  N         24.2170   -7.0410  -15.8450 N.am  177  GLY177     -0.1955
     67  CA        23.4260   -6.5260  -14.7410 C.3   177  GLY177      0.1869
     68  C         22.3560   -5.5120  -15.0810 C.2   177  GLY177      0.2309
     69  O         21.5280   -5.2070  -14.2260 O.2   177  GLY177     -0.2863
     70  N         33.9340   -3.2690  -19.3190 N.3   199  ASP199     -0.1239
     71  CA        33.7670   -4.5350  -20.0200 C.3   199  ASP199      0.1674
     72  C         32.5760   -4.4120  -20.9600 C.2   199  ASP199      0.2266
     73  O         32.4610   -5.1400  -21.9420 O.2   199  ASP199     -0.2867
     74  CB        33.5720   -5.6890  -19.0380 C.3   199  ASP199      0.1410
     75  CG        34.7330   -6.6830  -19.0750 C.2   199  ASP199      0.3668
     76  OD1       35.8760   -6.2670  -18.7800 O.co2 199  ASP199     -0.2456
     77  OD2       34.5050   -7.8680  -19.4060 O.co2 199  ASP199     -0.2456
     78  N         40.1390   -2.8480  -21.3960 N.3   221  SER221     -0.1202
     79  CA        39.9700   -4.0320  -20.5650 C.3   221  SER221      0.2020
     80  C         41.1020   -5.0160  -20.8150 C.2   221  SER221      0.2618
     81  O         41.9220   -4.8170  -21.7110 O.2   221  SER221     -0.2717
     82  CB        38.6350   -4.7160  -20.8400 C.3   221  SER221      0.2103
     83  OG        38.4570   -5.8220  -19.9640 O.3   221  SER221     -0.2182
     84  N         41.1400   -6.0760  -20.0150 N.am  222  VAL222     -0.1979
     85  CA        42.1790   -7.0900  -20.1410 C.3   222  VAL222      0.1595
     86  C         41.5480   -8.4680  -20.0990 C.2   222  VAL222      0.2287
     87  O         40.3550   -8.6030  -19.8350 O.2   222  VAL222     -0.2864
     88  CB        43.1940   -7.0030  -18.9800 C.3   222  VAL222      0.0276
     89  CG1       43.5500   -5.5490  -18.7140 C.3   222  VAL222      0.0022
     90  CG2       42.6280   -7.6770  -17.7320 C.3   222  VAL222      0.0022
     91  N         40.5660  -11.9840  -18.5640 N.3   224  ALA224     -0.1245
     92  CA        40.3370  -12.4810  -17.2250 C.3   224  ALA224      0.1562
     93  C         39.6230  -13.8200  -17.3250 C.2   224  ALA224      0.2260
     94  O         39.1770  -14.2220  -18.4020 O.2   224  ALA224     -0.2867
     95  CB        39.4940  -11.4870  -16.4450 C.3   224  ALA224      0.0290
     96  N         33.8630  -17.9840  -13.9030 N.3   227  HIS227     -0.1241
     97  CA        33.7060  -19.2130  -13.1450 C.3   227  HIS227      0.1621
     98  C         33.7540  -20.4960  -13.9700 C.2   227  HIS227      0.2264
     99  O         34.1560  -21.5390  -13.4640 O.2   227  HIS227     -0.2867
    100  CB        32.4400  -19.1340  -12.2860 C.3   227  HIS227      0.0745
    101  CG        32.5660  -18.1830  -11.1350 C.ar  227  HIS227      0.0817
    102  ND1       33.3870  -18.4300  -10.0530 N.ar  227  HIS227     -0.2268
    103  CD2       32.0460  -16.9500  -10.9350 C.ar  227  HIS227      0.1154
    104  CE1       33.3680  -17.3880   -9.2410 C.ar  227  HIS227      0.1986
    105  NE2       32.5630  -16.4740   -9.7550 N.ar  227  HIS227     -0.2212
    106  N         48.4690   -8.0990  -18.6080 N.3   253  PRO253     -0.2116
    107  CA        47.9720   -8.2510  -17.2360 C.3   253  PRO253      0.1372
    108  C         46.8150   -9.2440  -17.3330 C.2   253  PRO253      0.2244
    109  O         46.1720   -9.3350  -18.3850 O.2   253  PRO253     -0.2868
    110  CB        47.4800   -6.8470  -16.8850 C.3   253  PRO253      0.0268
    111  CG        48.3250   -5.9650  -17.7270 C.3   253  PRO253      0.0207
    112  CD        48.3520   -6.6920  -19.0370 C.3   253  PRO253      0.0892
    113  N         43.4620  -11.2510  -15.0150 N.3   255  SER255     -0.1217
    114  CA        42.6460  -11.4400  -13.8280 C.3   255  SER255      0.1889
    115  C         42.0740  -12.8470  -13.7590 C.2   255  SER255      0.2288
    116  O         41.5270  -13.3430  -14.7430 O.2   255  SER255     -0.2866
    117  CB        41.5070  -10.4340  -13.8440 C.3   255  SER255      0.2089
    118  OG        41.1810  -10.0480  -12.5260 O.3   255  SER255     -0.2183
    119  N         50.7880   -7.6250  -14.6230 N.3   287  PRO287     -0.2116
    120  CA        50.6050   -8.2340  -13.3130 C.3   287  PRO287      0.1372
    121  C         49.5850   -9.3620  -13.3560 C.2   287  PRO287      0.2244
    122  O         48.8290   -9.5200  -14.3250 O.2   287  PRO287     -0.2868
    123  CB        50.1100   -7.0690  -12.4700 C.3   287  PRO287      0.0268
    124  CG        49.2830   -6.3020  -13.4510 C.3   287  PRO287      0.0207
    125  CD        50.1970   -6.2750  -14.6510 C.3   287  PRO287      0.0892
    126  N         46.5130  -10.1020  -11.7700 N.3   289  ILE289     -0.1245
    127  CA        45.4790   -9.5310  -10.9240 C.3   289  ILE289      0.1561
    128  C         44.6270  -10.6900  -10.3910 C.2   289  ILE289      0.2260
    129  O         44.1930  -11.5570  -11.1450 O.2   289  ILE289     -0.2867
    130  CB        44.5980   -8.5090  -11.7120 C.3   289  ILE289      0.0252
    131  CG1       45.4590   -7.3320  -12.2230 C.3   289  ILE289      0.0019
    132  CG2       43.4570   -8.0130  -10.8480 C.3   289  ILE289      0.0019
    133  CD1       46.1460   -6.5260  -11.1230 C.3   289  ILE289      0.0001
    134  N         41.2630  -12.1930   -8.2800 N.3   291  ARG291     -0.1245
    135  CA        39.8820  -11.8070   -8.1050 C.3   291  ARG291      0.1563
    136  C         38.9250  -12.5590   -7.2090 C.2   291  ARG291      0.2260
    137  O         38.4410  -13.6350   -7.5790 O.2   291  ARG291     -0.2867
    138  CB        39.2420  -11.7310   -9.4860 C.3   291  ARG291      0.0307
    139  CG        38.3150  -10.5630   -9.7070 C.3   291  ARG291      0.0489
    140  CD        37.6810  -10.6630  -11.0820 C.3   291  ARG291      0.2205
    141  NE        36.6080  -11.6510  -11.0900 N.pl3 291  ARG291     -0.0865
    142  CZ        35.9980  -12.0780  -12.1850 C.cat 291  ARG291      0.5346
    143  NH1       36.3680  -11.6070  -13.3670 N.pl3 291  ARG291      0.1354
    144  NH2       35.0150  -12.9610  -12.0960 N.pl3 291  ARG291      0.1354
    145  N         35.2820  -13.0750   -5.2210 N.3   293  ASP293     -0.1239
    146  CA        33.8600  -12.8650   -5.5570 C.3   293  ASP293      0.1674
    147  C         33.1860  -13.6340   -4.4120 C.2   293  ASP293      0.2266
    148  O         32.2610  -14.4130   -4.6050 O.2   293  ASP293     -0.2867
    149  CB        33.5880  -13.5230   -6.9380 C.3   293  ASP293      0.1410
    150  CG        32.1070  -13.5680   -7.3260 C.2   293  ASP293      0.3668
    151  OD1       31.6650  -14.6080   -7.8740 O.co2 293  ASP293     -0.2456
    152  OD2       31.3830  -12.5740   -7.1160 O.co2 293  ASP293     -0.2456
    153  N         48.6120   -8.1310   -7.8440 N.3   329  ARG329     -0.1231
    154  CA        47.5980   -7.1990   -7.3300 C.3   329  ARG329      0.1694
    155  C         46.2140   -7.8140   -7.2050 C.2   329  ARG329      0.2592
    156  O         46.0110   -8.9690   -7.5700 O.2   329  ARG329     -0.2718
    157  CB        47.5230   -5.9380   -8.1830 C.3   329  ARG329      0.0321
    158  CG        48.8700   -5.3050   -8.3540 C.3   329  ARG329      0.0489
    159  CD        48.8220   -3.8090   -8.4580 C.3   329  ARG329      0.2205
    160  NE        50.1350   -3.2480   -8.1400 N.pl3 329  ARG329     -0.0865
    161  CZ        50.8350   -3.5550   -7.0480 C.cat 329  ARG329      0.5346
    162  NH1       50.3600   -4.4210   -6.1550 N.pl3 329  ARG329      0.1354
    163  NH2       52.0230   -2.9970   -6.8480 N.pl3 329  ARG329      0.1354
    164  N         45.2640   -7.0230   -6.7020 N.am  330  VAL330     -0.1966
    165  CA        43.8990   -7.4890   -6.4470 C.3   330  VAL330      0.1727
    166  C         42.7330   -6.5740   -6.8540 C.2   330  VAL330      0.2616
    167  O         42.8380   -5.3540   -6.8060 O.2   330  VAL330     -0.2715
    168  CB        43.7420   -7.7640   -4.9340 C.3   330  VAL330      0.0290
    169  CG1       42.3550   -8.3110   -4.6290 C.3   330  VAL330      0.0023
    170  CG2       44.8210   -8.7140   -4.4750 C.3   330  VAL330      0.0023
    171  N         41.6110   -7.1680   -7.2450 N.am  331  ILE331     -0.1977
    172  CA        40.4200   -6.3790   -7.5690 C.3   331  ILE331      0.1596
    173  C         39.1740   -7.0080   -6.9610 C.2   331  ILE331      0.2287
    174  O         38.9560   -8.2220   -7.0720 O.2   331  ILE331     -0.2864
    175  CB        40.1530   -6.2110   -9.1070 C.3   331  ILE331      0.0276
    176  CG1       39.9950   -7.5810   -9.7720 C.3   331  ILE331      0.0022
    177  CG2       41.2590   -5.3620   -9.7400 C.3   331  ILE331      0.0022
    178  CD1       39.4270   -7.5100  -11.1730 C.3   331  ILE331      0.0001
    179  N         35.6000   -7.3820   -7.4020 N.3   333  GLY333     -0.1210
    180  CA        34.6320   -7.2290   -8.4770 C.3   333  GLY333      0.1956
    181  C         33.2070   -7.5920   -8.1270 C.2   333  GLY333      0.2611
    182  O         32.3030   -7.5080   -8.9640 O.2   333  GLY333     -0.2717
    183  N         33.0070   -7.9850   -6.8780 N.am  334  ASP334     -0.1973
    184  CA        31.6880   -8.3600   -6.4210 C.3   334  ASP334      0.1709
    185  C         31.3510   -7.7620   -5.0770 C.2   334  ASP334      0.2293
    186  O         32.1170   -7.8870   -4.1300 O.2   334  ASP334     -0.2864
    187  CB        31.5740   -9.8760   -6.3400 C.3   334  ASP334      0.1436
    188  CG        30.4240  -10.3210   -5.4700 C.2   334  ASP334      0.3671
    189  OD1       30.5550  -10.2290   -4.2260 O.co2 334  ASP334     -0.2456
    190  OD2       29.3890  -10.7460   -6.0320 O.co2 334  ASP334     -0.2456
    191  N         46.5450    1.1030   -3.5020 N.3   356  GLU356     -0.1231
    192  CA        47.0380    0.6900   -4.8140 C.3   356  GLU356      0.1699
    193  C         47.1190   -0.8010   -5.1120 C.2   356  GLU356      0.2592
    194  O         47.1230   -1.2030   -6.2740 O.2   356  GLU356     -0.2718
    195  CB        48.4200    1.2840   -5.0620 C.3   356  GLU356      0.0402
    196  CG        49.0040    2.0450   -3.8980 C.3   356  GLU356      0.1161
    197  CD        50.4790    2.3270   -4.1140 C.2   356  GLU356      0.3649
    198  OE1       51.0760    3.1110   -3.3300 O.co2 356  GLU356     -0.2457
    199  OE2       51.0390    1.7470   -5.0780 O.co2 356  GLU356     -0.2457
    200  N         47.2210   -1.6300   -4.0870 N.am  357  ASN357     -0.1960
    201  CA        47.3080   -3.0530   -4.3540 C.3   357  ASN357      0.1819
    202  C         45.9420   -3.5070   -4.8610 C.2   357  ASN357      0.2621
    203  O         45.7920   -4.5880   -5.4290 O.2   357  ASN357     -0.2715
    204  CB        47.6510   -3.8140   -3.0680 C.3   357  ASN357      0.1195
    205  CG        48.6920   -3.1080   -2.2220 C.2   357  ASN357      0.2630
    206  OD1       49.8460   -2.9720   -2.6190 O.2   357  ASN357     -0.2716
    207  ND2       48.2840   -2.6580   -1.0410 N.am  357  ASN357     -0.0877
    208  N         44.9490   -2.6510   -4.6750 N.am  358  VAL358     -0.1963
    209  CA        43.5980   -3.0080   -5.0310 C.3   358  VAL358      0.1727
    210  C         42.8240   -2.0220   -5.8750 C.2   358  VAL358      0.2616
    211  O         42.8460   -0.8340   -5.6170 O.2   358  VAL358     -0.2715
    212  CB        42.7960   -3.2730   -3.7440 C.3   358  VAL358      0.0290
    213  CG1       41.3270   -3.4730   -4.0680 C.3   358  VAL358      0.0023
    214  CG2       43.3570   -4.4930   -3.0290 C.3   358  VAL358      0.0023
    215  N         42.1350   -2.5560   -6.8820 N.am  359  SER359     -0.1950
    216  CA        41.2670   -1.7990   -7.7890 C.3   359  SER359      0.1924
    217  C         39.9040   -2.4550   -7.6190 C.2   359  SER359      0.2314
    218  O         39.8030   -3.5320   -7.0500 O.2   359  SER359     -0.2863
    219  CB        41.7020   -1.9550   -9.2530 C.3   359  SER359      0.2116
    220  OG        40.6580   -2.5170  -10.0530 O.3   359  SER359     -0.2180
    221  N         29.0670   -4.2180  -10.3000 N.3   363  GLY363     -0.1210
    222  CA        28.1250   -4.6610  -11.3100 C.3   363  GLY363      0.1956
    223  C         26.9000   -3.7680  -11.4000 C.2   363  GLY363      0.2612
    224  O         26.9760   -2.6080  -11.8170 O.2   363  GLY363     -0.2717
    225  N         25.7650   -4.3160  -10.9910 N.am  364  GLY364     -0.1956
    226  CA        24.5160   -3.5810  -11.0330 C.3   364  GLY364      0.1869
    227  C         24.4400   -2.3710  -10.1240 C.2   364  GLY364      0.2309
    228  O         23.6110   -1.4910  -10.3420 O.2   364  GLY364     -0.2863
@<TRIPOS>BOND
     1    54    53    1
     2    53    51   ar
     3    53    52   ar
     4    51    49   ar
     5    52    50   ar
     6    49    48   ar
     7    73    72    2
     8    81    80    2
     9    50    48   ar
    10    78    79    1
    11    48    47    1
    12    72    71    1
    13    82    79    1
    14    82    83    1
    15    80    79    1
    16    80    84   am
    17    85    86    1
    18    85    84    1
    19    85    88    1
    20    86    87    2
    21    71    70    1
    22    71    74    1
    23    47    44    1
    24    12    11    1
    25    77    75   ar
    26    46    45    2
    27    75    74    1
    28    75    76   ar
    29   112   106    1
    30   112   111    1
    31    88    89    1
    32    88    90    1
    33    44    45    1
    34    44    43    1
    35    45    55   am
    36   106   107    1
    37    91    92    1
    38    11    10   ar
    39    11     9   ar
    40    94    93    2
    41   109   108    2
    42    10     8   ar
    43    55    56    1
    44   111   110    1
    45    56    59    1
    46    56    57    1
    47    64    63    1
    48   108   107    1
    49     9     7   ar
    50    93    92    1
    51    59    60    1
    52   107   110    1
    53    92    95    1
    54    31    30   ar
    55    31    29   ar
    56    30    28   ar
    57     8     6   ar
    58    57    58    2
    59    57    66   am
    60    63    65    1
    61    63    62    2
    62     7     6   ar
    63    29    27   ar
    64    60    61    1
    65     6     5    1
    66    66    67    1
    67    35    34    2
    68    28    27   ar
    69    61    62    1
    70    34    33    1
    71    27    26    1
    72    68    67    1
    73    68    69    2
    74   113   114    1
    75    33    32    1
    76    33    36    1
    77   116   115    2
    78   125   119    1
    79   125   124    1
    80   119   120    1
    81     5     2    1
    82   122   121    2
    83    38    40   ar
    84    38    37   ar
    85    98    99    2
    86    98    97    1
    87    96    97    1
    88   117   114    1
    89   117   118    1
    90   114   115    1
    91     2     1    1
    92     2     3    1
    93    36    37    1
    94    26    23    1
    95    40    42   ar
    96    24    23    1
    97    24    25    2
    98    23    22    1
    99   124   123    1
   100   143   142    1
   101   121   120    1
   102   120   123    1
   103    37    39   ar
   104    97   100    1
   105    42    41   ar
   106     3     4    2
   107     3    13   am
   108   100   101    1
   109    39    41   ar
   110   131   130    1
   111   131   133    1
   112   142   144    1
   113   142   141    2
   114   224   223    2
   115   126   127    1
   116   130   127    1
   117   130   132    1
   118    13    14    1
   119   223   222    1
   120   223   225   am
   121   222   221    1
   122   178   176    1
   123   129   128    2
   124   101   103   ar
   125   101   102   ar
   126   141   140    1
   127   140   139    1
   128   226   225    1
   129   226   227    1
   130   103   105   ar
   131   127   128    1
   132   228   227    2
   133    14    15    1
   134    14    17    1
   135   102   104   ar
   136   220   219    1
   137    15    16    2
   138   176   175    1
   139   105   104   ar
   140   177   175    1
   141   139   138    1
   142   138   135    1
   143   219   216    1
   144   175   172    1
   145    17    18    1
   146   182   181    2
   147   180   181    1
   148   180   179    1
   149   159   158    1
   150   159   160    1
   151   158   157    1
   152   134   135    1
   153   157   154    1
   154   160   161    2
   155   181   183   am
   156   135   136    1
   157    19    18    1
   158    19    20    1
   159   151   150   ar
   160   153   154    1
   161   216   217    1
   162   216   215    1
   163   217   218    2
   164   137   136    2
   165   156   155    2
   166   172   171    1
   167   172   173    1
   168    20    21    1
   169   154   155    1
   170   150   152   ar
   171   150   149    1
   172   171   166   am
   173   155   164   am
   174   174   173    2
   175   161   163    1
   176   161   162    1
   177   149   146    1
   178   215   210   am
   179   183   184    1
   180   166   167    2
   181   166   165    1
   182   164   165    1
   183   165   168    1
   184   184   187    1
   185   184   185    1
   186   187   188    1
   187   194   193    2
   188   190   188   ar
   189   210   211    2
   190   210   209    1
   191   146   145    1
   192   146   147    1
   193   188   189   ar
   194   203   202    2
   195   193   192    1
   196   193   200   am
   197   199   197   ar
   198   185   186    2
   199   195   192    1
   200   195   196    1
   201   209   208    1
   202   209   212    1
   203   168   169    1
   204   168   170    1
   205   202   208   am
   206   202   201    1
   207   192   191    1
   208   148   147    2
   209   201   200    1
   210   201   204    1
   211   197   196    1
   212   197   198   ar
   213   213   212    1
   214   212   214    1
   215   204   205    1
   216   206   205    2
   217   205   207   am
