@<TRIPOS>MOLECULE
tmp/3g8fA00.pdb
 150 146 0 0 0
SMALL
GASTEIGER

@<TRIPOS>ATOM
      1  N         10.6180   16.7540   -5.4710 N.3     2  LEU2       -0.1231
      2  CA         9.2750   17.3140   -5.3870 C.3     2  LEU2        0.1693
      3  C          8.2370   16.4000   -4.7340 C.2     2  LEU2        0.2591
      4  O          7.4500   16.8610   -3.9050 O.2     2  LEU2       -0.2718
      5  CB         8.8050   17.7680   -6.7670 C.3     2  LEU2        0.0284
      6  CG         7.5270   18.6080   -6.7770 C.3     2  LEU2        0.0019
      7  CD1        7.6360   19.8100   -5.8530 C.3     2  LEU2        0.0001
      8  CD2        7.2270   19.0440   -8.1950 C.3     2  LEU2        0.0001
      9  N          8.2260   15.1200   -5.0940 N.am    3  LEU3       -0.1980
     10  CA         7.2740   14.1770   -4.5010 C.3     3  LEU3        0.1596
     11  C          7.5100   13.9930   -3.0040 C.2     3  LEU3        0.2287
     12  O          6.5550   13.9210   -2.2210 O.2     3  LEU3       -0.2864
     13  CB         7.3300   12.8220   -5.2080 C.3     3  LEU3        0.0297
     14  CG         6.4890   12.7080   -6.4810 C.3     3  LEU3        0.0022
     15  CD1        6.5600   11.2980   -7.0320 C.3     3  LEU3        0.0001
     16  CD2        5.0490   13.0840   -6.2020 C.3     3  LEU3        0.0001
     17  N          8.9970   16.1740   -1.0200 N.3     5  PHE5       -0.1241
     18  CA         8.6240   17.4450   -0.4100 C.3     5  PHE5        0.1605
     19  C          7.1030   17.4450   -0.1980 C.2     5  PHE5        0.2264
     20  O          6.6110   17.8360    0.8520 O.2     5  PHE5       -0.2867
     21  CB         9.0570   18.6010   -1.3220 C.3     5  PHE5        0.0534
     22  CG         8.8090   19.9810   -0.7730 C.ar    5  PHE5       -0.0203
     23  CD1        8.9430   20.2750    0.5810 C.ar    5  PHE5       -0.0042
     24  CD2        8.4860   21.0020   -1.6470 C.ar    5  PHE5       -0.0042
     25  CE1        8.7410   21.5610    1.0400 C.ar    5  PHE5       -0.0003
     26  CE2        8.2800   22.2810   -1.1940 C.ar    5  PHE5       -0.0003
     27  CZ         8.4170   22.5640    0.1590 C.ar    5  PHE5       -0.0000
     28  N         -0.4860   19.3750   -3.5580 N.3    18  ILE18      -0.1245
     29  CA        -1.3140   19.7180   -4.7050 C.3    18  ILE18       0.1561
     30  C         -2.7270   19.3980   -4.2210 C.2    18  ILE18       0.2260
     31  O         -3.0110   18.2390   -3.9270 O.2    18  ILE18      -0.2867
     32  CB        -0.9810   18.8280   -5.9280 C.3    18  ILE18       0.0252
     33  CG1        0.4960   18.9470   -6.3060 C.3    18  ILE18       0.0019
     34  CG2       -1.8820   19.1870   -7.1130 C.3    18  ILE18       0.0019
     35  CD1        0.9450   17.9580   -7.3700 C.3    18  ILE18       0.0001
     36  N          4.6840   32.8670   -5.0390 N.3    27  TYR27      -0.1241
     37  CA         5.8790   32.0180   -5.0110 C.3    27  TYR27       0.1605
     38  C          5.6910   30.5190   -4.8080 C.2    27  TYR27       0.2264
     39  O          6.6680   29.7740   -4.9020 O.2    27  TYR27      -0.2867
     40  CB         6.8590   32.5540   -3.9660 C.3    27  TYR27       0.0534
     41  CG         7.4120   33.8890   -4.3960 C.ar   27  TYR27      -0.0201
     42  CD1        6.7790   35.0720   -4.0420 C.ar   27  TYR27      -0.0009
     43  CD2        8.5250   33.9640   -5.2130 C.ar   27  TYR27      -0.0009
     44  CE1        7.2600   36.2960   -4.4650 C.ar   27  TYR27       0.0417
     45  CE2        9.0140   35.1770   -5.6400 C.ar   27  TYR27       0.0417
     46  CZ         8.3810   36.3400   -5.2670 C.ar   27  TYR27       0.1957
     47  OH         8.8970   37.5400   -5.7090 O.3    27  TYR27      -0.2866
     48  N          4.8550   26.8940   -5.7060 N.3    29  GLY29      -0.1210
     49  CA         4.6560   26.0050   -6.8310 C.3    29  GLY29       0.1956
     50  C          5.1060   26.5520   -8.1650 C.2    29  GLY29       0.2612
     51  O          5.2470   25.7850   -9.1110 O.2    29  GLY29      -0.2717
     52  N          5.3090   27.8600   -8.2750 N.am   30  TRP30      -0.1962
     53  CA         5.7990   28.4280   -9.5340 C.3    30  TRP30       0.1771
     54  C          6.2510   29.9050   -9.2850 C.2    30  TRP30       0.2620
     55  O          5.8680   30.8290  -10.0090 O.2    30  TRP30      -0.2715
     56  CB         4.7400   28.2120  -10.6480 C.3    30  TRP30       0.0590
     57  CG         5.0560   27.7150  -12.0790 C.ar   30  TRP30       0.0006
     58  CD1        5.2580   26.4210  -12.5100 C.ar   30  TRP30       0.0946
     59  CD2        4.9630   28.5010  -13.2640 C.ar   30  TRP30       0.0152
     60  NE1        5.3720   26.3860  -13.8800 N.ar   30  TRP30      -0.2442
     61  CE2        5.1970   27.6540  -14.3670 C.ar   30  TRP30       0.0810
     62  CE3        4.7470   29.8550  -13.5020 C.ar   30  TRP30       0.0012
     63  CZ2        5.2180   28.1260  -15.6760 C.ar   30  TRP30       0.0191
     64  CZ3        4.7680   30.3170  -14.7880 C.ar   30  TRP30       0.0001
     65  CH2        5.0000   29.4600  -15.8620 C.ar   30  TRP30       0.0015
     66  N          7.0450   30.0690   -8.2090 N.am   31  GLY31      -0.1940
     67  CA         7.8760   31.2390   -7.8850 C.3    31  GLY31       0.2014
     68  C          8.2170   32.2570   -8.9510 C.2    31  GLY31       0.2639
     69  O          7.8300   32.1040  -10.0990 O.2    31  GLY31      -0.2714
     70  N          8.8900   33.3410   -8.5620 N.am   32  GLY32      -0.1954
     71  CA         9.3590   34.3020   -9.5500 C.3    32  GLY32       0.1869
     72  C          9.4290   35.7830   -9.2520 C.2    32  GLY32       0.2309
     73  O         10.5200   36.3590   -9.2130 O.2    32  GLY32      -0.2863
     74  N          8.7790   31.8440   -0.9500 N.3    45  PHE45      -0.1241
     75  CA         9.8140   32.7480   -1.4150 C.3    45  PHE45       0.1605
     76  C         11.1830   32.2950   -0.8900 C.2    45  PHE45       0.2264
     77  O         12.1570   32.1570   -1.6460 O.2    45  PHE45      -0.2867
     78  CB         9.5340   34.1780   -0.9570 C.3    45  PHE45       0.0534
     79  CG        10.6180   35.1340   -1.3470 C.ar   45  PHE45      -0.0203
     80  CD1       10.6460   35.6720   -2.6150 C.ar   45  PHE45      -0.0042
     81  CD2       11.6470   35.4450   -0.4770 C.ar   45  PHE45      -0.0042
     82  CE1       11.6570   36.5300   -3.0080 C.ar   45  PHE45      -0.0003
     83  CE2       12.6620   36.3090   -0.8700 C.ar   45  PHE45      -0.0003
     84  CZ        12.6590   36.8490   -2.1370 C.ar   45  PHE45      -0.0000
     85  N         11.9890   29.3600    0.3010 N.3    47  HIS47      -0.1226
     86  CA        12.2800   28.0370   -0.2270 C.3    47  HIS47       0.1752
     87  C         12.8660   28.1530   -1.6300 C.2    47  HIS47       0.2596
     88  O         13.8130   27.4490   -1.9740 O.2    47  HIS47      -0.2718
     89  CB        11.0010   27.2060   -0.2250 C.3    47  HIS47       0.0759
     90  CG        11.2000   25.7810   -0.6300 C.ar   47  HIS47       0.0818
     91  ND1       10.7160   25.2830   -1.8170 N.ar   47  HIS47      -0.2268
     92  CD2       11.8020   24.7450   -0.0020 C.ar   47  HIS47       0.1154
     93  CE1       11.0340   24.0050   -1.9160 C.ar   47  HIS47       0.1986
     94  NE2       11.6910   23.6510   -0.8270 N.ar   47  HIS47      -0.2212
     95  N         12.3200   29.0550   -2.4380 N.am   48  ASP48      -0.1974
     96  CA        12.8530   29.2950   -3.7790 C.3    48  ASP48       0.1709
     97  C         14.2970   29.8060   -3.6790 C.2    48  ASP48       0.2293
     98  O         15.1800   29.3500   -4.4010 O.2    48  ASP48      -0.2864
     99  CB        12.0140   30.3240   -4.5400 C.3    48  ASP48       0.1436
    100  CG        10.6460   29.8140   -4.9320 C.2    48  ASP48       0.3671
    101  OD1       10.3650   28.6050   -4.8260 O.co2  48  ASP48      -0.2456
    102  OD2        9.7700   30.5970   -5.3550 O.co2  48  ASP48      -0.2456
    103  N         16.6260   26.8870   -2.7390 N.3    51  TYR51      -0.1227
    104  CA        16.9720   26.0880   -3.9070 C.3    51  TYR51       0.1736
    105  C         17.9490   26.8790   -4.7880 C.2    51  TYR51       0.2596
    106  O         18.8560   26.3050   -5.3990 O.2    51  TYR51      -0.2718
    107  CB        15.7280   25.7430   -4.7110 C.3    51  TYR51       0.0548
    108  CG        14.9330   24.5450   -4.2250 C.ar   51  TYR51      -0.0200
    109  CD1       15.2430   23.8660   -3.0510 C.ar   51  TYR51      -0.0009
    110  CD2       13.8570   24.1010   -4.9590 C.ar   51  TYR51      -0.0009
    111  CE1       14.4870   22.7720   -2.6450 C.ar   51  TYR51       0.0417
    112  CE2       13.1090   23.0290   -4.5640 C.ar   51  TYR51       0.0417
    113  CZ        13.4250   22.3660   -3.4070 C.ar   51  TYR51       0.1957
    114  OH        12.6530   21.2850   -3.0390 O.3    51  TYR51      -0.2866
    115  N         17.7610   28.1980   -4.8480 N.am   52  GLY52      -0.1957
    116  CA        18.6240   29.0730   -5.6300 C.3    52  GLY52       0.1869
    117  C         20.0620   29.0720   -5.1440 C.2    52  GLY52       0.2309
    118  O         20.9800   29.3750   -5.9160 O.2    52  GLY52      -0.2863
    119  N         14.2120   18.9920   -7.7800 N.3    60  LYS60      -0.1245
    120  CA        12.9590   18.4230   -8.2390 C.3    60  LYS60       0.1561
    121  C         12.9890   16.8990   -8.2540 C.2    60  LYS60       0.2260
    122  O         12.0000   16.2490   -7.9230 O.2    60  LYS60      -0.2867
    123  CB        12.6720   18.9460   -9.6400 C.3    60  LYS60       0.0271
    124  CG        12.6420   20.4600   -9.6870 C.3    60  LYS60       0.0035
    125  CD        11.2550   20.9900   -9.4500 C.3    60  LYS60       0.0206
    126  CE        10.9660   22.1850  -10.3430 C.3    60  LYS60       0.1093
    127  NZ        11.6610   22.2680  -11.6570 N.3    60  LYS60      -0.1314
    128  N         10.8270   42.3140   -8.8170 N.3   118  GLU118     -0.1231
    129  CA        11.7560   41.3460   -8.2450 C.3   118  GLU118      0.1699
    130  C         12.0460   41.7040   -6.7900 C.2   118  GLU118      0.2592
    131  O         12.1780   42.8780   -6.4370 O.2   118  GLU118     -0.2718
    132  CB        13.0620   41.2730   -9.0450 C.3   118  GLU118      0.0402
    133  CG        12.9520   40.5250  -10.3690 C.3   118  GLU118      0.1161
    134  CD        12.9130   41.4540  -11.5690 C.2   118  GLU118      0.3649
    135  OE1       11.8030   41.8090  -12.0250 O.co2 118  GLU118     -0.2457
    136  OE2       13.9990   41.8390  -12.0580 O.co2 118  GLU118     -0.2457
    137  N         12.1180   40.6800   -5.9500 N.am  119  LEU119     -0.1980
    138  CA        12.4280   40.8430   -4.5430 C.3   119  LEU119      0.1596
    139  C         13.7060   40.0490   -4.3450 C.2   119  LEU119      0.2287
    140  O         13.7430   38.8580   -4.6440 O.2   119  LEU119     -0.2864
    141  CB        11.3000   40.2780   -3.6830 C.3   119  LEU119      0.0297
    142  CG        11.2110   40.8340   -2.2620 C.3   119  LEU119      0.0022
    143  CD1        9.8300   40.5880   -1.6850 C.3   119  LEU119      0.0001
    144  CD2       12.2780   40.2450   -1.3630 C.3   119  LEU119      0.0001
    145  N         16.6970   37.8270   -2.8000 N.3   121  CYS121     -0.1235
    146  CA        16.8890   36.8500   -1.7430 C.3   121  CYS121      0.1677
    147  C         17.8410   37.3670   -0.6710 C.2   121  CYS121      0.2270
    148  O         17.6810   37.0400    0.5010 O.2   121  CYS121     -0.2867
    149  CB        17.4420   35.5660   -2.3480 C.3   121  CYS121      0.0956
    150  SG        16.2340   34.6760   -3.3550 S.3   121  CYS121     -0.0801
@<TRIPOS>BOND
     1    65    63   ar
     2    65    64   ar
     3    63    61   ar
     4    64    62   ar
     5    61    60   ar
     6    61    59   ar
     7    60    58   ar
     8    62    59   ar
     9    59    57   ar
    10    58    57   ar
    11    57    56    1
    12   136   134   ar
    13   135   134   ar
    14   127   126    1
    15   134   133    1
    16    56    53    1
    17   133   132    1
    18   126   125    1
    19    69    68    2
    20    55    54    2
    21   124   123    1
    22   124   125    1
    23   123   120    1
    24    71    72    1
    25    71    70    1
    26    53    54    1
    27    53    52    1
    28    54    66   am
    29    72    73    2
    30    51    50    2
    31   132   129    1
    32    68    70   am
    33    68    67    1
    34   128   129    1
    35    52    50   am
    36   121   120    1
    37   121   122    2
    38   129   130    1
    39   120   119    1
    40    66    67    1
    41     8     6    1
    42    50    49    1
    43    35    33    1
    44    34    32    1
    45    15    14    1
    46    49    48    1
    47   130   131    2
    48   130   137   am
    49     6     5    1
    50     6     7    1
    51     5     2    1
    52    14    16    1
    53    14    13    1
    54    33    32    1
    55   137   138    1
    56    32    29    1
    57   118   117    2
    58    47    46    1
    59    45    46   ar
    60    45    43   ar
    61   116   117    1
    62   116   115    1
    63     1     2    1
    64   106   105    2
    65     2     3    1
    66   102   100   ar
    67    46    44   ar
    68    43    41   ar
    69    13    10    1
    70     9     3   am
    71     9    10    1
    72    36    37    1
    73    37    38    1
    74    37    40    1
    75   110   112   ar
    76   110   108   ar
    77   100   101   ar
    78   100    99    1
    79    39    38    2
    80   115   105   am
    81   105   104    1
    82     3     4    2
    83   107   108    1
    84   107   104    1
    85    29    30    1
    86    29    28    1
    87   140   139    2
    88   112   113   ar
    89   138   139    1
    90   138   141    1
    91    99    96    1
    92    10    11    1
    93    44    42   ar
    94    98    97    2
    95    41    42   ar
    96    41    40    1
    97   108   109   ar
    98    30    31    2
    99   104   103    1
   100    96    97    1
   101    96    95    1
   102   141   142    1
   103   113   114    1
   104   113   111   ar
   105   150   149    1
   106   109   111   ar
   107    82    80   ar
   108    82    84   ar
   109    11    12    2
   110   145   146    1
   111    80    79   ar
   112    95    87   am
   113   149   146    1
   114   142   143    1
   115   142   144    1
   116    84    83   ar
   117    88    87    2
   118    93    91   ar
   119    93    94   ar
   120    91    90   ar
   121   146   147    1
   122    24    26   ar
   123    24    22   ar
   124    77    76    2
   125    87    86    1
   126    75    78    1
   127    75    74    1
   128    75    76    1
   129    79    78    1
   130    79    81   ar
   131    21    22    1
   132    21    18    1
   133    26    27   ar
   134    17    18    1
   135    83    81   ar
   136    94    92   ar
   137    22    23   ar
   138   147   148    2
   139    90    89    1
   140    90    92   ar
   141    18    19    1
   142    86    89    1
   143    86    85    1
   144    19    20    2
   145    27    25   ar
   146    23    25   ar
