@<TRIPOS>MOLECULE
tmp/3g8oA00.pdb
 191 180 0 0 0
SMALL
GASTEIGER

@<TRIPOS>ATOM
      1  N         -9.8410   -8.1040   20.2530 N.3    33  LEU33      -0.1245
      2  CA        -8.7340   -7.2110   20.5800 C.3    33  LEU33       0.1561
      3  C         -9.2120   -6.1360   21.5500 C.2    33  LEU33       0.2260
      4  O         -8.5070   -5.7960   22.5000 O.2    33  LEU33      -0.2867
      5  CB        -8.1650   -6.5860   19.3070 C.3    33  LEU33       0.0270
      6  CG        -7.5160   -7.5860   18.3560 C.3    33  LEU33       0.0019
      7  CD1       -7.0360   -6.8810   17.0970 C.3    33  LEU33       0.0001
      8  CD2       -6.3640   -8.2690   19.0820 C.3    33  LEU33       0.0001
      9  N         -9.5300   -7.5990   24.9820 N.3    36  LEU36      -0.1231
     10  CA        -8.2120   -7.8500   25.5440 C.3    36  LEU36       0.1693
     11  C         -7.6480   -6.5310   26.0680 C.2    36  LEU36       0.2592
     12  O         -6.9640   -6.5070   27.0980 O.2    36  LEU36      -0.2718
     13  CB        -7.2890   -8.4400   24.4850 C.3    36  LEU36       0.0284
     14  CG        -7.4990   -9.9010   24.1250 C.3    36  LEU36       0.0019
     15  CD1       -6.6110  -10.2680   22.9390 C.3    36  LEU36       0.0001
     16  CD2       -7.1920  -10.7600   25.3470 C.3    36  LEU36       0.0001
     17  N         -7.9440   -5.4400   25.3650 N.am   37  ASN37      -0.1974
     18  CA        -7.4850   -4.1180   25.7820 C.3    37  ASN37       0.1688
     19  C         -8.2250   -3.6830   27.0390 C.2    37  ASN37       0.2292
     20  O         -7.6440   -3.0290   27.9070 O.2    37  ASN37      -0.2864
     21  CB        -7.7060   -3.0840   24.6760 C.3    37  ASN37       0.1181
     22  CG        -6.6520   -3.1550   23.5910 C.2    37  ASN37       0.2629
     23  OD1       -5.5710   -3.7140   23.7970 O.2    37  ASN37      -0.2716
     24  ND2       -6.9490   -2.5730   22.4330 N.am   37  ASN37      -0.0877
     25  N         -9.3370   -5.6710   29.2680 N.3    39  LEU39      -0.1231
     26  CA        -8.7150   -6.4930   30.3040 C.3    39  LEU39       0.1693
     27  C         -7.3780   -5.8650   30.6670 C.2    39  LEU39       0.2592
     28  O         -6.9960   -5.8440   31.8310 O.2    39  LEU39      -0.2718
     29  CB        -8.5000   -7.9300   29.7970 C.3    39  LEU39       0.0284
     30  CG        -7.7070   -8.8850   30.6770 C.3    39  LEU39       0.0019
     31  CD1       -8.4250   -9.0530   32.0090 C.3    39  LEU39       0.0001
     32  CD2       -7.5360  -10.2220   29.9670 C.3    39  LEU39       0.0001
     33  N         -6.6800   -5.3490   29.6630 N.am   40  GLY40      -0.1957
     34  CA        -5.3840   -4.7320   29.8940 C.3    40  GLY40       0.1869
     35  C         -5.4840   -3.5020   30.7860 C.2    40  GLY40       0.2309
     36  O         -4.5920   -3.2470   31.6030 O.2    40  GLY40      -0.2863
     37  N         -6.0370   -4.6560   34.2840 N.3    43  GLN43      -0.1245
     38  CA        -4.8300   -5.2890   34.8010 C.3    43  GLN43       0.1566
     39  C         -3.8280   -4.2240   35.2500 C.2    43  GLN43       0.2260
     40  O         -3.2000   -4.3630   36.3070 O.2    43  GLN43      -0.2867
     41  CB        -4.2070   -6.1790   33.7240 C.3    43  GLN43       0.0367
     42  CG        -4.9210   -7.5170   33.5230 C.3    43  GLN43       0.0905
     43  CD        -4.6010   -8.5170   34.6220 C.2    43  GLN43       0.2608
     44  OE1       -5.3040   -9.5140   34.7900 O.2    43  GLN43      -0.2717
     45  NE2       -3.5240   -8.2660   35.3630 N.am   43  GLN43      -0.0878
     46  N          4.8390   -3.4040   32.5830 N.3    73  TRP73      -0.1227
     47  CA         3.4160   -3.6590   32.3630 C.3    73  TRP73       0.1737
     48  C          3.1130   -4.8890   31.4910 C.2    73  TRP73       0.2595
     49  O          2.4280   -5.8030   31.9440 O.2    73  TRP73      -0.2718
     50  CB         2.7880   -2.4140   31.7410 C.3    73  TRP73       0.0564
     51  CG         1.4210   -2.6200   31.2070 C.ar   73  TRP73       0.0003
     52  CD1        0.3130   -2.9930   31.9170 C.ar   73  TRP73       0.0946
     53  CD2        0.9970   -2.4720   29.8620 C.ar   73  TRP73       0.0152
     54  NE1       -0.7760   -3.0730   31.0920 N.ar   73  TRP73      -0.2442
     55  CE2       -0.3840   -2.7500   29.8300 C.ar   73  TRP73       0.0810
     56  CE3        1.6390   -2.0990   28.6810 C.ar   73  TRP73       0.0012
     57  CZ2       -1.1220   -2.7050   28.6430 C.ar   73  TRP73       0.0191
     58  CZ3        0.9050   -2.0510   27.5160 C.ar   73  TRP73       0.0001
     59  CH2       -0.4560   -2.3380   27.5040 C.ar   73  TRP73       0.0015
     60  N          3.6000   -4.9060   30.2540 N.am   74  MET74      -0.1979
     61  CA         3.3490   -6.0250   29.3510 C.3    74  MET74       0.1605
     62  C          3.8960   -7.3380   29.9130 C.2    74  MET74       0.2287
     63  O          3.2250   -8.3700   29.8430 O.2    74  MET74      -0.2864
     64  CB         3.9890   -5.7470   27.9940 C.3    74  MET74       0.0413
     65  CG         3.5460   -6.6970   26.8880 C.3    74  MET74       0.0598
     66  SD         1.7980   -6.5000   26.4710 S.3    74  MET74      -0.1393
     67  CE         1.8780   -5.0120   25.4240 C.3    74  MET74       0.0692
     68  N          1.8710   -8.6990   32.6750 N.3    77  MET77      -0.1230
     69  CA         0.5970   -9.1770   32.1510 C.3    77  MET77       0.1702
     70  C          0.7110  -10.5550   31.5050 C.2    77  MET77       0.2592
     71  O         -0.1010  -11.4340   31.7860 O.2    77  MET77      -0.2718
     72  CB         0.0280   -8.1800   31.1480 C.3    77  MET77       0.0401
     73  CG        -1.2850   -7.5670   31.6110 C.3    77  MET77       0.0596
     74  SD        -2.0860   -6.5060   30.3910 S.3    77  MET77      -0.1393
     75  CE        -2.4880   -5.1200   31.3690 C.3    77  MET77       0.0692
     76  N          1.7070  -10.7520   30.6480 N.am   78  VAL78      -0.1980
     77  CA         1.8690  -12.0420   29.9820 C.3    78  VAL78       0.1595
     78  C          2.2870  -13.1300   30.9840 C.2    78  VAL78       0.2287
     79  O          1.8940  -14.2920   30.8520 O.2    78  VAL78      -0.2864
     80  CB         2.8910  -11.9380   28.8260 C.3    78  VAL78       0.0276
     81  CG1        4.2880  -11.6970   29.3700 C.3    78  VAL78       0.0022
     82  CG2        2.8340  -13.1900   27.9620 C.3    78  VAL78       0.0022
     83  N         -0.7270  -14.1490   32.6970 N.3    81  LEU81      -0.1245
     84  CA        -1.5210  -14.9710   31.7870 C.3    81  LEU81       0.1561
     85  C         -0.9780  -16.3910   31.8830 C.2    81  LEU81       0.2260
     86  O         -1.7360  -17.3640   31.9120 O.2    81  LEU81      -0.2867
     87  CB        -1.3750  -14.4600   30.3470 C.3    81  LEU81       0.0270
     88  CG        -1.7430  -15.4290   29.2310 C.3    81  LEU81       0.0019
     89  CD1       -3.2330  -15.7110   29.2800 C.3    81  LEU81       0.0001
     90  CD2       -1.3500  -14.8360   27.8800 C.3    81  LEU81       0.0001
     91  N         -2.1870  -18.0610   35.1780 N.3    84  ARG84      -0.1245
     92  CA        -3.6010  -18.4220   35.1170 C.3    84  ARG84       0.1563
     93  C         -3.8730  -19.6040   34.1840 C.2    84  ARG84       0.2260
     94  O         -4.6910  -20.4760   34.5000 O.2    84  ARG84      -0.2867
     95  CB        -4.4350  -17.2140   34.6830 C.3    84  ARG84       0.0307
     96  CG        -4.4420  -16.0710   35.6960 C.3    84  ARG84       0.0489
     97  CD        -5.5550  -15.0870   35.3740 C.3    84  ARG84       0.2205
     98  NE        -5.3830  -14.4080   34.0870 N.pl3  84  ARG84      -0.0865
     99  CZ        -4.4980  -13.4360   33.8620 C.cat  84  ARG84       0.5346
    100  NH1       -3.6860  -13.0130   34.8360 N.pl3  84  ARG84       0.1354
    101  NH2       -4.4280  -12.8630   32.6710 N.pl3  84  ARG84       0.1354
    102  N         -6.8740  -15.7020   29.6510 N.3    96  PHE96      -0.1241
    103  CA        -6.7170  -14.2640   29.8440 C.3    96  PHE96       0.1605
    104  C         -7.5970  -13.8090   31.0110 C.2    96  PHE96       0.2264
    105  O         -7.2030  -12.9500   31.8040 O.2    96  PHE96      -0.2867
    106  CB        -7.1080  -13.5030   28.5740 C.3    96  PHE96       0.0534
    107  CG        -6.1980  -13.7680   27.4050 C.ar   96  PHE96      -0.0203
    108  CD1       -6.4720  -14.7860   26.5000 C.ar   96  PHE96      -0.0042
    109  CD2       -5.0680  -12.9930   27.2020 C.ar   96  PHE96      -0.0042
    110  CE1       -5.6300  -15.0250   25.4260 C.ar   96  PHE96      -0.0003
    111  CE2       -4.2310  -13.2360   26.1310 C.ar   96  PHE96      -0.0003
    112  CZ        -4.5150  -14.2470   25.2360 C.ar   96  PHE96      -0.0000
    113  N         -2.4720  -12.9520   14.9160 N.3   112  PHE112     -0.1241
    114  CA        -2.8770  -13.1280   16.2950 C.3   112  PHE112      0.1605
    115  C         -2.5040  -14.5070   16.8180 C.2   112  PHE112      0.2264
    116  O         -2.1190  -14.6590   17.9720 O.2   112  PHE112     -0.2867
    117  CB        -4.3810  -12.9310   16.4350 C.3   112  PHE112      0.0534
    118  CG        -4.8390  -12.9340   17.8500 C.ar  112  PHE112     -0.0203
    119  CD1       -4.3490  -11.9940   18.7370 C.ar  112  PHE112     -0.0042
    120  CD2       -5.7160  -13.8910   18.3170 C.ar  112  PHE112     -0.0042
    121  CE1       -4.7180  -12.0150   20.0530 C.ar  112  PHE112     -0.0003
    122  CE2       -6.0870  -13.9110   19.6450 C.ar  112  PHE112     -0.0003
    123  CZ        -5.5860  -12.9680   20.5100 C.ar  112  PHE112     -0.0000
    124  N          1.1810  -14.7340   17.6700 N.3   115  LEU115     -0.1245
    125  CA         1.4100  -14.0330   18.9240 C.3   115  LEU115      0.1561
    126  C          1.0310  -14.9330   20.1020 C.2   115  LEU115      0.2260
    127  O          1.7570  -15.0200   21.0920 O.2   115  LEU115     -0.2867
    128  CB         0.5750  -12.7560   18.9690 C.3   115  LEU115      0.0270
    129  CG         0.8500  -11.8110   20.1360 C.3   115  LEU115      0.0019
    130  CD1        2.2260  -11.1940   19.9580 C.3   115  LEU115      0.0001
    131  CD2       -0.2160  -10.7340   20.1860 C.3   115  LEU115      0.0001
    132  N          3.0830  -16.4420   23.4330 N.3   119  MET119     -0.1245
    133  CA         2.6780  -16.3020   24.8260 C.3   119  MET119      0.1570
    134  C          2.5840  -17.6650   25.4860 C.2   119  MET119      0.2261
    135  O          2.9090  -17.8170   26.6630 O.2   119  MET119     -0.2867
    136  CB         1.3170  -15.6210   24.9250 C.3   119  MET119      0.0387
    137  CG         1.2360  -14.2870   24.2150 C.3   119  MET119      0.0595
    138  SD        -0.3600  -13.5080   24.4680 S.3   119  MET119     -0.1393
    139  CE        -1.4270  -14.6320   23.6460 C.3   119  MET119      0.0692
    140  N          5.2520   -8.8730   21.8770 N.3   205  LEU205     -0.1245
    141  CA         3.9650   -8.3740   22.3490 C.3   205  LEU205      0.1561
    142  C          3.9400   -6.8520   22.2240 C.2   205  LEU205      0.2260
    143  O          2.9310   -6.2640   21.8310 O.2   205  LEU205     -0.2867
    144  CB         3.7280   -8.7940   23.8070 C.3   205  LEU205      0.0270
    145  CG         3.5440  -10.2890   24.0070 C.3   205  LEU205      0.0019
    146  CD1        3.1620  -10.5910   25.4430 C.3   205  LEU205      0.0001
    147  CD2        2.4630  -10.7500   23.0740 C.3   205  LEU205      0.0001
    148  N          3.4210   -5.9350   18.5060 N.3   208  TYR208     -0.1227
    149  CA         2.0480   -6.2030   18.0820 C.3   208  TYR208      0.1736
    150  C          1.1270   -5.1380   18.6640 C.2   208  TYR208      0.2595
    151  O          0.2190   -4.6450   17.9920 O.2   208  TYR208     -0.2718
    152  CB         1.5890   -7.5850   18.5530 C.3   208  TYR208      0.0548
    153  CG         0.2200   -7.9540   18.0420 C.ar  208  TYR208     -0.0200
    154  CD1        0.0630   -8.5830   16.8130 C.ar  208  TYR208     -0.0009
    155  CD2       -0.9170   -7.6540   18.7730 C.ar  208  TYR208     -0.0009
    156  CE1       -1.1900   -8.9050   16.3300 C.ar  208  TYR208      0.0417
    157  CE2       -2.1750   -7.9670   18.2980 C.ar  208  TYR208      0.0417
    158  CZ        -2.3050   -8.5930   17.0740 C.ar  208  TYR208      0.1957
    159  OH        -3.5570   -8.9050   16.5930 O.3   208  TYR208     -0.2866
    160  N          1.3710   -4.7840   19.9210 N.am  209  CYS209     -0.1970
    161  CA         0.5650   -3.7710   20.5920 C.3   209  CYS209      0.1712
    162  C          0.6780   -2.4160   19.9060 C.2   209  CYS209      0.2296
    163  O         -0.3310   -1.8240   19.5320 O.2   209  CYS209     -0.2864
    164  CB         0.9910   -3.6440   22.0630 C.3   209  CYS209      0.0983
    165  SG         0.2620   -2.2590   22.9680 S.3   209  CYS209     -0.0798
    166  N         -1.0480   -2.2920   16.5040 N.3   212  THR212     -0.1218
    167  CA        -2.5000   -2.2230   16.6300 C.3   212  THR212      0.1862
    168  C         -2.9210   -0.8610   17.1730 C.2   212  THR212      0.2287
    169  O         -3.9910   -0.3460   16.8310 O.2   212  THR212     -0.2866
    170  CB        -3.0430   -3.3200   17.5720 C.3   212  THR212      0.1770
    171  OG1       -2.5370   -4.5970   17.1620 O.3   212  THR212     -0.2211
    172  CG2       -4.5650   -3.3560   17.5230 C.3   212  THR212      0.0375
    173  N         -8.6530    1.3350   22.7080 N.3   223  PHE223     -0.1241
    174  CA        -7.5580    1.2550   23.6740 C.3   223  PHE223      0.1605
    175  C         -7.8890    2.2270   24.8020 C.2   223  PHE223      0.2264
    176  O         -7.8700    3.4420   24.5980 O.2   223  PHE223     -0.2867
    177  CB        -6.2250    1.6700   23.0400 C.3   223  PHE223      0.0534
    178  CG        -5.6220    0.6350   22.1320 C.ar  223  PHE223     -0.0203
    179  CD1       -6.1880    0.3510   20.9000 C.ar  223  PHE223     -0.0042
    180  CD2       -4.4760   -0.0440   22.5100 C.ar  223  PHE223     -0.0042
    181  CE1       -5.6180   -0.5890   20.0600 C.ar  223  PHE223     -0.0003
    182  CE2       -3.9040   -0.9810   21.6750 C.ar  223  PHE223     -0.0003
    183  CZ        -4.4780   -1.2550   20.4430 C.ar  223  PHE223     -0.0000
    184  N         -3.9660    2.5980   29.7860 N.3   227  MET227     -0.1245
    185  CA        -3.0400    1.7970   29.0090 C.3   227  MET227      0.1570
    186  C         -2.5400    2.5880   27.7970 C.2   227  MET227      0.2261
    187  O         -1.3820    2.4640   27.4010 O.2   227  MET227     -0.2867
    188  CB        -3.7250    0.5410   28.5170 C.3   227  MET227      0.0387
    189  CG        -3.4730    0.3580   27.0530 C.3   227  MET227      0.0595
    190  SD        -4.9060   -0.2090   26.2360 S.3   227  MET227     -0.1393
    191  CE        -4.4210   -1.9410   26.0480 C.3   227  MET227      0.0692
@<TRIPOS>BOND
     1   113   114    1
     2   114   117    1
     3   114   115    1
     4   156   154   ar
     5   156   158   ar
     6   117   118    1
     7   166   167    1
     8   159   158    1
     9   167   168    1
    10   167   170    1
    11   154   153   ar
    12   115   116    2
    13   169   168    2
    14   158   157   ar
    15     7     6    1
    16   171   170    1
    17   172   170    1
    18   124   125    1
    19   118   120   ar
    20   118   119   ar
    21   151   150    2
    22   153   152    1
    23   153   155   ar
    24   149   148    1
    25   149   152    1
    26   149   150    1
    27   157   155   ar
    28   120   122   ar
    29     6     8    1
    30     6     5    1
    31   150   160   am
    32   119   121   ar
    33   125   128    1
    34   125   126    1
    35   128   129    1
    36     5     2    1
    37   163   162    2
    38   122   123   ar
    39   162   161    1
    40   160   161    1
    41   130   129    1
    42   121   123   ar
    43   181   183   ar
    44   181   179   ar
    45   126   127    2
    46   129   131    1
    47     1     2    1
    48   183   182   ar
    49     2     3    1
    50   161   164    1
    51   179   178   ar
    52     3     4    2
    53   182   180   ar
    54   143   142    2
    55   140   141    1
    56   164   165    1
    57   178   180   ar
    58   178   177    1
    59   142   141    1
    60   141   144    1
    61    24    22   am
    62   173   174    1
    63    15    14    1
    64   177   174    1
    65   147   145    1
    66   132   133    1
    67    22    23    2
    68    22    21    1
    69   139   138    1
    70   174   175    1
    71   144   145    1
    72   145   146    1
    73    14    13    1
    74    14    16    1
    75   137   138    1
    76   137   136    1
    77    13    10    1
    78   176   175    2
    79    21    18    1
    80   133   136    1
    81   133   134    1
    82     9    10    1
    83   112   110   ar
    84   112   111   ar
    85    17    18    1
    86    17    11   am
    87    67    66    1
    88   110   108   ar
    89   134   135    2
    90    10    11    1
    91    18    19    1
    92   191   190    1
    93    11    12    2
    94   111   109   ar
    95   190   189    1
    96    66    65    1
    97   108   107   ar
    98    65    64    1
    99    19    20    2
   100   189   188    1
   101   109   107   ar
   102   187   186    2
   103   107   106    1
   104    59    58   ar
   105    59    57   ar
   106    58    56   ar
   107   186   185    1
   108    90    88    1
   109    82    80    1
   110    64    61    1
   111   188   185    1
   112   106   103    1
   113    57    55   ar
   114    56    53   ar
   115    80    81    1
   116    80    77    1
   117   185   184    1
   118    88    89    1
   119    88    87    1
   120    25    26    1
   121    61    62    1
   122    61    60    1
   123   102   103    1
   124    33    34    1
   125    33    27   am
   126    29    26    1
   127    29    30    1
   128    55    53   ar
   129    55    54   ar
   130    63    62    2
   131   103   104    1
   132    53    51   ar
   133    34    35    1
   134    32    30    1
   135    77    76    1
   136    77    78    1
   137    60    48   am
   138    26    27    1
   139    87    84    1
   140    74    75    1
   141    74    73    1
   142    76    70   am
   143    27    28    2
   144    30    31    1
   145    35    36    2
   146    79    78    2
   147   104   105    2
   148    54    52   ar
   149    72    73    1
   150    72    69    1
   151    51    50    1
   152    51    52   ar
   153    48    49    2
   154    48    47    1
   155    70    71    2
   156    70    69    1
   157    50    47    1
   158    84    85    1
   159    84    83    1
   160    85    86    2
   161    69    68    1
   162    47    46    1
   163   101    99    1
   164    42    41    1
   165    42    43    1
   166    41    38    1
   167    99    98    2
   168    99   100    1
   169    98    97    1
   170    93    94    2
   171    93    92    1
   172    37    38    1
   173    43    44    2
   174    43    45   am
   175    95    92    1
   176    95    96    1
   177    38    39    1
   178    92    91    1
   179    39    40    2
   180    97    96    1
