@<TRIPOS>MOLECULE
tmp/3g8wB00.pdb
 115 110 0 0 0
SMALL
GASTEIGER

@<TRIPOS>ATOM
      1  N         22.9810   57.1760   98.5560 N.3    30  TYR30      -0.1241
      2  CA        23.1380   58.6030   98.3090 C.3    30  TYR30       0.1605
      3  C         24.4220   59.1010   98.9770 C.2    30  TYR30       0.2264
      4  O         25.2780   59.6890   98.3210 O.2    30  TYR30      -0.2867
      5  CB        21.9150   59.4030   98.8010 C.3    30  TYR30       0.0534
      6  CG        21.9500   60.8430   98.3520 C.ar   30  TYR30      -0.0201
      7  CD1       21.2420   61.2610   97.2270 C.ar   30  TYR30      -0.0009
      8  CD2       22.7310   61.7820   99.0250 C.ar   30  TYR30      -0.0009
      9  CE1       21.2960   62.5870   96.7910 C.ar   30  TYR30       0.0417
     10  CE2       22.7950   63.1040   98.6000 C.ar   30  TYR30       0.0417
     11  CZ        22.0750   63.5040   97.4840 C.ar   30  TYR30       0.1957
     12  OH        22.1520   64.8170   97.0690 O.3    30  TYR30      -0.2866
     13  N         27.6500   60.6060   96.3040 N.3    34  VAL34      -0.1245
     14  CA        27.1870   61.9250   95.8370 C.3    34  VAL34       0.1561
     15  C         28.3270   62.9340   95.9950 C.2    34  VAL34       0.2260
     16  O         29.1240   62.8250   96.9270 O.2    34  VAL34      -0.2867
     17  CB        25.9240   62.4140   96.6020 C.3    34  VAL34       0.0252
     18  CG1       26.2660   62.7900   98.0570 C.3    34  VAL34       0.0019
     19  CG2       25.2540   63.5820   95.8640 C.3    34  VAL34       0.0019
     20  N         28.3680   69.4500   93.6540 N.3    38  ARG38      -0.1231
     21  CA        26.9510   69.7310   93.3980 C.3    38  ARG38       0.1694
     22  C         26.3050   70.3680   94.6180 C.2    38  ARG38       0.2591
     23  O         25.3960   71.1950   94.5070 O.2    38  ARG38      -0.2718
     24  CB        26.1980   68.4350   93.0250 C.3    38  ARG38       0.0321
     25  CG        24.9570   68.5840   92.0940 C.3    38  ARG38       0.0489
     26  CD        25.2980   69.2000   90.6980 C.3    38  ARG38       0.2205
     27  NE        26.7470   69.2450   90.4230 N.pl3  38  ARG38      -0.0865
     28  CZ        27.3360   69.9230   89.4300 C.cat  38  ARG38       0.5346
     29  NH1       28.6620   69.8870   89.2970 N.pl3  38  ARG38       0.1354
     30  NH2       26.6120   70.6340   88.5690 N.pl3  38  ARG38       0.1354
     31  N         26.8060   69.9800   95.7840 N.am   39  LEU39      -0.1980
     32  CA        26.2560   70.4160   97.0460 C.3    39  LEU39       0.1596
     33  C         26.5730   71.8810   97.2590 C.2    39  LEU39       0.2287
     34  O         25.6820   72.7010   97.4860 O.2    39  LEU39      -0.2864
     35  CB        26.8580   69.5800   98.1680 C.3    39  LEU39       0.0297
     36  CG        25.8450   68.8800   99.0650 C.3    39  LEU39       0.0022
     37  CD1       25.2320   67.6720   98.3540 C.3    39  LEU39       0.0001
     38  CD2       26.5270   68.4600  100.3390 C.3    39  LEU39       0.0001
     39  N         24.5740   73.8120   94.9560 N.3    42  ILE42      -0.1245
     40  CA        23.1960   74.0010   95.3960 C.3    42  ILE42       0.1561
     41  C         23.1170   75.0180   96.5320 C.2    42  ILE42       0.2260
     42  O         22.2550   75.8970   96.5320 O.2    42  ILE42      -0.2867
     43  CB        22.5310   72.6650   95.8050 C.3    42  ILE42       0.0252
     44  CG1       22.5770   71.6540   94.6500 C.3    42  ILE42       0.0019
     45  CG2       21.0770   72.8900   96.2250 C.3    42  ILE42       0.0019
     46  CD1       22.3000   70.2010   95.0580 C.3    42  ILE42       0.0001
     47  N         17.7120   76.6780   93.1160 N.3    50  TRP50      -0.1241
     48  CA        18.0480   75.3850   93.7110 C.3    50  TRP50       0.1605
     49  C         18.3010   75.5640   95.2170 C.2    50  TRP50       0.2264
     50  O         19.4300   75.8650   95.6290 O.2    50  TRP50      -0.2867
     51  CB        19.2910   74.8140   93.0150 C.3    50  TRP50       0.0550
     52  CG        19.3270   73.3130   92.9070 C.ar   50  TRP50       0.0003
     53  CD1       18.5830   72.4160   93.6160 C.ar   50  TRP50       0.0946
     54  CD2       20.1810   72.5390   92.0550 C.ar   50  TRP50       0.0152
     55  NE1       18.9080   71.1340   93.2450 N.ar   50  TRP50      -0.2442
     56  CE2       19.8890   71.1850   92.2880 C.ar   50  TRP50       0.0810
     57  CE3       21.1620   72.8630   91.1080 C.ar   50  TRP50       0.0012
     58  CZ2       20.5470   70.1530   91.6120 C.ar   50  TRP50       0.0191
     59  CZ3       21.8130   71.8380   90.4410 C.ar   50  TRP50       0.0001
     60  CH2       21.5080   70.5020   90.7000 C.ar   50  TRP50       0.0015
     61  N         15.1420   70.1170   99.9970 N.3    66  THR66      -0.1218
     62  CA        15.4930   70.9260   98.8210 C.3    66  THR66       0.1862
     63  C         14.2980   71.3520   97.9820 C.2    66  THR66       0.2287
     64  O         13.4220   70.5580   97.6860 O.2    66  THR66      -0.2866
     65  CB        16.4870   70.2110   97.8900 C.3    66  THR66       0.1770
     66  OG1       17.7610   70.1550   98.5200 O.3    66  THR66      -0.2211
     67  CG2       16.6530   70.9690   96.5970 C.3    66  THR66       0.0375
     68  N         13.7880   72.5940   94.2400 N.3    68  LYS68      -0.1245
     69  CA        14.4130   72.7650   92.9320 C.3    68  LYS68       0.1561
     70  C         13.3470   73.2450   91.9710 C.2    68  LYS68       0.2260
     71  O         12.4680   72.4960   91.5710 O.2    68  LYS68      -0.2867
     72  CB        15.0640   71.4550   92.4530 C.3    68  LYS68       0.0271
     73  CG        16.1190   71.6170   91.3650 C.3    68  LYS68       0.0035
     74  CD        15.5360   71.7340   89.9350 C.3    68  LYS68       0.0206
     75  CE        16.5940   72.3640   88.9630 C.3    68  LYS68       0.1093
     76  NZ        16.0850   72.7650   87.5900 N.3    68  LYS68      -0.1314
     77  N         10.2760   70.8960   92.2430 N.3    79  ILE79      -0.1245
     78  CA        10.3750   69.5710   92.8090 C.3    79  ILE79       0.1561
     79  C         10.9190   69.7210   94.2000 C.2    79  ILE79       0.2260
     80  O         11.8380   70.5180   94.4210 O.2    79  ILE79      -0.2867
     81  CB        11.4240   68.7250   92.0580 C.3    79  ILE79       0.0252
     82  CG1       11.1580   68.6840   90.5480 C.3    79  ILE79       0.0019
     83  CG2       11.4170   67.3260   92.5700 C.3    79  ILE79       0.0019
     84  CD1        9.8000   68.1420   90.1590 C.3    79  ILE79       0.0001
     85  N         12.9370   67.6310   97.0610 N.3    81  GLU81      -0.1231
     86  CA        13.8280   66.4640   97.0870 C.3    81  GLU81       0.1699
     87  C         14.6740   66.4290   98.3580 C.2    81  GLU81       0.2592
     88  O         14.8290   67.4470   99.0610 O.2    81  GLU81      -0.2718
     89  CB        14.7330   66.4560   95.8550 C.3    81  GLU81       0.0402
     90  CG        15.7350   67.5140   95.7720 C.3    81  GLU81       0.1161
     91  CD        16.6300   67.4610   94.4430 C.2    81  GLU81       0.3649
     92  OE1       16.5290   66.5110   93.7280 O.co2  81  GLU81      -0.2457
     93  OE2       17.2660   68.4160   94.3670 O.co2  81  GLU81      -0.2457
     94  N         15.2270   65.2470   98.6320 N.am   82  ASN82      -0.1974
     95  CA        16.1350   65.0070   99.7600 C.3    82  ASN82       0.1688
     96  C         15.6310   65.5600  101.1130 C.2    82  ASN82       0.2292
     97  O         16.2860   66.3830  101.7490 O.2    82  ASN82      -0.2864
     98  CB        17.5810   65.4460   99.4130 C.3    82  ASN82       0.1181
     99  CG        18.1670   64.6940   98.1880 C.2    82  ASN82       0.2629
    100  OD1       17.8000   63.5630   97.8930 O.2    82  ASN82      -0.2716
    101  ND2       19.0950   65.3300   97.4890 N.am   82  ASN82      -0.0877
    102  N          4.7290   59.6050   92.0570 N.3   152  TRP152     -0.1241
    103  CA         4.8520   61.0070   91.9090 C.3   152  TRP152      0.1605
    104  C          3.6050   61.6130   92.4730 C.2   152  TRP152      0.2264
    105  O          2.4840   61.2810   92.0480 O.2   152  TRP152     -0.2867
    106  CB         4.9920   61.3770   90.4470 C.3   152  TRP152      0.0550
    107  CG         6.3720   61.2070   89.9000 C.ar  152  TRP152      0.0003
    108  CD1        6.8850   60.0820   89.3530 C.ar  152  TRP152      0.0946
    109  CD2        7.3940   62.2040   89.7960 C.ar  152  TRP152      0.0152
    110  NE1        8.1670   60.3080   88.9180 N.ar  152  TRP152     -0.2442
    111  CE2        8.5010   61.6030   89.1690 C.ar  152  TRP152      0.0810
    112  CE3        7.4760   63.5530   90.1610 C.ar  152  TRP152      0.0012
    113  CZ2        9.6890   62.2880   88.9020 C.ar  152  TRP152      0.0191
    114  CZ3        8.6740   64.2620   89.8810 C.ar  152  TRP152      0.0001
    115  CH2        9.7690   63.6120   89.2690 C.ar  152  TRP152      0.0015
@<TRIPOS>BOND
     1    76    75    1
     2    30    28    1
     3   113   111   ar
     4   113   115   ar
     5   110   111   ar
     6   110   108   ar
     7    75    74    1
     8   111   109   ar
     9   115   114   ar
    10    29    28    1
    11   108   107   ar
    12    28    27    2
    13   109   107   ar
    14   109   112   ar
    15   114   112   ar
    16   107   106    1
    17    74    73    1
    18    84    82    1
    19    27    26    1
    20    59    60   ar
    21    59    57   ar
    22   106   103    1
    23    82    81    1
    24    26    25    1
    25    60    58   ar
    26    57    54   ar
    27    73    72    1
    28    71    70    2
    29    58    56   ar
    30   103   102    1
    31   103   104    1
    32    70    69    1
    33   105   104    2
    34    54    56   ar
    35    54    52   ar
    36    81    83    1
    37    81    78    1
    38    25    24    1
    39    77    78    1
    40    56    55   ar
    41    72    69    1
    42    78    79    1
    43    52    51    1
    44    52    53   ar
    45    69    68    1
    46    51    48    1
    47    24    21    1
    48    47    48    1
    49    55    53   ar
    50    21    20    1
    51    21    22    1
    52    48    49    1
    53    92    91   ar
    54    79    80    2
    55    93    91   ar
    56    91    90    1
    57    23    22    2
    58    22    31   am
    59    44    46    1
    60    44    43    1
    61    39    40    1
    62    49    50    2
    63    40    43    1
    64    40    41    1
    65    90    89    1
    66    31    32    1
    67    43    45    1
    68    14    15    1
    69    14    13    1
    70    14    17    1
    71    89    86    1
    72    19    17    1
    73    15    16    2
    74    41    42    2
    75    67    65    1
    76    17    18    1
    77     9     7   ar
    78     9    11   ar
    79    32    33    1
    80    32    35    1
    81    85    86    1
    82    12    11    1
    83    86    87    1
    84     7     6   ar
    85    33    34    2
    86    11    10   ar
    87   101    99   am
    88    64    63    2
    89    65    66    1
    90    65    62    1
    91   100    99    2
    92    63    62    1
    93    35    36    1
    94    99    98    1
    95     2     1    1
    96     2     5    1
    97     2     3    1
    98     4     3    2
    99     6     5    1
   100     6     8   ar
   101    37    36    1
   102    87    94   am
   103    87    88    2
   104    10     8   ar
   105    94    95    1
   106    62    61    1
   107    36    38    1
   108    98    95    1
   109    95    96    1
   110    96    97    2
