@<TRIPOS>MOLECULE
tmp/3g8wA00.pdb
 151 146 0 0 0
SMALL
GASTEIGER

@<TRIPOS>ATOM
      1  N          6.7430   73.5780   63.6760 N.3    22  HIS22      -0.1226
      2  CA         6.1840   72.8490   64.8210 C.3    22  HIS22       0.1752
      3  C          4.6930   73.0880   64.8930 C.2    22  HIS22       0.2596
      4  O          4.2380   74.2400   64.7950 O.2    22  HIS22      -0.2718
      5  CB         6.8420   73.2630   66.1310 C.3    22  HIS22       0.0759
      6  CG         6.4670   72.3900   67.2990 C.ar   22  HIS22       0.0818
      7  ND1        7.3300   71.4490   67.8330 N.ar   22  HIS22      -0.2268
      8  CD2        5.3170   72.3070   68.0270 C.ar   22  HIS22       0.1154
      9  CE1        6.7350   70.8250   68.8360 C.ar   22  HIS22       0.1986
     10  NE2        5.5190   71.3360   68.9790 N.ar   22  HIS22      -0.2212
     11  N          3.9220   72.0100   65.0310 N.am   23  ASN23      -0.1960
     12  CA         2.4520   72.1020   64.9140 C.3    23  ASN23       0.1819
     13  C          1.7310   72.8350   66.0520 C.2    23  ASN23       0.2621
     14  O          0.6450   73.3750   65.8900 O.2    23  ASN23      -0.2715
     15  CB         1.8540   70.7150   64.6160 C.3    23  ASN23       0.1195
     16  CG         2.1430   70.2480   63.1730 C.2    23  ASN23       0.2630
     17  OD1        2.0660   69.0710   62.9020 O.2    23  ASN23      -0.2716
     18  ND2        2.4810   71.1800   62.2510 N.am   23  ASN23      -0.0877
     19  N          2.3730   72.8640   67.2040 N.am   24  TYR24      -0.1974
     20  CA         1.8310   73.5310   68.3870 C.3    24  TYR24       0.1639
     21  C          2.7000   74.7230   68.7770 C.2    24  TYR24       0.2290
     22  O          2.7150   75.1310   69.9360 O.2    24  TYR24      -0.2864
     23  CB         1.6550   72.5090   69.5280 C.3    24  TYR24       0.0560
     24  CG         0.7020   71.4240   69.0860 C.ar   24  TYR24      -0.0198
     25  CD1       -0.6510   71.4890   69.4050 C.ar   24  TYR24      -0.0009
     26  CD2        1.1400   70.3760   68.2480 C.ar   24  TYR24      -0.0009
     27  CE1       -1.5570   70.5090   68.9540 C.ar   24  TYR24       0.0417
     28  CE2        0.2450   69.3940   67.7830 C.ar   24  TYR24       0.0417
     29  CZ        -1.1050   69.4610   68.1500 C.ar   24  TYR24       0.1957
     30  OH        -1.9970   68.4970   67.7020 O.3    24  TYR24      -0.2866
     31  N          5.8330   75.2860   69.3720 N.3    26  TRP26      -0.1241
     32  CA         6.8600   75.2300   70.3840 C.3    26  TRP26       0.1605
     33  C          8.1060   75.9110   69.8830 C.2    26  TRP26       0.2264
     34  O          8.8640   76.4700   70.6490 O.2    26  TRP26      -0.2867
     35  CB         7.1530   73.7940   70.8100 C.3    26  TRP26       0.0550
     36  CG         8.2170   73.6730   71.8570 C.ar   26  TRP26       0.0003
     37  CD1        9.3680   72.9810   71.7560 C.ar   26  TRP26       0.0946
     38  CD2        8.2260   74.2690   73.1540 C.ar   26  TRP26       0.0152
     39  NE1       10.1000   73.1030   72.8950 N.ar   26  TRP26      -0.2442
     40  CE2        9.4170   73.8910   73.7740 C.ar   26  TRP26       0.0810
     41  CE3        7.3390   75.0850   73.8510 C.ar   26  TRP26       0.0012
     42  CZ2        9.7460   74.2900   75.0490 C.ar   26  TRP26       0.0191
     43  CZ3        7.6690   75.4790   75.1110 C.ar   26  TRP26       0.0001
     44  CH2        8.8590   75.0850   75.7000 C.ar   26  TRP26       0.0015
     45  N         12.1890   68.3180   69.8010 N.3    83  ASN83      -0.1240
     46  CA        12.2380   67.6040   68.5530 C.3    83  ASN83       0.1653
     47  C         11.6940   68.5470   67.4580 C.2    83  ASN83       0.2266
     48  O         10.4800   68.6690   67.3180 O.2    83  ASN83      -0.2867
     49  CB        11.4640   66.2990   68.7010 C.3    83  ASN83       0.1155
     50  CG        11.4880   65.4690   67.4410 C.2    83  ASN83       0.2627
     51  OD1       12.4460   65.5410   66.6690 O.2    83  ASN83      -0.2716
     52  ND2       10.4320   64.6790   67.2090 N.am   83  ASN83      -0.0877
     53  N         11.4860   69.5500   63.3990 N.3    85  VAL85      -0.1245
     54  CA        11.6010   68.8210   62.1430 C.3    85  VAL85       0.1561
     55  C         11.0500   69.6080   60.9390 C.2    85  VAL85       0.2260
     56  O          9.8250   69.7520   60.7410 O.2    85  VAL85      -0.2867
     57  CB        10.8850   67.4570   62.2390 C.3    85  VAL85       0.0252
     58  CG1       11.1000   66.5740   60.9770 C.3    85  VAL85       0.0019
     59  CG2       11.3000   66.7200   63.5350 C.3    85  VAL85       0.0019
     60  N          7.9520   68.5990   59.1490 N.3    88  ASN88      -0.1240
     61  CA         7.5000   67.4650   59.9110 C.3    88  ASN88       0.1653
     62  C          7.7950   66.1590   59.1400 C.2    88  ASN88       0.2266
     63  O          7.0610   65.2100   59.1980 O.2    88  ASN88      -0.2867
     64  CB         6.0200   67.6730   60.2460 C.3    88  ASN88       0.1155
     65  CG         5.8400   68.5200   61.5070 C.2    88  ASN88       0.2627
     66  OD1        5.0800   69.4710   61.5340 O.2    88  ASN88      -0.2716
     67  ND2        6.5840   68.1900   62.5400 N.am   88  ASN88      -0.0877
     68  N          8.7010   62.8210   58.4570 N.3    90  GLU90      -0.1245
     69  CA         8.5650   61.6730   59.3310 C.3    90  GLU90       0.1567
     70  C          9.6820   60.6440   59.0030 C.2    90  GLU90       0.2260
     71  O         10.2740   60.0360   59.9200 O.2    90  GLU90      -0.2867
     72  CB         7.2100   61.0920   59.0130 C.3    90  GLU90       0.0388
     73  CG         6.3780   60.5610   60.0890 C.3    90  GLU90       0.1160
     74  CD         5.2290   59.6690   59.5200 C.2    90  GLU90       0.3649
     75  OE1        4.1260   60.2620   59.3230 O.co2  90  GLU90      -0.2457
     76  OE2        5.4220   58.4220   59.2500 O.co2  90  GLU90      -0.2457
     77  N         12.5650   62.2640   60.5560 N.3    93  ASN93      -0.1240
     78  CA        12.5720   62.2240   62.0250 C.3    93  ASN93       0.1653
     79  C         12.7760   60.8280   62.5800 C.2    93  ASN93       0.2266
     80  O         13.4180   60.6520   63.6160 O.2    93  ASN93      -0.2867
     81  CB        11.3530   62.8830   62.6540 C.3    93  ASN93       0.1155
     82  CG        11.5760   63.1920   64.1290 C.2    93  ASN93       0.2627
     83  OD1       10.6430   63.1130   64.9710 O.2    93  ASN93      -0.2716
     84  ND2       12.8490   63.4850   64.4700 N.am   93  ASN93      -0.0877
     85  N          9.6400   61.4080   76.6540 N.3   113  ILE113     -0.1231
     86  CA         9.4400   62.6300   75.8960 C.3   113  ILE113      0.1692
     87  C          8.0630   63.2130   76.2880 C.2   113  ILE113      0.2592
     88  O          7.1490   62.4640   76.6060 O.2   113  ILE113     -0.2718
     89  CB         9.5500   62.3510   74.3740 C.3   113  ILE113      0.0266
     90  CG1        9.3360   63.6360   73.5580 C.3   113  ILE113      0.0019
     91  CG2        8.5850   61.2010   73.9230 C.3   113  ILE113      0.0020
     92  CD1        9.9050   63.5590   72.1320 C.3   113  ILE113      0.0001
     93  N          7.9380   64.5260   76.3310 N.am  114  ALA114     -0.1966
     94  CA         6.6730   65.2050   76.5690 C.3   114  ALA114      0.1728
     95  C          6.1420   65.5680   75.2020 C.2   114  ALA114      0.2616
     96  O          6.8750   66.0800   74.3580 O.2   114  ALA114     -0.2715
     97  CB         6.8630   66.4880   77.4270 C.3   114  ALA114      0.0334
     98  N          4.8600   65.3340   75.0040 N.am  115  ILE115     -0.1963
     99  CA         4.1720   65.6360   73.7690 C.3   115  ILE115      0.1727
    100  C          2.9000   66.4220   74.1250 C.2   115  ILE115      0.2616
    101  O          2.2430   66.1570   75.1620 O.2   115  ILE115     -0.2715
    102  CB         3.8810   64.2990   73.0640 C.3   115  ILE115      0.0290
    103  CG1        4.8320   64.1450   71.8940 C.3   115  ILE115      0.0022
    104  CG2        2.4420   64.1290   72.6290 C.3   115  ILE115      0.0023
    105  CD1        5.8940   63.1560   72.1610 C.3   115  ILE115      0.0001
    106  N          2.5610   67.4090   73.2920 N.am  116  ALA116     -0.1977
    107  CA         1.3410   68.1920   73.4940 C.3   116  ALA116      0.1597
    108  C          0.1900   67.1920   73.6030 C.2   116  ALA116      0.2287
    109  O          0.1310   66.2280   72.8330 O.2   116  ALA116     -0.2864
    110  CB         1.1330   69.0990   72.3530 C.3   116  ALA116      0.0319
    111  N         -1.9260   66.2970   70.5780 N.3   119  ASN119     -0.1240
    112  CA        -1.1590   66.0020   69.3880 C.3   119  ASN119      0.1653
    113  C         -1.2320   64.5580   68.9950 C.2   119  ASN119      0.2266
    114  O         -0.3880   63.7590   69.3860 O.2   119  ASN119     -0.2867
    115  CB         0.2840   66.4080   69.5670 C.3   119  ASN119      0.1155
    116  CG         1.0610   66.3320   68.2680 C.2   119  ASN119      0.2627
    117  OD1        0.6120   65.7080   67.2500 O.2   119  ASN119     -0.2716
    118  ND2        2.2400   66.9550   68.2840 N.am  119  ASN119     -0.0877
    119  N         -0.9830   63.0530   65.9820 N.3   121  SER121     -0.1202
    120  CA         0.1120   62.6750   65.0670 C.3   121  SER121      0.2020
    121  C          1.3530   62.2050   65.7650 C.2   121  SER121      0.2618
    122  O          1.9640   61.1990   65.3620 O.2   121  SER121     -0.2717
    123  CB         0.5190   63.7740   64.1400 C.3   121  SER121      0.2103
    124  OG        -0.3600   63.7850   63.0280 O.3   121  SER121     -0.2182
    125  N          1.7390   62.9350   66.8020 N.am  122  ALA122     -0.1979
    126  CA         2.9610   62.6120   67.5000 C.3   122  ALA122      0.1597
    127  C          2.7340   61.3080   68.2880 C.2   122  ALA122      0.2287
    128  O          3.6450   60.4230   68.3550 O.2   122  ALA122     -0.2864
    129  CB         3.3800   63.7670   68.4120 C.3   122  ALA122      0.0319
    130  N          3.0050   58.4920   65.7630 N.3   125  PHE125     -0.1227
    131  CA         4.3900   58.3590   65.3960 C.3   125  PHE125      0.1736
    132  C          5.2610   57.7220   66.4620 C.2   125  PHE125      0.2595
    133  O          5.9390   56.7330   66.1770 O.2   125  PHE125     -0.2718
    134  CB         4.9340   59.6960   65.0820 C.3   125  PHE125      0.0547
    135  CG         6.3540   59.6660   64.6540 C.ar  125  PHE125     -0.0202
    136  CD1        6.6930   59.3620   63.3310 C.ar  125  PHE125     -0.0042
    137  CD2        7.3670   59.9470   65.5620 C.ar  125  PHE125     -0.0042
    138  CE1        8.0090   59.3900   62.9230 C.ar  125  PHE125     -0.0003
    139  CE2        8.6790   59.9480   65.1340 C.ar  125  PHE125     -0.0003
    140  CZ         8.9960   59.6590   63.8330 C.ar  125  PHE125     -0.0000
    141  N          5.2590   58.2680   67.6730 N.am  126  PHE126     -0.1976
    142  CA         6.1270   57.7010   68.7030 C.3   126  PHE126      0.1639
    143  C          5.6170   56.3330   69.0840 C.2   126  PHE126      0.2290
    144  O          6.3820   55.3300   69.2610 O.2   126  PHE126     -0.2864
    145  CB         6.2960   58.6220   69.8920 C.3   126  PHE126      0.0560
    146  CG         7.1300   59.8030   69.5900 C.ar  126  PHE126     -0.0200
    147  CD1        8.5270   59.7050   69.6220 C.ar  126  PHE126     -0.0042
    148  CD2        6.5320   61.0140   69.1840 C.ar  126  PHE126     -0.0042
    149  CE1        9.3310   60.8000   69.3310 C.ar  126  PHE126     -0.0003
    150  CE2        7.3050   62.1180   68.8730 C.ar  126  PHE126     -0.0003
    151  CZ         8.7150   62.0150   68.9570 C.ar  126  PHE126     -0.0000
@<TRIPOS>BOND
     1    68    69    1
     2    70    69    1
     3    70    71    2
     4    72    69    1
     5    72    73    1
     6    62    63    2
     7    62    61    1
     8    60    61    1
     9    76    74   ar
    10    75    74   ar
    11    74    73    1
    12    61    64    1
    13    64    65    1
    14    77    78    1
    15    56    55    2
    16    55    54    1
    17    58    57    1
    18    65    66    2
    19    65    67   am
    20    78    79    1
    21    78    81    1
    22    54    57    1
    23    54    53    1
    24    57    59    1
    25    18    16   am
    26    79    80    2
    27    81    82    1
    28    17    16    2
    29   138   136   ar
    30   138   140   ar
    31   124   123    1
    32    16    15    1
    33   136   135   ar
    34     1     2    1
    35   140   139   ar
    36    82    84   am
    37    82    83    2
    38   123   120    1
    39    15    12    1
    40   135   134    1
    41   135   137   ar
    42     4     3    2
    43     2     3    1
    44     2     5    1
    45     3    11   am
    46    12    11    1
    47    12    13    1
    48   120   121    1
    49   120   119    1
    50   134   131    1
    51   139   137   ar
    52   122   121    2
    53   131   130    1
    54   131   132    1
    55   121   125   am
    56    14    13    2
    57    13    19   am
    58     5     6    1
    59   133   132    2
    60   132   141   am
    61    51    50    2
    62   125   126    1
    63    19    20    1
    64    52    50   am
    65   117   116    2
    66     6     7   ar
    67     6     8   ar
    68    48    47    2
    69    50    49    1
    70    47    46    1
    71   126   127    1
    72   126   129    1
    73   141   142    1
    74    30    29    1
    75    28    29   ar
    76    28    26   ar
    77     7     9   ar
    78     8    10   ar
    79    29    27   ar
    80    26    24   ar
    81   116   118   am
    82   116   115    1
    83   127   128    2
    84    20    21    1
    85    20    23    1
    86    46    49    1
    87    46    45    1
    88   142   143    1
    89   142   145    1
    90    21    22    2
    91     9    10   ar
    92   150   151   ar
    93   150   148   ar
    94    27    25   ar
    95   151   149   ar
    96   113   114    2
    97   113   112    1
    98   143   144    2
    99    24    25   ar
   100    24    23    1
   101   148   146   ar
   102   149   147   ar
   103    31    32    1
   104   112   115    1
   105   112   111    1
   106   146   147   ar
   107   146   145    1
   108    33    32    1
   109    33    34    2
   110    32    35    1
   111    35    36    1
   112    37    36   ar
   113    37    39   ar
   114    36    38   ar
   115   103   105    1
   116   103   102    1
   117    92    90    1
   118   110   107    1
   119   104   102    1
   120   109   108    2
   121    39    40   ar
   122   102    99    1
   123    38    40   ar
   124    38    41   ar
   125   106   107    1
   126   106   100   am
   127   107   108    1
   128    90    89    1
   129    99   100    1
   130    99    98    1
   131    40    42   ar
   132    41    43   ar
   133    91    89    1
   134   100   101    2
   135    96    95    2
   136    89    86    1
   137    98    95   am
   138    42    44   ar
   139    43    44   ar
   140    95    94    1
   141    86    87    1
   142    86    85    1
   143    87    93   am
   144    87    88    2
   145    93    94    1
   146    94    97    1
