@<TRIPOS>MOLECULE
tmp/3g8wA02.pdb
 147 145 0 0 0
SMALL
GASTEIGER

@<TRIPOS>ATOM
      1  N          6.7430   73.5780   63.6760 N.3    22  HIS22      -0.1241
      2  CA         6.1840   72.8490   64.8210 C.3    22  HIS22       0.1621
      3  C          4.6930   73.0880   64.8930 C.2    22  HIS22       0.2264
      4  O          4.2380   74.2400   64.7950 O.2    22  HIS22      -0.2867
      5  CB         6.8420   73.2630   66.1310 C.3    22  HIS22       0.0745
      6  CG         6.4670   72.3900   67.2990 C.ar   22  HIS22       0.0817
      7  ND1        7.3300   71.4490   67.8330 N.ar   22  HIS22      -0.2268
      8  CD2        5.3170   72.3070   68.0270 C.ar   22  HIS22       0.1154
      9  CE1        6.7350   70.8250   68.8360 C.ar   22  HIS22       0.1986
     10  NE2        5.5190   71.3360   68.9790 N.ar   22  HIS22      -0.2212
     11  N          2.3730   72.8640   67.2040 N.3    24  TYR24      -0.1241
     12  CA         1.8310   73.5310   68.3870 C.3    24  TYR24       0.1605
     13  C          2.7000   74.7230   68.7770 C.2    24  TYR24       0.2264
     14  O          2.7150   75.1310   69.9360 O.2    24  TYR24      -0.2867
     15  CB         1.6550   72.5090   69.5280 C.3    24  TYR24       0.0534
     16  CG         0.7020   71.4240   69.0860 C.ar   24  TYR24      -0.0201
     17  CD1       -0.6510   71.4890   69.4050 C.ar   24  TYR24      -0.0009
     18  CD2        1.1400   70.3760   68.2480 C.ar   24  TYR24      -0.0009
     19  CE1       -1.5570   70.5090   68.9540 C.ar   24  TYR24       0.0417
     20  CE2        0.2450   69.3940   67.7830 C.ar   24  TYR24       0.0417
     21  CZ        -1.1050   69.4610   68.1500 C.ar   24  TYR24       0.1957
     22  OH        -1.9970   68.4970   67.7020 O.3    24  TYR24      -0.2866
     23  N          5.8330   75.2860   69.3720 N.3    26  TRP26      -0.1241
     24  CA         6.8600   75.2300   70.3840 C.3    26  TRP26       0.1605
     25  C          8.1060   75.9110   69.8830 C.2    26  TRP26       0.2264
     26  O          8.8640   76.4700   70.6490 O.2    26  TRP26      -0.2867
     27  CB         7.1530   73.7940   70.8100 C.3    26  TRP26       0.0550
     28  CG         8.2170   73.6730   71.8570 C.ar   26  TRP26       0.0003
     29  CD1        9.3680   72.9810   71.7560 C.ar   26  TRP26       0.0946
     30  CD2        8.2260   74.2690   73.1540 C.ar   26  TRP26       0.0152
     31  NE1       10.1000   73.1030   72.8950 N.ar   26  TRP26      -0.2442
     32  CE2        9.4170   73.8910   73.7740 C.ar   26  TRP26       0.0810
     33  CE3        7.3390   75.0850   73.8510 C.ar   26  TRP26       0.0012
     34  CZ2        9.7460   74.2900   75.0490 C.ar   26  TRP26       0.0191
     35  CZ3        7.6690   75.4790   75.1110 C.ar   26  TRP26       0.0001
     36  CH2        8.8590   75.0850   75.7000 C.ar   26  TRP26       0.0015
     37  N          7.6310   79.6320   70.7210 N.3    29  TYR29      -0.1241
     38  CA         7.5990   79.7880   72.1750 C.3    29  TYR29       0.1605
     39  C          9.0000   79.7140   72.7390 C.2    29  TYR29       0.2264
     40  O          9.4620   80.6840   73.3970 O.2    29  TYR29      -0.2867
     41  CB         6.6960   78.7470   72.8550 C.3    29  TYR29       0.0534
     42  CG         5.2130   79.0320   72.6830 C.ar   29  TYR29      -0.0201
     43  CD1        4.6870   80.3250   72.9250 C.ar   29  TYR29      -0.0009
     44  CD2        4.3400   78.0270   72.2610 C.ar   29  TYR29      -0.0009
     45  CE1        3.3350   80.5970   72.7450 C.ar   29  TYR29       0.0417
     46  CE2        2.9860   78.2830   72.0810 C.ar   29  TYR29       0.0417
     47  CZ         2.4880   79.5660   72.3200 C.ar   29  TYR29       0.1957
     48  OH         1.1390   79.8110   72.1360 O.3    29  TYR29      -0.2866
     49  N         15.8490   62.1910   78.7940 N.3    79  ILE79      -0.1231
     50  CA        14.6930   62.7970   78.1690 C.3    79  ILE79       0.1692
     51  C         15.0410   63.1910   76.7600 C.2    79  ILE79       0.2592
     52  O         16.1310   63.7020   76.5340 O.2    79  ILE79      -0.2718
     53  CB        14.3400   64.1320   78.8240 C.3    79  ILE79       0.0266
     54  CG1       14.0470   63.9780   80.3100 C.3    79  ILE79       0.0019
     55  CG2       13.1610   64.7570   78.0910 C.3    79  ILE79       0.0020
     56  CD1       12.8980   63.1230   80.5470 C.3    79  ILE79       0.0001
     57  N         14.1210   62.9770   75.8310 N.am   80  LEU80      -0.1966
     58  CA        14.1770   63.5780   74.5220 C.3    80  LEU80       0.1728
     59  C         13.4140   64.8950   74.5900 C.2    80  LEU80       0.2616
     60  O         12.2930   64.9460   75.0890 O.2    80  LEU80      -0.2715
     61  CB        13.5310   62.6750   73.4790 C.3    80  LEU80       0.0311
     62  CG        14.1310   61.2960   73.1870 C.3    80  LEU80       0.0022
     63  CD1       13.4930   60.6030   71.9850 C.3    80  LEU80       0.0001
     64  CD2       15.6300   61.4150   72.9700 C.3    80  LEU80       0.0001
     65  N         14.0150   65.9690   74.1050 N.am   81  GLU81      -0.1963
     66  CA        13.3680   67.2700   74.1280 C.3    81  GLU81       0.1733
     67  C         13.6340   67.9930   72.7880 C.2    81  GLU81       0.2616
     68  O         14.5890   67.6670   72.0590 O.2    81  GLU81      -0.2715
     69  CB        13.8540   68.1180   75.3580 C.3    81  GLU81       0.0429
     70  CG        15.3810   68.2020   75.4980 C.3    81  GLU81       0.1163
     71  CD        15.9490   69.2900   76.4660 C.2    81  GLU81       0.3649
     72  OE1       15.6760   69.1980   77.6830 O.co2  81  GLU81      -0.2457
     73  OE2       16.7500   70.1930   76.0180 O.co2  81  GLU81      -0.2457
     74  N         12.7870   68.9820   72.5070 N.am   82  ASN82      -0.1972
     75  CA        12.9380   69.9210   71.4150 C.3    82  ASN82       0.1688
     76  C         13.1420   69.1800   70.1080 C.2    82  ASN82       0.2292
     77  O         14.1250   69.3300   69.3970 O.2    82  ASN82      -0.2864
     78  CB        14.0400   70.9270   71.7530 C.3    82  ASN82       0.1181
     79  CG        13.6550   71.8230   72.9180 C.2    82  ASN82       0.2629
     80  OD1       12.5490   72.3340   72.9450 O.2    82  ASN82      -0.2716
     81  ND2       14.5500   72.0120   73.8810 N.am   82  ASN82      -0.0877
     82  N          9.6400   61.4080   76.6540 N.3   113  ILE113     -0.1231
     83  CA         9.4400   62.6300   75.8960 C.3   113  ILE113      0.1692
     84  C          8.0630   63.2130   76.2880 C.2   113  ILE113      0.2592
     85  O          7.1490   62.4640   76.6060 O.2   113  ILE113     -0.2718
     86  CB         9.5500   62.3510   74.3740 C.3   113  ILE113      0.0266
     87  CG1        9.3360   63.6360   73.5580 C.3   113  ILE113      0.0019
     88  CG2        8.5850   61.2010   73.9230 C.3   113  ILE113      0.0020
     89  CD1        9.9050   63.5590   72.1320 C.3   113  ILE113      0.0001
     90  N          7.9380   64.5260   76.3310 N.am  114  ALA114     -0.1966
     91  CA         6.6730   65.2050   76.5690 C.3   114  ALA114      0.1728
     92  C          6.1420   65.5680   75.2020 C.2   114  ALA114      0.2616
     93  O          6.8750   66.0800   74.3580 O.2   114  ALA114     -0.2715
     94  CB         6.8630   66.4880   77.4270 C.3   114  ALA114      0.0334
     95  N          4.8600   65.3340   75.0040 N.am  115  ILE115     -0.1963
     96  CA         4.1720   65.6360   73.7690 C.3   115  ILE115      0.1727
     97  C          2.9000   66.4220   74.1250 C.2   115  ILE115      0.2616
     98  O          2.2430   66.1570   75.1620 O.2   115  ILE115     -0.2715
     99  CB         3.8810   64.2990   73.0640 C.3   115  ILE115      0.0290
    100  CG1        4.8320   64.1450   71.8940 C.3   115  ILE115      0.0022
    101  CG2        2.4420   64.1290   72.6290 C.3   115  ILE115      0.0023
    102  CD1        5.8940   63.1560   72.1610 C.3   115  ILE115      0.0001
    103  N          2.5610   67.4090   73.2920 N.am  116  ALA116     -0.1977
    104  CA         1.3410   68.1920   73.4940 C.3   116  ALA116      0.1597
    105  C          0.1900   67.1920   73.6030 C.2   116  ALA116      0.2287
    106  O          0.1310   66.2280   72.8330 O.2   116  ALA116     -0.2864
    107  CB         1.1330   69.0990   72.3530 C.3   116  ALA116      0.0319
    108  N          3.0440   73.1560   81.0660 N.3   141  SER141     -0.1217
    109  CA         3.8370   74.2490   80.5300 C.3   141  SER141      0.1889
    110  C          3.0210   75.4800   80.6080 C.2   141  SER141      0.2288
    111  O          1.8100   75.4200   80.4080 O.2   141  SER141     -0.2866
    112  CB         4.2280   74.0200   79.0780 C.3   141  SER141      0.2089
    113  OG         5.3440   73.1390   78.9900 O.3   141  SER141     -0.2183
    114  N         -0.5310   74.6210   78.9090 N.3   148  PHE148     -0.1241
    115  CA        -0.5190   73.5320   77.9550 C.3   148  PHE148      0.1605
    116  C         -0.4170   72.2340   78.7390 C.2   148  PHE148      0.2264
    117  O          0.4560   72.0840   79.5970 O.2   148  PHE148     -0.2867
    118  CB         0.6750   73.6260   77.0080 C.3   148  PHE148      0.0534
    119  CG         0.7740   74.9260   76.2820 C.ar  148  PHE148     -0.0203
    120  CD1       -0.0450   75.1970   75.1940 C.ar  148  PHE148     -0.0042
    121  CD2        1.6960   75.8960   76.6880 C.ar  148  PHE148     -0.0042
    122  CE1        0.0490   76.4360   74.5100 C.ar  148  PHE148     -0.0003
    123  CE2        1.7960   77.1530   76.0170 C.ar  148  PHE148     -0.0003
    124  CZ         0.9730   77.4210   74.9250 C.ar  148  PHE148     -0.0000
    125  N          0.4140   68.2000   78.6990 N.3   150  GLU150     -0.1245
    126  CA         1.2960   67.2940   77.9720 C.3   150  GLU150      0.1567
    127  C          1.0520   65.9120   78.4900 C.2   150  GLU150      0.2260
    128  O          0.5500   65.7500   79.6000 O.2   150  GLU150     -0.2867
    129  CB         2.7750   67.6620   78.1660 C.3   150  GLU150      0.0388
    130  CG         3.2290   68.7510   77.2390 C.3   150  GLU150      0.1160
    131  CD         4.3120   69.6790   77.8130 C.2   150  GLU150      0.3649
    132  OE1        5.0360   69.3020   78.7620 O.co2 150  GLU150     -0.2457
    133  OE2        4.4760   70.7900   77.2780 O.co2 150  GLU150     -0.2457
    134  N          3.4440   62.4320   78.9970 N.3   152  TRP152     -0.1241
    135  CA         4.7760   61.8770   78.9500 C.3   152  TRP152      0.1605
    136  C          4.6700   60.5160   78.3520 C.2   152  TRP152      0.2264
    137  O          3.8690   59.6930   78.7970 O.2   152  TRP152     -0.2867
    138  CB         5.3840   61.7900   80.3400 C.3   152  TRP152      0.0550
    139  CG         5.7340   63.1320   80.9220 C.ar  152  TRP152      0.0003
    140  CD1        4.9280   63.9190   81.6720 C.ar  152  TRP152      0.0946
    141  CD2        6.9640   63.8310   80.7760 C.ar  152  TRP152      0.0152
    142  NE1        5.5610   65.0710   81.9830 N.ar  152  TRP152     -0.2442
    143  CE2        6.8290   65.0420   81.4710 C.ar  152  TRP152      0.0810
    144  CE3        8.1860   63.5460   80.1250 C.ar  152  TRP152      0.0012
    145  CZ2        7.8470   65.9810   81.5450 C.ar  152  TRP152      0.0191
    146  CZ3        9.2290   64.4980   80.2080 C.ar  152  TRP152      0.0001
    147  CH2        9.0340   65.6980   80.9060 C.ar  152  TRP152      0.0015
@<TRIPOS>BOND
     1     1     2    1
     2     4     3    2
     3     2     3    1
     4     2     5    1
     5     5     6    1
     6    11    12    1
     7     6     7   ar
     8     6     8   ar
     9    22    21    1
    10    20    21   ar
    11    20    18   ar
    12     7     9   ar
    13     8    10   ar
    14    21    19   ar
    15    18    16   ar
    16    12    13    1
    17    12    15    1
    18    13    14    2
    19     9    10   ar
    20    19    17   ar
    21    16    17   ar
    22    16    15    1
    23    23    24    1
    24    77    76    2
    25    25    24    1
    26    25    26    2
    27    76    75    1
    28    24    27    1
    29    37    38    1
    30    27    28    1
    31    75    78    1
    32    75    74    1
    33    78    79    1
    34    29    28   ar
    35    29    31   ar
    36    28    30   ar
    37   100   102    1
    38   100    99    1
    39    63    62    1
    40    68    67    2
    41    46    44   ar
    42    46    47   ar
    43    89    87    1
    44    48    47    1
    45    38    39    1
    46    38    41    1
    47    44    42   ar
    48    47    45   ar
    49   107   104    1
    50    74    67   am
    51   101    99    1
    52    42    41    1
    53    42    43   ar
    54    39    40    2
    55    45    43   ar
    56    67    66    1
    57   106   105    2
    58    31    32   ar
    59    79    80    2
    60    79    81   am
    61    64    62    1
    62    99    96    1
    63    30    32   ar
    64    30    33   ar
    65    62    61    1
    66   103   104    1
    67   103    97   am
    68    61    58    1
    69   104   105    1
    70    87    86    1
    71    96    97    1
    72    96    95    1
    73    32    34   ar
    74    33    35   ar
    75    88    86    1
    76    65    66    1
    77    65    59   am
    78    97    98    2
    79    66    69    1
    80    93    92    2
    81    86    83    1
    82   122   124   ar
    83   122   120   ar
    84    58    59    1
    85    58    57    1
    86    59    60    2
    87   124   123   ar
    88    95    92   am
    89    34    36   ar
    90    35    36   ar
    91   120   119   ar
    92    92    91    1
    93    69    70    1
    94    70    71    1
    95    57    51   am
    96    83    84    1
    97    83    82    1
    98   123   121   ar
    99    73    71   ar
   100   119   121   ar
   101   119   118    1
   102    84    90   am
   103    84    85    2
   104    90    91    1
   105    71    72   ar
   106    52    51    2
   107    91    94    1
   108    51    50    1
   109   118   115    1
   110   130   131    1
   111   130   129    1
   112   133   131   ar
   113   131   132   ar
   114   115   116    1
   115   115   114    1
   116   126   129    1
   117   126   127    1
   118   126   125    1
   119    55    53    1
   120    50    49    1
   121    50    53    1
   122   136   137    2
   123   136   135    1
   124   127   128    2
   125   116   117    2
   126    53    54    1
   127   135   134    1
   128   135   138    1
   129   113   112    1
   130   112   109    1
   131   144   146   ar
   132   144   141   ar
   133   146   147   ar
   134    54    56    1
   135   138   139    1
   136   111   110    2
   137   109   110    1
   138   109   108    1
   139   141   139   ar
   140   141   143   ar
   141   147   145   ar
   142   139   140   ar
   143   143   145   ar
   144   143   142   ar
   145   140   142   ar
