@<TRIPOS>MOLECULE
tmp/3g90A00.pdb
 137 127 0 0 0
SMALL
GASTEIGER

@<TRIPOS>ATOM
      1  N         29.0730    7.2230   38.2730 N.3    24  PRO24      -0.2102
      2  CA        28.8620    8.2990   37.2970 C.3    24  PRO24       0.1504
      3  C         28.4660    7.7700   35.9170 C.2    24  PRO24       0.2576
      4  O         29.1920    6.9810   35.3230 O.2    24  PRO24      -0.2718
      5  CB        30.2230    9.0100   37.2410 C.3    24  PRO24       0.0282
      6  CG        31.2070    8.0260   37.7860 C.3    24  PRO24       0.0208
      7  CD        30.4640    7.1760   38.7620 C.3    24  PRO24       0.0893
      8  N         27.3040    8.1970   35.4310 N.am   25  ILE25      -0.1966
      9  CA        26.8450    7.8470   34.0870 C.3    25  ILE25       0.1727
     10  C         26.6370    9.0870   33.1940 C.2    25  ILE25       0.2616
     11  O         26.1080    8.9880   32.0880 O.2    25  ILE25      -0.2715
     12  CB        25.5610    6.9800   34.1390 C.3    25  ILE25       0.0290
     13  CG1       24.3670    7.7860   34.6630 C.3    25  ILE25       0.0022
     14  CG2       25.8010    5.7110   34.9540 C.3    25  ILE25       0.0023
     15  CD1       23.0450    7.1100   34.4390 C.3    25  ILE25       0.0001
     16  N         27.0650   10.2480   33.6860 N.am   26  GLY26      -0.1955
     17  CA        26.9320   11.5190   32.9660 C.3    26  GLY26       0.1869
     18  C         27.5690   12.6580   33.7540 C.2    26  GLY26       0.2309
     19  O         27.4860   12.6850   34.9910 O.2    26  GLY26      -0.2863
     20  N         24.4830   15.6780   30.0490 N.3    28  GLN28      -0.1245
     21  CA        23.3780   16.4140   30.6780 C.3    28  GLN28       0.1566
     22  C         23.6040   16.6620   32.1760 C.2    28  GLN28       0.2260
     23  O         22.7600   16.3060   33.0090 O.2    28  GLN28      -0.2867
     24  CB        22.0320   15.6950   30.4510 C.3    28  GLN28       0.0367
     25  CG        20.8260   16.3780   31.1470 C.3    28  GLN28       0.0905
     26  CD        19.6080   15.4750   31.2390 C.2    28  GLN28       0.2608
     27  OE1       19.3330   14.8830   32.2860 O.2    28  GLN28      -0.2717
     28  NE2       18.8720   15.3610   30.1270 N.am   28  GLN28      -0.0878
     29  N         25.3710   13.2570   36.6590 N.3    31  VAL31      -0.1245
     30  CA        24.4000   12.1880   36.8820 C.3    31  VAL31       0.1561
     31  C         25.1080   10.9190   37.3710 C.2    31  VAL31       0.2260
     32  O         26.1880   10.5830   36.8930 O.2    31  VAL31      -0.2867
     33  CB        23.5680   11.8820   35.5950 C.3    31  VAL31       0.0252
     34  CG1       22.3300   11.0840   35.9230 C.3    31  VAL31       0.0019
     35  CG2       23.1680   13.1660   34.8850 C.3    31  VAL31       0.0019
     36  N         24.2140    6.6850   38.4070 N.3    33  ALA33      -0.1245
     37  CA        23.3120    5.5530   38.6450 C.3    33  ALA33       0.1562
     38  C         23.4280    5.1450   40.1220 C.2    33  ALA33       0.2260
     39  O         24.4980    5.2700   40.7170 O.2    33  ALA33      -0.2867
     40  CB        23.6480    4.3790   37.7270 C.3    33  ALA33       0.0290
     41  N         18.4080    6.7600   38.4540 N.3    44  ALA44      -0.1245
     42  CA        19.3890    7.7710   38.0540 C.3    44  ALA44       0.1562
     43  C         19.2350    8.9690   38.9740 C.2    44  ALA44       0.2260
     44  O         18.1030    9.3820   39.2810 O.2    44  ALA44      -0.2867
     45  CB        19.2000    8.1860   36.5930 C.3    44  ALA44       0.0290
     46  N         10.8000   10.3490   30.5340 N.3    77  ILE77      -0.1245
     47  CA        11.3870    9.8760   31.7950 C.3    77  ILE77       0.1561
     48  C         10.5560   10.2940   33.0350 C.2    77  ILE77       0.2260
     49  O         10.1110   11.4520   33.1490 O.2    77  ILE77      -0.2867
     50  CB        12.8930   10.3160   31.9660 C.3    77  ILE77       0.0252
     51  CG1       13.6720    9.3320   32.8540 C.3    77  ILE77       0.0019
     52  CG2       12.9910   11.7020   32.5610 C.3    77  ILE77       0.0019
     53  CD1       14.2970    8.1560   32.1150 C.3    77  ILE77       0.0001
     54  N         15.2950    9.8720   38.9580 N.3    99  MET99      -0.1230
     55  CA        14.5550    9.4350   37.7910 C.3    99  MET99       0.1702
     56  C         14.6840    7.9360   37.6930 C.2    99  MET99       0.2592
     57  O         15.5630    7.3290   38.3250 O.2    99  MET99      -0.2718
     58  CB        15.1210   10.0830   36.5280 C.3    99  MET99       0.0401
     59  CG        15.1370   11.6030   36.5420 C.3    99  MET99       0.0596
     60  SD        16.0700   12.2880   35.1360 S.3    99  MET99      -0.1393
     61  CE        17.7520   11.8090   35.5330 C.3    99  MET99       0.0692
     62  N         13.8160    7.3280   36.8930 N.am  100  GLU100     -0.1966
     63  CA        13.9500    5.9100   36.5950 C.3   100  GLU100      0.1733
     64  C         15.1300    5.7520   35.6610 C.2   100  GLU100      0.2616
     65  O         15.4990    6.6980   34.9610 O.2   100  GLU100     -0.2715
     66  CB        12.6790    5.3580   35.9610 C.3   100  GLU100      0.0429
     67  CG        12.1680    6.2060   34.8250 C.3   100  GLU100      0.1163
     68  CD        11.0200    5.5720   34.0900 C.2   100  GLU100      0.3649
     69  OE1       10.7100    4.3810   34.3490 O.co2 100  GLU100     -0.2457
     70  OE2       10.4320    6.2750   33.2400 O.co2 100  GLU100     -0.2457
     71  N         15.7240    4.5610   35.6840 N.am  101  LEU101     -0.1963
     72  CA        16.9430    4.2710   34.9540 C.3   101  LEU101      0.1728
     73  C         16.6930    3.3160   33.7880 C.2   101  LEU101      0.2616
     74  O         15.8350    2.4270   33.8510 O.2   101  LEU101     -0.2715
     75  CB        17.9740    3.6650   35.9060 C.3   101  LEU101      0.0311
     76  CG        19.4080    3.4340   35.4300 C.3   101  LEU101      0.0022
     77  CD1       20.1460    4.7500   35.1560 C.3   101  LEU101      0.0001
     78  CD2       20.1620    2.5550   36.4340 C.3   101  LEU101      0.0001
     79  N         17.4560    3.5130   32.7240 N.am  102  MET102     -0.1963
     80  CA        17.4090    2.6340   31.5730 C.3   102  MET102      0.1736
     81  C         18.8310    2.1110   31.4160 C.2   102  MET102      0.2616
     82  O         19.5530    2.0250   32.4140 O.2   102  MET102     -0.2715
     83  CB        16.8960    3.3830   30.3280 C.3   102  MET102      0.0427
     84  CG        15.5540    4.0840   30.5410 C.3   102  MET102      0.0599
     85  SD        14.1410    2.9480   30.4720 S.3   102  MET102     -0.1393
     86  CE        13.7640    3.0680   28.7250 C.3   102  MET102      0.0692
     87  N         19.2320    1.7710   30.1920 N.am  103  ASP103     -0.1957
     88  CA        20.4860    1.0510   29.9740 C.3   103  ASP103      0.1840
     89  C         21.5520    1.8210   29.1860 C.2   103  ASP103      0.2622
     90  O         22.7490    1.6370   29.4290 O.2   103  ASP103     -0.2715
     91  CB        20.2050   -0.3030   29.3150 C.3   103  ASP103      0.1450
     92  CG        19.4850   -1.2690   30.2430 C.2   103  ASP103      0.3671
     93  OD1       19.7880   -1.2770   31.4500 O.co2 103  ASP103     -0.2456
     94  OD2       18.6200   -2.0320   29.7710 O.co2 103  ASP103     -0.2456
     95  N         21.1240    2.6730   28.2510 N.am  104  ALA104     -0.1963
     96  CA        22.0620    3.4360   27.4240 C.3   104  ALA104      0.1728
     97  C         21.4940    4.7390   26.8510 C.2   104  ALA104      0.2616
     98  O         20.2720    4.9410   26.8080 O.2   104  ALA104     -0.2715
     99  CB        22.6070    2.5520   26.2900 C.3   104  ALA104      0.0334
    100  N         22.4050    5.6240   26.4420 N.am  105  ASN105     -0.1972
    101  CA        22.0860    6.7910   25.6140 C.3   105  ASN105      0.1688
    102  C         21.7630    6.3270   24.1900 C.2   105  ASN105      0.2292
    103  O         22.2140    5.2560   23.7680 O.2   105  ASN105     -0.2864
    104  CB        23.2810    7.7580   25.5390 C.3   105  ASN105      0.1181
    105  CG        23.7250    8.2690   26.9030 C.2   105  ASN105      0.2629
    106  OD1       22.9060    8.7030   27.7370 O.2   105  ASN105     -0.2716
    107  ND2       25.0380    8.2360   27.1380 N.am  105  ASN105     -0.0877
    108  N         24.8450    5.4570   21.8360 N.3   108  GLN108     -0.1245
    109  CA        25.4270    4.1130   21.8050 C.3   108  GLN108      0.1566
    110  C         24.6870    3.1820   20.8440 C.2   108  GLN108      0.2260
    111  O         25.2960    2.3010   20.2290 O.2   108  GLN108     -0.2867
    112  CB        25.4670    3.4960   23.2080 C.3   108  GLN108      0.0367
    113  CG        26.0380    4.4030   24.2950 C.3   108  GLN108      0.0905
    114  CD        25.9220    3.8020   25.7110 C.2   108  GLN108      0.2608
    115  OE1       25.3110    4.3970   26.6110 O.2   108  GLN108     -0.2717
    116  NE2       26.5190    2.6290   25.9080 N.am  108  GLN108     -0.0878
    117  N         21.5860   12.4720   22.9830 N.3   146  SER146     -0.1217
    118  CA        22.0460   12.4700   24.3720 C.3   146  SER146      0.1889
    119  C         20.9000   12.7230   25.3690 C.2   146  SER146      0.2288
    120  O         21.0410   12.4060   26.5530 O.2   146  SER146     -0.2866
    121  CB        23.2370   13.4200   24.5840 C.3   146  SER146      0.2089
    122  OG        22.9090   14.7640   24.2970 O.3   146  SER146     -0.2183
    123  N         17.1160    7.9870   26.0010 N.3   149  VAL149     -0.1245
    124  CA        17.6540    6.7940   26.6350 C.3   149  VAL149      0.1561
    125  C         16.8180    5.5650   26.3260 C.2   149  VAL149      0.2260
    126  O         15.6070    5.6550   26.1390 O.2   149  VAL149     -0.2867
    127  CB        17.8780    6.9920   28.1640 C.3   149  VAL149      0.0252
    128  CG1       18.9590    8.0360   28.3820 C.3   149  VAL149      0.0019
    129  CG2       16.5650    7.3700   28.8960 C.3   149  VAL149      0.0019
    130  N         14.4900   12.3870   27.9920 N.3   159  LEU159     -0.1245
    131  CA        14.9980   12.8780   29.2900 C.3   159  LEU159      0.1561
    132  C         14.6060   14.3070   29.6530 C.2   159  LEU159      0.2260
    133  O         14.3880   14.6100   30.8250 O.2   159  LEU159     -0.2867
    134  CB        16.5310   12.7880   29.3510 C.3   159  LEU159      0.0270
    135  CG        17.2830   11.4600   29.5420 C.3   159  LEU159      0.0019
    136  CD1       18.7800   11.7260   29.5310 C.3   159  LEU159      0.0001
    137  CD2       16.8940   10.7560   30.8370 C.3   159  LEU159      0.0001
@<TRIPOS>BOND
     1   111   110    2
     2   110   109    1
     3   109   108    1
     4   109   112    1
     5   117   118    1
     6   112   113    1
     7   103   102    2
     8   102   101    1
     9   113   114    1
    10   122   121    1
    11   118   121    1
    12   118   119    1
    13   119   120    2
    14   104   101    1
    15   104   105    1
    16   101   100    1
    17   114   116   am
    18   114   115    2
    19   123   124    1
    20   126   125    2
    21    99    96    1
    22   125   124    1
    23   100    97   am
    24   124   127    1
    25    98    97    2
    26    97    96    1
    27   105   107   am
    28   105   106    2
    29    96    95    1
    30   130   131    1
    31   127   128    1
    32   127   129    1
    33    95    89   am
    34    86    85    1
    35    89    90    2
    36    89    88    1
    37   131   134    1
    38   131   132    1
    39    91    88    1
    40    91    92    1
    41   134   135    1
    42   136   135    1
    43   135   137    1
    44   132   133    2
    45    94    92   ar
    46    88    87    1
    47    20    21    1
    48    28    26   am
    49    87    81   am
    50    92    93   ar
    51    83    84    1
    52    83    80    1
    53    24    21    1
    54    24    25    1
    55    85    84    1
    56    46    47    1
    57    21    22    1
    58    25    26    1
    59    26    27    2
    60    81    80    1
    61    81    82    2
    62    80    79    1
    63    47    50    1
    64    47    48    1
    65    50    52    1
    66    50    51    1
    67    11    10    2
    68    53    51    1
    69    22    23    2
    70    79    73   am
    71    17    16    1
    72    17    18    1
    73    48    49    2
    74    10    16   am
    75    10     9    1
    76    70    68   ar
    77    18    19    2
    78    73    74    2
    79    73    72    1
    80     9    12    1
    81     9     8    1
    82    68    69   ar
    83    68    67    1
    84    12    13    1
    85    12    14    1
    86    15    13    1
    87    67    66    1
    88    35    33    1
    89    72    71    1
    90    72    75    1
    91    65    64    2
    92    60    61    1
    93    60    59    1
    94    77    76    1
    95     4     3    2
    96    76    75    1
    97    76    78    1
    98     8     3   am
    99    33    34    1
   100    33    30    1
   101    64    71   am
   102    64    63    1
   103     3     2    1
   104    66    63    1
   105    58    59    1
   106    58    55    1
   107    45    42    1
   108    63    62    1
   109    29    30    1
   110    30    31    1
   111    62    56   am
   112    32    31    2
   113     5     2    1
   114     5     6    1
   115     2     1    1
   116    56    55    1
   117    56    57    2
   118    40    37    1
   119     6     7    1
   120    55    54    1
   121    42    41    1
   122    42    43    1
   123     1     7    1
   124    36    37    1
   125    37    38    1
   126    43    44    2
   127    38    39    2
