@<TRIPOS>MOLECULE
tmp/3g9eA00.pdb
 151 144 0 0 0
SMALL
GASTEIGER

@<TRIPOS>ATOM
      1  N         -2.6250   21.7820   25.2120 N.3    74  VAL74      -0.1231
      2  CA        -3.8320   22.0250   25.9830 C.3    74  VAL74       0.1692
      3  C         -4.3240   20.7260   26.6020 C.2    74  VAL74       0.2591
      4  O         -4.7330   20.6910   27.7700 O.2    74  VAL74      -0.2718
      5  CB        -4.9640   22.6520   25.0970 C.3    74  VAL74       0.0266
      6  CG1       -6.2870   22.6880   25.8530 C.3    74  VAL74       0.0020
      7  CG2       -4.5790   24.0710   24.7180 C.3    74  VAL74       0.0020
      8  N         -4.2680   19.6520   25.8280 N.am   75  GLN75      -0.1979
      9  CA        -4.7340   18.3620   26.3100 C.3    75  GLN75       0.1601
     10  C         -3.8290   17.8410   27.4490 C.2    75  GLN75       0.2287
     11  O         -4.3210   17.3220   28.4460 O.2    75  GLN75      -0.2864
     12  CB        -4.8200   17.3870   25.1150 C.3    75  GLN75       0.0394
     13  CG        -5.7200   17.9820   23.9900 C.3    75  GLN75       0.0908
     14  CD        -5.6320   17.2740   22.6220 C.2    75  GLN75       0.2608
     15  OE1       -4.5530   16.8900   22.1680 O.2    75  GLN75      -0.2717
     16  NE2       -6.7770   17.1360   21.9520 N.am   75  GLN75      -0.0878
     17  N         -4.4420   20.0450   30.5310 N.3    78  THR78      -0.1203
     18  CA        -5.7540   19.7530   31.1060 C.3    78  THR78       0.1994
     19  C         -5.7000   18.5050   32.0180 C.2    78  THR78       0.2617
     20  O         -6.2890   18.4820   33.1100 O.2    78  THR78      -0.2717
     21  CB        -6.8150   19.5030   29.9850 C.3    78  THR78       0.1784
     22  OG1       -7.0490   20.7190   29.2670 O.3    78  THR78      -0.2211
     23  CG2       -8.1420   18.9710   30.5890 C.3    78  THR78       0.0376
     24  N         -5.0160   17.4640   31.5400 N.am   79  GLU79      -0.1979
     25  CA        -4.8610   16.2370   32.3020 C.3    79  GLU79       0.1602
     26  C         -4.0890   16.5180   33.5950 C.2    79  GLU79       0.2287
     27  O         -4.4240   16.0100   34.6680 O.2    79  GLU79      -0.2864
     28  CB        -4.1220   15.1770   31.4740 C.3    79  GLU79       0.0415
     29  CG        -5.0650   14.3540   30.6340 C.3    79  GLU79       0.1163
     30  CD        -6.2120   13.7770   31.4660 C.2    79  GLU79       0.3649
     31  OE1       -7.3390   13.7280   30.9320 O.co2  79  GLU79      -0.2457
     32  OE2       -5.9870   13.3770   32.6450 O.co2  79  GLU79      -0.2457
     33  N         -6.2810   18.1320   36.2160 N.3    82  LYS82      -0.1245
     34  CA        -7.2190   17.2250   36.8680 C.3    82  LYS82       0.1561
     35  C         -6.5720   16.4410   37.9950 C.2    82  LYS82       0.2260
     36  O         -7.2750   15.8350   38.8100 O.2    82  LYS82      -0.2867
     37  CB        -7.8580   16.2790   35.8550 C.3    82  LYS82       0.0271
     38  CG        -8.7930   17.0140   34.9240 C.3    82  LYS82       0.0035
     39  CD        -8.9830   16.2820   33.6220 C.3    82  LYS82       0.0206
     40  CE        -9.7400   14.9780   33.7810 C.3    82  LYS82       0.1093
     41  NZ       -10.0880   14.4910   32.3840 N.3    82  LYS82      -0.1314
     42  N         -8.9440   20.4890   42.4430 N.3    87  PHE87      -0.1227
     43  CA        -9.3260   21.0500   41.1530 C.3    87  PHE87       0.1736
     44  C        -10.6350   20.4590   40.6080 C.2    87  PHE87       0.2595
     45  O        -11.5440   21.2140   40.2740 O.2    87  PHE87      -0.2718
     46  CB        -8.2030   20.8890   40.1170 C.3    87  PHE87       0.0547
     47  CG        -8.4820   21.6000   38.8090 C.ar   87  PHE87      -0.0202
     48  CD1       -8.3310   22.9760   38.7020 C.ar   87  PHE87      -0.0042
     49  CD2       -9.0010   20.9120   37.7270 C.ar   87  PHE87      -0.0042
     50  CE1       -8.7080   23.6470   37.5400 C.ar   87  PHE87      -0.0003
     51  CE2       -9.3740   21.5710   36.5760 C.ar   87  PHE87      -0.0003
     52  CZ        -9.2320   22.9380   36.4760 C.ar   87  PHE87      -0.0000
     53  N        -10.7640   19.1340   40.5230 N.am   88  VAL88      -0.1980
     54  CA       -11.9970   18.5910   39.9450 C.3    88  VAL88       0.1595
     55  C        -13.2760   18.8300   40.7420 C.2    88  VAL88       0.2287
     56  O        -14.3620   18.6260   40.1930 O.2    88  VAL88      -0.2864
     57  CB       -11.9000   17.0650   39.5860 C.3    88  VAL88       0.0276
     58  CG1      -10.8190   16.8470   38.5590 C.3    88  VAL88       0.0022
     59  CG2      -11.6760   16.2010   40.8660 C.3    88  VAL88       0.0022
     60  N        -17.5450   23.3200   37.5570 N.3    92  LEU92      -0.1245
     61  CA       -17.0480   22.9950   36.2300 C.3    92  LEU92       0.1561
     62  C        -16.7970   24.2050   35.3630 C.2    92  LEU92       0.2260
     63  O        -15.9160   24.1680   34.4920 O.2    92  LEU92      -0.2867
     64  CB       -18.0050   22.0390   35.5080 C.3    92  LEU92       0.0270
     65  CG       -17.5250   21.4360   34.1760 C.3    92  LEU92       0.0019
     66  CD1      -16.1030   20.8340   34.3010 C.3    92  LEU92       0.0001
     67  CD2      -18.5140   20.3810   33.7520 C.3    92  LEU92       0.0001
     68  N        -13.5470   25.7370   36.3330 N.3    95  GLN95      -0.1231
     69  CA       -12.4880   24.8740   35.7960 C.3    95  GLN95       0.1698
     70  C        -12.2200   25.2900   34.3460 C.2    95  GLN95       0.2592
     71  O        -11.0730   25.4040   33.9330 O.2    95  GLN95      -0.2718
     72  CB       -12.8990   23.3860   35.7960 C.3    95  GLN95       0.0381
     73  CG       -12.8020   22.6830   37.1390 C.3    95  GLN95       0.0905
     74  CD       -13.2470   21.2450   37.0510 C.2    95  GLN95       0.2608
     75  OE1      -12.6180   20.4320   36.3620 O.2    95  GLN95      -0.2717
     76  NE2      -14.3390   20.9230   37.7130 N.am   95  GLN95      -0.0878
     77  N        -13.2870   25.4930   33.5740 N.am   96  VAL96      -0.1980
     78  CA       -13.1480   25.9190   32.1800 C.3    96  VAL96       0.1595
     79  C        -12.4460   27.2780   32.1720 C.2    96  VAL96       0.2287
     80  O        -11.4720   27.4870   31.4590 O.2    96  VAL96      -0.2864
     81  CB       -14.5280   26.0300   31.4770 C.3    96  VAL96       0.0276
     82  CG1      -14.3790   26.7000   30.0960 C.3    96  VAL96       0.0022
     83  CG2      -15.1320   24.6280   31.3080 C.3    96  VAL96       0.0022
     84  N         -8.7810   27.1280   33.0160 N.3    99  LEU99      -0.1231
     85  CA        -8.0590   26.5560   31.8730 C.3    99  LEU99       0.1693
     86  C         -7.9360   27.5020   30.6880 C.2    99  LEU99       0.2591
     87  O         -6.8670   27.6190   30.0710 O.2    99  LEU99      -0.2718
     88  CB        -8.7460   25.2680   31.4040 C.3    99  LEU99       0.0284
     89  CG        -8.1940   23.9900   32.0140 C.3    99  LEU99       0.0019
     90  CD1       -9.0570   22.8220   31.6160 C.3    99  LEU99       0.0001
     91  CD2       -6.7750   23.7800   31.5390 C.3    99  LEU99       0.0001
     92  N         -9.0360   28.1700   30.3620 N.am  100  LYS100     -0.1980
     93  CA        -9.0550   29.0990   29.2450 C.3   100  LYS100      0.1596
     94  C         -7.9750   30.1730   29.3870 C.2   100  LYS100      0.2287
     95  O         -7.2560   30.4650   28.4370 O.2   100  LYS100     -0.2864
     96  CB       -10.4510   29.7450   29.1430 C.3   100  LYS100      0.0298
     97  CG       -10.6420   30.7400   28.0030 C.3   100  LYS100      0.0038
     98  CD       -11.9810   31.4990   28.1680 C.3   100  LYS100      0.0206
     99  CE       -12.3910   32.2310   26.9030 C.3   100  LYS100      0.1093
    100  NZ       -12.6770   31.2700   25.7960 N.3   100  LYS100     -0.1314
    101  N         -7.1190   26.6650   14.5720 N.3   247  HIS247     -0.1227
    102  CA        -7.6640   25.3380   14.8490 C.3   247  HIS247      0.1737
    103  C         -8.8350   25.5500   15.8390 C.2   247  HIS247      0.2438
    104  O         -8.7780   26.4560   16.6830 O.2   247  HIS247     -0.2733
    105  CB        -6.5630   24.4890   15.4810 C.3   247  HIS247      0.0758
    106  CG        -7.0370   23.1860   16.0430 C.ar  247  HIS247      0.0818
    107  ND1       -7.9490   23.1060   17.0740 N.ar  247  HIS247     -0.2268
    108  CD2       -6.7200   21.9080   15.7200 C.ar  247  HIS247      0.1154
    109  CE1       -8.1780   21.8370   17.3590 C.ar  247  HIS247      0.1986
    110  NE2       -7.4450   21.0900   16.5530 N.ar  247  HIS247     -0.2212
    111  N         -9.9120   24.7430   15.7360 N.am  248  PRO248     -0.2718
    112  CA       -11.0910   24.8400   16.6070 C.3   248  PRO248      0.1535
    113  C        -10.8790   24.9840   18.1240 C.2   248  PRO248      0.2598
    114  O        -11.4940   25.8360   18.7680 O.2   248  PRO248     -0.2715
    115  CB       -11.8750   23.5770   16.2510 C.3   248  PRO248      0.0310
    116  CG       -11.6260   23.4510   14.8010 C.3   248  PRO248      0.0237
    117  CD       -10.1370   23.7330   14.6860 C.3   248  PRO248      0.0939
    118  N        -10.0400   24.1260   18.6940 N.am  249  LEU249     -0.1978
    119  CA        -9.7750   24.1740   20.1250 C.3   249  LEU249      0.1596
    120  C         -9.1940   25.5320   20.5330 C.2   249  LEU249      0.2287
    121  O         -9.5630   26.0770   21.5700 O.2   249  LEU249     -0.2864
    122  CB        -8.8410   23.0330   20.4920 C.3   249  LEU249      0.0297
    123  CG        -8.7620   22.5940   21.9530 C.3   249  LEU249      0.0022
    124  CD1       -7.7090   23.3920   22.6700 C.3   249  LEU249      0.0001
    125  CD2      -10.1130   22.7340   22.6090 C.3   249  LEU249      0.0001
    126  N        -11.8390   28.3150   20.4770 N.3   252  GLU252     -0.1231
    127  CA       -12.6750   28.2890   21.6700 C.3   252  GLU252      0.1699
    128  C        -11.9620   28.8830   22.8970 C.2   252  GLU252      0.2592
    129  O        -12.5890   29.5400   23.7150 O.2   252  GLU252     -0.2718
    130  CB       -13.1400   26.8490   21.9600 C.3   252  GLU252      0.0402
    131  CG       -13.8180   26.6530   23.3350 C.3   252  GLU252      0.1161
    132  CD       -14.0320   25.1750   23.6970 C.2   252  GLU252      0.3649
    133  OE1      -14.0240   24.8610   24.9040 O.co2 252  GLU252     -0.2457
    134  OE2      -14.2150   24.3390   22.7840 O.co2 252  GLU252     -0.2457
    135  N        -10.6550   28.6490   23.0160 N.am  253  ILE253     -0.1980
    136  CA        -9.8880   29.1840   24.1350 C.3   253  ILE253      0.1595
    137  C         -9.7420   30.7000   23.9670 C.2   253  ILE253      0.2287
    138  O         -9.8860   31.4530   24.9310 O.2   253  ILE253     -0.2864
    139  CB        -8.4930   28.4880   24.2340 C.3   253  ILE253      0.0276
    140  CG1       -8.6530   27.1090   24.8960 C.3   253  ILE253      0.0022
    141  CG2       -7.5250   29.3220   25.0590 C.3   253  ILE253      0.0022
    142  CD1       -7.4310   26.2050   24.7850 C.3   253  ILE253      0.0001
    143  N        -11.7540   32.9450   22.2080 N.3   255  LYS255     -0.1245
    144  CA       -12.9100   33.8290   22.1680 C.3   255  LYS255      0.1561
    145  C        -13.3640   34.2990   23.5440 C.2   255  LYS255      0.2260
    146  O        -13.5250   33.5090   24.4830 O.2   255  LYS255     -0.2867
    147  CB       -14.0550   33.1700   21.3820 C.3   255  LYS255      0.0271
    148  CG       -15.3740   32.9660   22.1020 C.3   255  LYS255      0.0035
    149  CD       -16.3910   32.3980   21.1060 C.3   255  LYS255      0.0206
    150  CE       -17.5030   31.5930   21.7880 C.3   255  LYS255      0.1093
    151  NZ       -18.3410   30.8240   20.8080 N.3   255  LYS255     -0.1314
@<TRIPOS>BOND
     1   101   102    1
     2   117   116    1
     3   117   111    1
     4   116   115    1
     5   102   105    1
     6   102   103    1
     7   105   106    1
     8   108   106   ar
     9   108   110   ar
    10   111   103   am
    11   111   112    1
    12   103   104    2
    13   106   107   ar
    14   115   112    1
    15   110   109   ar
    16   112   113    1
    17   107   109   ar
    18   113   118   am
    19   113   114    2
    20   118   119    1
    21   119   122    1
    22   119   120    1
    23   126   127    1
    24   122   123    1
    25   120   121    2
    26   151   150    1
    27   149   150    1
    28   149   148    1
    29   147   148    1
    30   147   144    1
    31   127   130    1
    32   127   128    1
    33    16    14   am
    34   123   125    1
    35   123   124    1
    36   130   131    1
    37    15    14    2
    38   144   143    1
    39   144   145    1
    40    14    13    1
    41   134   132   ar
    42   128   135   am
    43   128   129    2
    44   135   136    1
    45   131   132    1
    46   145   146    2
    47   132   133   ar
    48   137   136    1
    49   137   138    2
    50    13    12    1
    51   136   139    1
    52   139   140    1
    53   139   141    1
    54     7     5    1
    55   142   140    1
    56     5     6    1
    57     5     2    1
    58    12     9    1
    59     1     2    1
    60   100    99    1
    61     8     9    1
    62     8     3   am
    63     2     3    1
    64     9    10    1
    65     3     4    2
    66    99    98    1
    67    10    11    2
    68    97    98    1
    69    97    96    1
    70    95    94    2
    71    96    93    1
    72    93    94    1
    73    93    92    1
    74    22    21    1
    75    21    23    1
    76    21    18    1
    77    87    86    2
    78    82    81    1
    79    92    86   am
    80    17    18    1
    81    29    30    1
    82    29    28    1
    83    86    85    1
    84    31    30   ar
    85    18    19    1
    86    83    81    1
    87    88    85    1
    88    88    89    1
    89    80    79    2
    90    30    32   ar
    91    28    25    1
    92    81    78    1
    93    91    89    1
    94    24    19   am
    95    24    25    1
    96    90    89    1
    97    85    84    1
    98    19    20    2
    99    79    78    1
   100    78    77    1
   101    25    26    1
   102    41    40    1
   103    77    70   am
   104    26    27    2
   105    39    40    1
   106    39    38    1
   107    67    65    1
   108    71    70    2
   109    65    66    1
   110    65    64    1
   111    70    69    1
   112    63    62    2
   113    38    37    1
   114    62    61    1
   115    64    61    1
   116    69    72    1
   117    69    68    1
   118    72    73    1
   119    37    34    1
   120    33    34    1
   121    61    60    1
   122    75    74    2
   123    52    51   ar
   124    52    50   ar
   125    51    49   ar
   126    34    35    1
   127    74    73    1
   128    74    76   am
   129    50    48   ar
   130    49    47   ar
   131    35    36    2
   132    58    57    1
   133    48    47   ar
   134    47    46    1
   135    57    54    1
   136    57    59    1
   137    54    53    1
   138    54    55    1
   139    46    43    1
   140    56    55    2
   141    45    44    2
   142    53    44   am
   143    44    43    1
   144    43    42    1
