@<TRIPOS>MOLECULE
tmp/3g9eA01.pdb
 239 228 0 0 0
SMALL
GASTEIGER

@<TRIPOS>ATOM
      1  N         14.1710   23.2680    6.3320 N.3    49  LEU49      -0.1245
      2  CA        12.7710   23.0740    6.6710 C.3    49  LEU49       0.1561
      3  C         12.1570   21.9500    5.8570 C.2    49  LEU49       0.2260
      4  O         11.5950   21.0080    6.4140 O.2    49  LEU49      -0.2867
      5  CB        11.9760   24.3620    6.4210 C.3    49  LEU49       0.0270
      6  CG        10.4580   24.2430    6.5960 C.3    49  LEU49       0.0019
      7  CD1       10.1450   23.8010    8.0160 C.3    49  LEU49       0.0001
      8  CD2        9.7940   25.5700    6.3060 C.3    49  LEU49       0.0001
      9  N          3.2040   27.7220    7.3890 N.3    61  ARG61      -0.1231
     10  CA         3.4330   26.3350    7.7700 C.3    61  ARG61       0.1694
     11  C          3.9970   26.2010    9.1880 C.2    61  ARG61       0.2592
     12  O          3.6040   25.3080    9.9370 O.2    61  ARG61      -0.2718
     13  CB         4.3290   25.6570    6.7300 C.3    61  ARG61       0.0321
     14  CG         3.4940   24.9580    5.6420 C.3    61  ARG61       0.0489
     15  CD         4.1240   24.9820    4.2590 C.3    61  ARG61       0.2205
     16  NE         5.4790   24.4440    4.2200 N.pl3  61  ARG61      -0.0865
     17  CZ         6.4070   24.9140    3.3980 C.cat  61  ARG61       0.5346
     18  NH1        6.0920   25.9190    2.5820 N.pl3  61  ARG61       0.1354
     19  NH2        7.6360   24.3980    3.3950 N.pl3  61  ARG61       0.1354
     20  N          4.8970   27.1000    9.5630 N.am   62  ILE62      -0.1966
     21  CA         5.4370   27.0850   10.9060 C.3    62  ILE62       0.1727
     22  C          4.3450   27.5520   11.8830 C.2    62  ILE62       0.2616
     23  O          4.2010   27.0240   12.9830 O.2    62  ILE62      -0.2715
     24  CB         6.6800   27.9860   10.9790 C.3    62  ILE62       0.0290
     25  CG1        7.8530   27.2510   10.3200 C.3    62  ILE62       0.0022
     26  CG2        7.0000   28.3660   12.4200 C.3    62  ILE62       0.0023
     27  CD1        9.0400   28.1190   10.0860 C.3    62  ILE62       0.0001
     28  N          3.5550   28.5330   11.4740 N.am   63  PHE63      -0.1974
     29  CA         2.4890   29.0130   12.3330 C.3    63  PHE63       0.1639
     30  C          1.5560   27.8560   12.6820 C.2    63  PHE63       0.2290
     31  O          1.2750   27.6170   13.8520 O.2    63  PHE63      -0.2864
     32  CB         1.6920   30.1180   11.6430 C.3    63  PHE63       0.0560
     33  CG         0.6480   30.7590   12.5250 C.ar   63  PHE63      -0.0200
     34  CD1        1.0200   31.5440   13.6090 C.ar   63  PHE63      -0.0042
     35  CD2       -0.7040   30.5700   12.2710 C.ar   63  PHE63      -0.0042
     36  CE1        0.0580   32.1320   14.4350 C.ar   63  PHE63      -0.0003
     37  CE2       -1.6740   31.1540   13.0940 C.ar   63  PHE63      -0.0003
     38  CZ        -1.2910   31.9330   14.1740 C.ar   63  PHE63      -0.0000
     39  N          2.1830   24.7360   12.5710 N.3    65  GLY65      -0.1210
     40  CA         2.8820   23.7090   13.3250 C.3    65  GLY65       0.1956
     41  C          2.8010   24.1040   14.8010 C.2    65  GLY65       0.2612
     42  O          2.6350   23.2420   15.6730 O.2    65  GLY65      -0.2717
     43  N          2.8960   25.4080   15.0900 N.am   66  CYS66      -0.1956
     44  CA         2.8280   25.8660   16.4740 C.3    66  CYS66       0.1843
     45  C          1.4290   25.6400   17.0210 C.2    66  CYS66       0.2625
     46  O          1.2390   25.4060   18.2170 O.2    66  CYS66      -0.2714
     47  CB         3.2010   27.3430   16.5900 C.3    66  CYS66       0.0997
     48  SG         4.9310   27.7160   16.2520 S.3    66  CYS66      -0.0797
     49  N          0.4460   25.6770   16.1310 N.am   67  GLN67      -0.1977
     50  CA        -0.9390   25.4770   16.5370 C.3    67  GLN67       0.1601
     51  C         -1.2090   24.0390   16.9320 C.2    67  GLN67       0.2287
     52  O         -1.8110   23.7930   17.9720 O.2    67  GLN67      -0.2864
     53  CB        -1.9010   25.9040   15.4240 C.3    67  GLN67       0.0394
     54  CG        -2.0750   27.3990   15.3360 C.3    67  GLN67       0.0908
     55  CD        -3.1750   27.7960   14.3520 C.2    67  GLN67       0.2608
     56  OE1       -4.3350   27.4550   14.5350 O.2    67  GLN67      -0.2717
     57  NE2       -2.8020   28.5160   13.3070 N.am   67  GLN67      -0.0878
     58  N          0.9600   21.9650   17.8770 N.3    69  ARG69      -0.1231
     59  CA         1.7310   21.7680   19.0970 C.3    69  ARG69       0.1694
     60  C          0.8910   22.2670   20.2710 C.2    69  ARG69       0.2592
     61  O          0.7560   21.6050   21.2990 O.2    69  ARG69      -0.2718
     62  CB         3.0460   22.5470   19.0420 C.3    69  ARG69       0.0321
     63  CG         3.8750   22.4320   20.3000 C.3    69  ARG69       0.0489
     64  CD         3.9350   20.9720   20.8200 C.3    69  ARG69       0.2205
     65  NE         4.2650   20.9740   22.2420 N.pl3  69  ARG69      -0.0865
     66  CZ         3.7670   20.1410   23.1580 C.cat  69  ARG69       0.5346
     67  NH1        2.8940   19.1940   22.8320 N.pl3  69  ARG69       0.1354
     68  NH2        4.1520   20.2600   24.4220 N.pl3  69  ARG69       0.1354
     69  N          0.3120   23.4440   20.0850 N.am   70  SER70      -0.1952
     70  CA        -0.5180   24.0910   21.0830 C.3    70  SER70       0.1924
     71  C         -1.7700   23.2710   21.4530 C.2    70  SER70       0.2314
     72  O         -2.0960   23.1380   22.6420 O.2    70  SER70      -0.2863
     73  CB        -0.9080   25.4700   20.5510 C.3    70  SER70       0.2116
     74  OG        -1.5360   26.2460   21.5210 O.3    70  SER70      -0.2180
     75  N         -2.2030   29.0790   27.9150 N.3   104  HIS104     -0.1241
     76  CA        -1.0640   29.6050   27.1530 C.3   104  HIS104      0.1621
     77  C          0.0770   30.0640   28.0510 C.2   104  HIS104      0.2264
     78  O          1.2340   30.0310   27.6420 O.2   104  HIS104     -0.2867
     79  CB        -1.4700   30.7320   26.1750 C.3   104  HIS104      0.0745
     80  CG        -2.1100   30.2310   24.9130 C.ar  104  HIS104      0.0817
     81  ND1       -3.4800   30.1060   24.7730 N.ar  104  HIS104     -0.2268
     82  CD2       -1.5670   29.7310   23.7770 C.ar  104  HIS104      0.1154
     83  CE1       -3.7510   29.5420   23.6070 C.ar  104  HIS104      0.1986
     84  NE2       -2.6100   29.3030   22.9840 N.ar  104  HIS104     -0.2212
     85  N          1.9120   27.0400   28.4320 N.3   107  ILE107     -0.1231
     86  CA         2.5380   26.6880   27.1720 C.3   107  ILE107      0.1692
     87  C          3.8600   27.4600   27.0440 C.2   107  ILE107      0.2592
     88  O          4.9000   26.8680   26.7410 O.2   107  ILE107     -0.2718
     89  CB         1.6030   26.9840   25.9590 C.3   107  ILE107      0.0266
     90  CG1        0.4720   25.9430   25.9210 C.3   107  ILE107      0.0019
     91  CG2        2.4040   26.9470   24.6160 C.3   107  ILE107      0.0020
     92  CD1       -0.6380   26.2300   24.9050 C.3   107  ILE107      0.0001
     93  N          3.8450   28.7630   27.3090 N.am  108  TYR108     -0.1976
     94  CA         5.0800   29.5430   27.1720 C.3   108  TYR108      0.1639
     95  C          6.1060   29.1820   28.2560 C.2   108  TYR108      0.2290
     96  O          7.3150   29.1260   28.0040 O.2   108  TYR108     -0.2864
     97  CB         4.7550   31.0400   27.1490 C.3   108  TYR108      0.0560
     98  CG         3.7710   31.4000   26.0280 C.ar  108  TYR108     -0.0198
     99  CD1        3.9070   30.8610   24.7410 C.ar  108  TYR108     -0.0009
    100  CD2        2.6850   32.2320   26.2670 C.ar  108  TYR108     -0.0009
    101  CE1        2.9720   31.1360   23.7280 C.ar  108  TYR108      0.0417
    102  CE2        1.7410   32.5240   25.2500 C.ar  108  TYR108      0.0417
    103  CZ         1.8940   31.9730   24.0020 C.ar  108  TYR108      0.1957
    104  OH         0.9570   32.2530   23.0410 O.3   108  TYR108     -0.2866
    105  N          7.4260   25.9380   27.0600 N.3   111  LEU111     -0.1245
    106  CA         8.1160   26.1610   25.8020 C.3   111  LEU111      0.1561
    107  C          9.5570   26.5970   26.0690 C.2   111  LEU111      0.2260
    108  O         10.4350   26.3450   25.2510 O.2   111  LEU111     -0.2867
    109  CB         7.4110   27.2750   25.0180 C.3   111  LEU111      0.0270
    110  CG         8.1460   27.7770   23.7720 C.3   111  LEU111      0.0019
    111  CD1        8.3420   26.6150   22.7720 C.3   111  LEU111      0.0001
    112  CD2        7.3130   28.8870   23.1230 C.3   111  LEU111      0.0001
    113  N         12.2070   23.9290   26.1260 N.3   114  LEU114     -0.1231
    114  CA        12.7860   23.3950   24.9010 C.3   114  LEU114      0.1693
    115  C         13.6210   24.4160   24.1240 C.2   114  LEU114      0.2591
    116  O         14.0030   24.1730   22.9930 O.2   114  LEU114     -0.2718
    117  CB        11.6870   22.8210   23.9950 C.3   114  LEU114      0.0284
    118  CG        10.5210   22.1040   24.6820 C.3   114  LEU114      0.0019
    119  CD1        9.7550   21.3200   23.6300 C.3   114  LEU114      0.0001
    120  CD2       10.9850   21.1680   25.7790 C.3   114  LEU114      0.0001
    121  N         13.9310   25.5340   24.7730 N.am  115  MET115     -0.1979
    122  CA        14.6980   26.6120   24.1770 C.3   115  MET115      0.1605
    123  C         16.0380   26.9250   24.8280 C.2   115  MET115      0.2287
    124  O         16.2240   26.7410   26.0300 O.2   115  MET115     -0.2864
    125  CB        13.8910   27.9180   24.2230 C.3   115  MET115      0.0413
    126  CG        12.6360   27.9800   23.3540 C.3   115  MET115      0.0598
    127  SD        11.7490   29.5540   23.6130 S.3   115  MET115     -0.1393
    128  CE        10.9760   29.8050   21.9370 C.3   115  MET115      0.0692
    129  N         14.8600   26.3030   19.2610 N.3   120  VAL120     -0.1231
    130  CA        13.8720   25.5850   20.0370 C.3   120  VAL120      0.1692
    131  C         13.6570   24.2110   19.4560 C.2   120  VAL120      0.2592
    132  O         13.6590   24.0410   18.2280 O.2   120  VAL120     -0.2718
    133  CB        12.5020   26.3380   20.0130 C.3   120  VAL120      0.0266
    134  CG1       12.0840   26.6200   18.5690 C.3   120  VAL120      0.0020
    135  CG2       11.4180   25.5040   20.6820 C.3   120  VAL120      0.0020
    136  N         13.4580   23.2380   20.3380 N.am  121  LEU121     -0.1966
    137  CA        13.1960   21.8600   19.9080 C.3   121  LEU121      0.1728
    138  C         11.7590   21.7490   19.4100 C.2   121  LEU121      0.2616
    139  O         10.8570   22.3540   19.9880 O.2   121  LEU121     -0.2715
    140  CB        13.3460   20.8980   21.0750 C.3   121  LEU121      0.0311
    141  CG        14.7230   20.6790   21.6950 C.3   121  LEU121      0.0022
    142  CD1       14.5640   19.7870   22.9560 C.3   121  LEU121      0.0001
    143  CD2       15.6390   20.0030   20.6620 C.3   121  LEU121      0.0001
    144  N         11.5560   20.9860   18.3430 N.am  122  ILE122     -0.1963
    145  CA        10.2160   20.7790   17.8090 C.3   122  ILE122      0.1727
    146  C          9.9130   19.2970   17.6850 C.2   122  ILE122      0.2616
    147  O         10.8250   18.4520   17.6900 O.2   122  ILE122     -0.2715
    148  CB        10.0220   21.4270   16.4020 C.3   122  ILE122      0.0290
    149  CG1       10.9070   20.7310   15.3720 C.3   122  ILE122      0.0022
    150  CG2       10.3390   22.9310   16.4590 C.3   122  ILE122      0.0023
    151  CD1       10.4870   21.0310   13.9430 C.3   122  ILE122      0.0001
    152  N          8.6280   18.9900   17.5750 N.am  123  SER123     -0.1950
    153  CA         8.1350   17.6240   17.4350 C.3   123  SER123      0.1924
    154  C          8.8300   16.5720   18.3280 C.2   123  SER123      0.2314
    155  O          9.6380   15.7650   17.8640 O.2   123  SER123     -0.2863
    156  CB         8.1970   17.2020   15.9570 C.3   123  SER123      0.2116
    157  OG         9.4950   16.7690   15.5960 O.3   123  SER123     -0.2180
    158  N         14.8770   24.0910   15.4940 N.3   129  MET129     -0.1245
    159  CA        14.6700   25.2070   14.5840 C.3   129  MET129      0.1570
    160  C         15.4320   26.3900   15.1560 C.2   129  MET129      0.2261
    161  O         15.1740   26.8130   16.2830 O.2   129  MET129     -0.2867
    162  CB        13.1720   25.5170   14.5100 C.3   129  MET129      0.0387
    163  CG        12.7560   26.4270   13.3720 C.3   129  MET129      0.0595
    164  SD        10.9950   26.2330   12.9780 S.3   129  MET129     -0.1393
    165  CE        11.0350   24.9820   11.7210 C.3   129  MET129      0.0692
    166  N         13.7340   31.6160   12.5650 N.3   134  LEU134     -0.1245
    167  CA        12.4070   32.0450   12.9880 C.3   134  LEU134      0.1561
    168  C         12.2400   33.5610   12.8590 C.2   134  LEU134      0.2260
    169  O         11.1260   34.0580   12.6530 O.2   134  LEU134     -0.2867
    170  CB        12.1630   31.5840   14.4410 C.3   134  LEU134      0.0270
    171  CG        11.9030   30.0710   14.5200 C.3   134  LEU134      0.0019
    172  CD1       12.1890   29.5260   15.9010 C.3   134  LEU134      0.0001
    173  CD2       10.4540   29.8140   14.0850 C.3   134  LEU134      0.0001
    174  N          6.5370   36.7310   16.4780 N.3   144  PHE144     -0.1227
    175  CA         5.7790   35.7840   17.3050 C.3   144  PHE144      0.1736
    176  C          6.7590   34.9790   18.1490 C.2   144  PHE144      0.2595
    177  O          6.4350   34.5620   19.2540 O.2   144  PHE144     -0.2718
    178  CB         5.0210   34.7650   16.4560 C.3   144  PHE144      0.0547
    179  CG         3.5630   35.0270   16.3530 C.ar  144  PHE144     -0.0202
    180  CD1        2.8520   35.5290   17.4360 C.ar  144  PHE144     -0.0042
    181  CD2        2.8890   34.7700   15.1690 C.ar  144  PHE144     -0.0042
    182  CE1        1.4760   35.7770   17.3380 C.ar  144  PHE144     -0.0003
    183  CE2        1.5220   35.0130   15.0620 C.ar  144  PHE144     -0.0003
    184  CZ         0.8140   35.5180   16.1420 C.ar  144  PHE144     -0.0000
    185  N          7.9510   34.7550   17.6000 N.am  145  MET145     -0.1979
    186  CA         8.9650   33.9560   18.2600 C.3   145  MET145      0.1605
    187  C          9.9290   34.6660   19.1840 C.2   145  MET145      0.2287
    188  O         10.1570   34.2200   20.3120 O.2   145  MET145     -0.2864
    189  CB         9.7730   33.1880   17.2180 C.3   145  MET145      0.0413
    190  CG         9.3640   31.7230   17.0650 C.3   145  MET145      0.0598
    191  SD         7.7540   31.5070   16.3360 S.3   145  MET145     -0.1393
    192  CE         7.7790   32.8980   15.0660 C.3   145  MET145      0.0692
    193  N          9.3310   35.1960   22.8650 N.3   148  LYS148     -0.1245
    194  CA         9.2710   33.9600   23.6400 C.3   148  LYS148      0.1561
    195  C         10.6850   33.5540   24.0280 C.2   148  LYS148      0.2260
    196  O         10.9080   33.0290   25.1260 O.2   148  LYS148     -0.2867
    197  CB         8.6220   32.8470   22.8220 C.3   148  LYS148      0.0271
    198  CG         7.3620   33.3170   22.1070 C.3   148  LYS148      0.0035
    199  CD         6.2320   33.4810   23.0540 C.3   148  LYS148      0.0206
    200  CE         5.1930   34.4750   22.5380 C.3   148  LYS148      0.1093
    201  NZ         4.4060   34.0920   21.3650 N.3   148  LYS148     -0.1314
    202  N          0.9440   38.4060   22.5230 N.3   230  HIS230     -0.1241
    203  CA         0.6080   37.3680   21.5530 C.3   230  HIS230      0.1621
    204  C         -0.7920   37.5060   20.9590 C.2   230  HIS230      0.2264
    205  O         -0.9830   37.3600   19.7480 O.2   230  HIS230     -0.2867
    206  CB         0.7240   35.9780   22.1900 C.3   230  HIS230      0.0745
    207  CG         0.7080   34.8580   21.1950 C.ar  230  HIS230      0.0817
    208  ND1        1.8330   34.4510   20.5180 N.ar  230  HIS230     -0.2268
    209  CD2       -0.2920   34.0450   20.7790 C.ar  230  HIS230      0.1154
    210  CE1        1.5320   33.4300   19.7320 C.ar  230  HIS230      0.1986
    211  NE2        0.2460   33.1650   19.8700 N.ar  230  HIS230     -0.2212
    212  N         -2.0620   38.0470   17.0860 N.3   234  LEU234     -0.1245
    213  CA        -3.0490   37.1590   16.4730 C.3   234  LEU234      0.1561
    214  C         -4.2040   38.0140   15.9130 C.2   234  LEU234      0.2260
    215  O         -4.8130   37.6490   14.9070 O.2   234  LEU234     -0.2867
    216  CB        -3.5820   36.1590   17.5140 C.3   234  LEU234      0.0270
    217  CG        -3.2730   34.6450   17.4890 C.3   234  LEU234      0.0019
    218  CD1       -2.0520   34.2920   16.6580 C.3   234  LEU234      0.0001
    219  CD2       -3.1140   34.1880   18.9380 C.3   234  LEU234      0.0001
    220  N         -8.3140   26.0860   19.6960 N.3   250  LEU250     -0.1245
    221  CA        -7.6950   27.3790   19.9610 C.3   250  LEU250      0.1561
    222  C         -8.7090   28.4920   19.8150 C.2   250  LEU250      0.2260
    223  O         -8.6640   29.4700   20.5650 O.2   250  LEU250     -0.2867
    224  CB        -6.5060   27.6390   19.0110 C.3   250  LEU250      0.0270
    225  CG        -5.3440   26.6610   19.1990 C.3   250  LEU250      0.0019
    226  CD1       -5.8370   25.2920   18.7780 C.3   250  LEU250      0.0001
    227  CD2       -4.1180   27.0580   18.3730 C.3   250  LEU250      0.0001
    228  N         -9.4980   31.1540   22.7410 N.3   254  TYR254     -0.1241
    229  CA        -9.3270   32.5830   22.4950 C.3   254  TYR254      0.1605
    230  C        -10.5700   33.4820   22.4760 C.2   254  TYR254      0.2264
    231  O        -10.4500   34.6860   22.6990 O.2   254  TYR254     -0.2867
    232  CB        -8.5470   32.8140   21.1940 C.3   254  TYR254      0.0534
    233  CG        -7.0580   32.5890   21.3420 C.ar  254  TYR254     -0.0201
    234  CD1       -6.4120   31.6090   20.6050 C.ar  254  TYR254     -0.0009
    235  CD2       -6.3020   33.3460   22.2450 C.ar  254  TYR254     -0.0009
    236  CE1       -5.0590   31.3750   20.7540 C.ar  254  TYR254      0.0417
    237  CE2       -4.9360   33.1220   22.4020 C.ar  254  TYR254      0.0417
    238  CZ        -4.3230   32.1350   21.6450 C.ar  254  TYR254      0.1957
    239  OH        -2.9670   31.9420   21.7180 O.3   254  TYR254     -0.2866
@<TRIPOS>BOND
     1    18    17    1
     2    19    17    1
     3    17    16    2
     4    16    15    1
     5    15    14    1
     6    14    13    1
     7     3     4    2
     8     3     2    1
     9     8     6    1
    10     1     2    1
    11     5     6    1
    12     5     2    1
    13     6     7    1
    14    13    10    1
    15     9    10    1
    16    10    11    1
    17    11    20   am
    18    11    12    2
    19    20    21    1
    20    27    25    1
    21    25    24    1
    22    21    24    1
    23    21    22    1
    24    24    26    1
    25    28    22   am
    26    28    29    1
    27    32    29    1
    28    32    33    1
    29   165   164    1
    30    22    23    2
    31    35    33   ar
    32    35    37   ar
    33    29    30    1
    34    33    34   ar
    35   166   167    1
    36    39    40    1
    37   169   168    2
    38    30    31    2
    39   168   167    1
    40   164   163    1
    41   167   170    1
    42    37    38   ar
    43    57    55   am
    44    40    41    1
    45   163   162    1
    46    34    36   ar
    47   151   149    1
    48   173   171    1
    49    38    36   ar
    50    55    56    2
    51    55    54    1
    52   170   171    1
    53   162   159    1
    54   171   172    1
    55   159   160    1
    56   159   158    1
    57    41    43   am
    58    41    42    2
    59   215   214    2
    60   183   181   ar
    61   183   184   ar
    62   192   191    1
    63    43    44    1
    64   160   161    2
    65   181   179   ar
    66    54    53    1
    67   149   148    1
    68    53    50    1
    69   157   156    1
    70   214   213    1
    71   156   153    1
    72    49    50    1
    73    49    45   am
    74   184   182   ar
    75    48    47    1
    76   191   190    1
    77   179   178    1
    78   179   180   ar
    79   148   150    1
    80   148   145    1
    81   178   175    1
    82   213   212    1
    83   213   216    1
    84    44    47    1
    85    44    45    1
    86   174   175    1
    87    50    51    1
    88   218   217    1
    89    51    52    2
    90    45    46    2
    91   190   189    1
    92   189   186    1
    93   175   176    1
    94   182   180   ar
    95   153   152    1
    96   153   154    1
    97   217   216    1
    98   217   219    1
    99   152   146   am
   100   185   176   am
   101   185   186    1
   102   146   147    2
   103   146   145    1
   104   145   144    1
   105   155   154    2
   106    58    59    1
   107   176   177    2
   108   132   131    2
   109   186   187    1
   110   144   138   am
   111   227   225    1
   112   134   133    1
   113   226   225    1
   114   224   225    1
   115   224   221    1
   116    62    59    1
   117    62    63    1
   118    59    60    1
   119   187   188    2
   120   129   130    1
   121   138   137    1
   122   138   139    2
   123   131   130    1
   124   131   136   am
   125   220   221    1
   126   210   211   ar
   127   210   208   ar
   128   205   204    2
   129   222   221    1
   130   222   223    2
   131   211   209   ar
   132   137   136    1
   133   137   140    1
   134   133   130    1
   135   133   135    1
   136    69    60   am
   137    69    70    1
   138    60    61    2
   139    63    64    1
   140   208   207   ar
   141    73    70    1
   142    73    74    1
   143   234   236   ar
   144   234   233   ar
   145   143   141    1
   146   236   238   ar
   147   209   207   ar
   148    64    65    1
   149   204   203    1
   150   140   141    1
   151    70    71    1
   152   232   233    1
   153   232   229    1
   154   207   206    1
   155   233   235   ar
   156   201   200    1
   157    71    72    2
   158   203   206    1
   159   203   202    1
   160   238   239    1
   161   238   237   ar
   162   141   142    1
   163   128   127    1
   164   198   197    1
   165   198   199    1
   166    65    66    2
   167   235   237   ar
   168   230   229    1
   169   230   231    2
   170   229   228    1
   171   200   199    1
   172   111   110    1
   173   197   194    1
   174    67    66    1
   175   193   194    1
   176    84    83   ar
   177    84    82   ar
   178   116   115    2
   179   104   103    1
   180   112   110    1
   181    66    68    1
   182   126   127    1
   183   126   125    1
   184    83    81   ar
   185   119   118    1
   186   194   195    1
   187   101   103   ar
   188   101    99   ar
   189   110   109    1
   190    82    80   ar
   191   117   118    1
   192   117   114    1
   193   103   102   ar
   194   195   196    2
   195   115   121   am
   196   115   114    1
   197   122   125    1
   198   122   121    1
   199   122   123    1
   200    91    89    1
   201   118   120    1
   202    99    98   ar
   203    81    80   ar
   204   123   124    2
   205   114   113    1
   206    92    90    1
   207    80    79    1
   208   109   106    1
   209   102   100   ar
   210   108   107    2
   211   106   107    1
   212   106   105    1
   213    90    89    1
   214    89    86    1
   215    98   100   ar
   216    98    97    1
   217    79    76    1
   218    88    87    2
   219    87    86    1
   220    87    93   am
   221    97    94    1
   222    76    75    1
   223    76    77    1
   224    86    85    1
   225    94    93    1
   226    94    95    1
   227    78    77    2
   228    96    95    2
