@<TRIPOS>MOLECULE
tmp/3g9lA00.pdb
 161 148 0 0 0
SMALL
GASTEIGER

@<TRIPOS>ATOM
      1  N         29.1410    6.7160   37.9550 N.3    24  PRO24      -0.2102
      2  CA        29.0510    7.7950   36.9770 C.3    24  PRO24       0.1504
      3  C         28.4920    7.3150   35.6420 C.2    24  PRO24       0.2576
      4  O         28.9210    6.2920   35.1230 O.2    24  PRO24      -0.2718
      5  CB        30.5090    8.2350   36.8140 C.3    24  PRO24       0.0282
      6  CG        31.1490    7.8910   38.1130 C.3    24  PRO24       0.0208
      7  CD        30.4800    6.6210   38.5630 C.3    24  PRO24       0.0893
      8  N         27.5210    8.0280   35.0910 N.am   25  ILE25      -0.1966
      9  CA        27.0180    7.6550   33.7730 C.3    25  ILE25       0.1727
     10  C         26.7740    8.8740   32.8860 C.2    25  ILE25       0.2616
     11  O         26.2190    8.7500   31.7800 O.2    25  ILE25      -0.2715
     12  CB        25.7520    6.7910   33.8530 C.3    25  ILE25       0.0290
     13  CG1       24.5550    7.6120   34.3420 C.3    25  ILE25       0.0022
     14  CG2       25.9850    5.5790   34.7140 C.3    25  ILE25       0.0023
     15  CD1       23.2300    6.8670   34.2800 C.3    25  ILE25       0.0001
     16  N         27.2020   10.0470   33.3560 N.am   26  GLY26      -0.1955
     17  CA        26.9500   11.3000   32.6360 C.3    26  GLY26       0.1869
     18  C         27.0290   12.5170   33.5500 C.2    26  GLY26       0.2309
     19  O         27.5150   13.5970   33.1520 O.2    26  GLY26      -0.2863
     20  N         25.4090   12.8850   36.3690 N.3    28  VAL28      -0.1245
     21  CA        24.4400   11.8530   36.6940 C.3    28  VAL28       0.1561
     22  C         25.1250   10.6070   37.2200 C.2    28  VAL28       0.2260
     23  O         26.2310   10.2900   36.7990 O.2    28  VAL28      -0.2867
     24  CB        23.6680   11.4480   35.4440 C.3    28  VAL28       0.0252
     25  CG1       22.3860   10.6970   35.8200 C.3    28  VAL28       0.0019
     26  CG2       23.3600   12.6540   34.6280 C.3    28  VAL28       0.0019
     27  N         24.2570    6.3350   38.1420 N.3    30  ALA30      -0.1245
     28  CA        23.3970    5.1860   38.4260 C.3    30  ALA30       0.1562
     29  C         23.5800    4.8480   39.9030 C.2    30  ALA30       0.2260
     30  O         24.6610    5.0770   40.4600 O.2    30  ALA30      -0.2867
     31  CB        23.7730    3.9940   37.5690 C.3    30  ALA30       0.0290
     32  N         18.6130    6.3520   38.1220 N.3    41  ALA41      -0.1245
     33  CA        19.5900    7.3580   37.7300 C.3    41  ALA41       0.1562
     34  C         19.3320    8.5960   38.5660 C.2    41  ALA41       0.2260
     35  O         18.1740    8.9630   38.8120 O.2    41  ALA41      -0.2867
     36  CB        19.4960    7.6790   36.2260 C.3    41  ALA41       0.0290
     37  N         20.4030   12.5900   38.9490 N.3    43  LYS43      -0.1245
     38  CA        21.0580   13.7760   38.4290 C.3    43  LYS43       0.1561
     39  C         21.2520   14.8590   39.4920 C.2    43  LYS43       0.2260
     40  O         20.3090   15.2340   40.1860 O.2    43  LYS43      -0.2867
     41  CB        20.2810   14.3600   37.2600 C.3    43  LYS43       0.0271
     42  CG        20.9970   15.5510   36.6180 C.3    43  LYS43       0.0035
     43  CD        20.2840   15.9520   35.3400 C.3    43  LYS43       0.0206
     44  CE        21.0720   16.9960   34.5610 C.3    43  LYS43       0.1093
     45  NZ        20.6180   17.0190   33.1440 N.3    43  LYS43      -0.1314
     46  N          8.7130   17.6060   34.4080 N.3    65  MET65      -0.1245
     47  CA         9.0020   16.1890   34.6790 C.3    65  MET65       0.1570
     48  C          7.9330   15.6620   35.6050 C.2    65  MET65       0.2261
     49  O          7.7270   14.4490   35.7000 O.2    65  MET65      -0.2867
     50  CB        10.3380   15.9960   35.3860 C.3    65  MET65       0.0387
     51  CG        11.5700   16.1060   34.5440 C.3    65  MET65       0.0595
     52  SD        12.9150   16.6340   35.6330 S.3    65  MET65      -0.1393
     53  CE        14.1940   17.1360   34.4560 C.3    65  MET65       0.0692
     54  N         10.8800   11.0380   30.2830 N.3    74  ILE74      -0.1245
     55  CA        11.3170   10.6500   31.6290 C.3    74  ILE74       0.1561
     56  C         10.3240   11.1220   32.6800 C.2    74  ILE74       0.2260
     57  O          9.7370   12.2120   32.5740 O.2    74  ILE74      -0.2867
     58  CB        12.7100   11.1880   32.0820 C.3    74  ILE74       0.0252
     59  CG1       12.5970   12.6410   32.5280 C.3    74  ILE74       0.0019
     60  CG2       13.8310   10.9290   31.0330 C.3    74  ILE74       0.0019
     61  CD1       13.4870   12.9610   33.7400 C.3    74  ILE74       0.0001
     62  N          9.9690   11.3990   37.0360 N.3    76  LEU76      -0.1245
     63  CA        10.7490   11.5070   38.2510 C.3    76  LEU76       0.1561
     64  C         10.2040   10.5250   39.2690 C.2    76  LEU76       0.2260
     65  O          9.0050   10.4390   39.4580 O.2    76  LEU76      -0.2867
     66  CB        10.6400   12.9320   38.7970 C.3    76  LEU76       0.0270
     67  CG        11.9470   13.6510   39.1480 C.3    76  LEU76       0.0019
     68  CD1       13.0800   13.1880   38.2330 C.3    76  LEU76       0.0001
     69  CD2       11.7250   15.1460   39.0140 C.3    76  LEU76       0.0001
     70  N         17.7420   14.9260   41.1520 N.3    94  LEU94      -0.1245
     71  CA        16.5800   14.3340   40.4880 C.3    94  LEU94       0.1561
     72  C         16.8470   12.8510   40.3340 C.2    94  LEU94       0.2260
     73  O         17.9480   12.4420   39.9420 O.2    94  LEU94      -0.2867
     74  CB        16.3030   14.9740   39.1140 C.3    94  LEU94       0.0270
     75  CG        16.2460   16.5050   38.9740 C.3    94  LEU94       0.0019
     76  CD1       16.0510   16.9190   37.5080 C.3    94  LEU94       0.0001
     77  CD2       15.1610   17.1410   39.8260 C.3    94  LEU94       0.0001
     78  N         15.3850    9.2470   38.6620 N.3    96  MET96      -0.1230
     79  CA        14.4730    8.6090   37.7080 C.3    96  MET96       0.1702
     80  C         14.9150    7.1690   37.5020 C.2    96  MET96       0.2592
     81  O         16.0130    6.7950   37.9070 O.2    96  MET96      -0.2718
     82  CB        14.4940    9.3560   36.3610 C.3    96  MET96       0.0401
     83  CG        15.7530    9.0400   35.5150 C.3    96  MET96       0.0596
     84  SD        15.8070    9.6780   33.7890 S.3    96  MET96      -0.1393
     85  CE        14.2780    9.0380   33.0450 C.3    96  MET96       0.0692
     86  N         14.0700    6.3790   36.8380 N.am   97  GLU97      -0.1966
     87  CA        14.3840    5.0020   36.4530 C.3    97  GLU97       0.1733
     88  C         15.6400    4.9790   35.6090 C.2    97  GLU97       0.2616
     89  O         15.9190    5.9240   34.8650 O.2    97  GLU97      -0.2715
     90  CB        13.2470    4.4230   35.6120 C.3    97  GLU97       0.0429
     91  CG        11.8800    4.5880   36.2300 C.3    97  GLU97       0.1163
     92  CD        11.5500    3.4930   37.2350 C.2    97  GLU97       0.3649
     93  OE1       12.4770    2.7520   37.6450 O.co2  97  GLU97      -0.2457
     94  OE2       10.3530    3.3690   37.6050 O.co2  97  GLU97      -0.2457
     95  N         16.3960    3.8990   35.7240 N.am   98  LEU98      -0.1963
     96  CA        17.6240    3.7550   34.9770 C.3    98  LEU98       0.1728
     97  C         17.3360    2.9050   33.7480 C.2    98  LEU98       0.2616
     98  O         16.6430    1.8980   33.8430 O.2    98  LEU98      -0.2715
     99  CB        18.6500    3.0440   35.8360 C.3    98  LEU98       0.0311
    100  CG        20.0140    2.8870   35.1860 C.3    98  LEU98       0.0022
    101  CD1       20.6860    4.2370   35.0750 C.3    98  LEU98       0.0001
    102  CD2       20.8260    1.9290   36.0240 C.3    98  LEU98       0.0001
    103  N         17.8380    3.3300   32.5940 N.am   99  MET99      -0.1963
    104  CA        17.7850    2.5120   31.3750 C.3    99  MET99       0.1736
    105  C         19.1940    2.0230   31.1190 C.2    99  MET99       0.2616
    106  O         20.0180    1.9860   32.0380 O.2    99  MET99      -0.2715
    107  CB        17.2950    3.3280   30.1860 C.3    99  MET99       0.0427
    108  CG        16.2630    4.3360   30.5620 C.3    99  MET99       0.0599
    109  SD        14.6240    3.6150   30.4150 S.3    99  MET99      -0.1393
    110  CE        14.3240    3.9720   28.6870 C.3    99  MET99       0.0692
    111  N         19.5120    1.6670   29.8850 N.am  100  ASP100     -0.1957
    112  CA        20.8080    1.0190   29.6860 C.3   100  ASP100      0.1840
    113  C         21.8280    1.7690   28.8440 C.2   100  ASP100      0.2622
    114  O         23.0030    1.4340   28.8900 O.2   100  ASP100     -0.2715
    115  CB        20.6070   -0.3980   29.1590 C.3   100  ASP100      0.1450
    116  CG        19.8110   -1.2470   30.1210 C.2   100  ASP100      0.3671
    117  OD1       20.2820   -1.4220   31.2740 O.co2 100  ASP100     -0.2456
    118  OD2       18.7210   -1.7240   29.7540 O.co2 100  ASP100     -0.2456
    119  N         21.4100    2.7740   28.0820 N.am  101  ALA101     -0.1963
    120  CA        22.3510    3.4140   27.1510 C.3   101  ALA101      0.1728
    121  C         21.7870    4.6890   26.5530 C.2   101  ALA101      0.2616
    122  O         20.5750    4.8870   26.5520 O.2   101  ALA101     -0.2715
    123  CB        22.7490    2.4040   26.0220 C.3   101  ALA101      0.0334
    124  N         22.6580    5.5620   26.0600 N.am  102  ASN102     -0.1972
    125  CA        22.2120    6.7560   25.3160 C.3   102  ASN102      0.1688
    126  C         21.8160    6.3770   23.8860 C.2   102  ASN102      0.2292
    127  O         22.0630    5.2620   23.4630 O.2   102  ASN102     -0.2864
    128  CB        23.3180    7.8160   25.2430 C.3   102  ASN102      0.1181
    129  CG        24.0790    7.9530   26.5390 C.2   102  ASN102      0.2629
    130  OD1       23.4810    8.0320   27.6260 O.2   102  ASN102     -0.2716
    131  ND2       25.4090    7.9870   26.4440 N.am  102  ASN102     -0.0877
    132  N         24.9460    5.6240   21.5470 N.3   105  GLN105     -0.1245
    133  CA        25.5690    4.3090   21.5140 C.3   105  GLN105      0.1566
    134  C         24.7870    3.3740   20.6060 C.2   105  GLN105      0.2260
    135  O         25.3740    2.5650   19.8920 O.2   105  GLN105     -0.2867
    136  CB        25.7150    3.7400   22.9260 C.3   105  GLN105      0.0367
    137  CG        26.6640    4.5750   23.8140 C.3   105  GLN105      0.0905
    138  CD        26.5470    4.2380   25.3010 C.2   105  GLN105      0.2608
    139  OE1       25.5510    4.5720   25.9580 O.2   105  GLN105     -0.2717
    140  NE2       27.5760    3.5760   25.8410 N.am  105  GLN105     -0.0878
    141  N         21.6840   12.7700   22.7230 N.3   143  SER143     -0.1217
    142  CA        22.3390   12.6630   24.0260 C.3   143  SER143      0.1889
    143  C         21.3130   12.7950   25.1440 C.2   143  SER143      0.2288
    144  O         21.5300   12.3530   26.2700 O.2   143  SER143     -0.2866
    145  CB        23.4370   13.6990   24.1560 C.3   143  SER143      0.2089
    146  OG        22.8690   14.9760   23.9950 O.3   143  SER143     -0.2183
    147  N         17.4280    8.1050   25.8620 N.3   146  VAL146     -0.1245
    148  CA        17.9760    6.8890   26.4380 C.3   146  VAL146      0.1561
    149  C         17.1850    5.6340   26.1050 C.2   146  VAL146      0.2260
    150  O         15.9700    5.6910   25.8450 O.2   146  VAL146     -0.2867
    151  CB        18.2280    7.0090   27.9900 C.3   146  VAL146      0.0252
    152  CG1       19.3200    8.0270   28.2520 C.3   146  VAL146      0.0019
    153  CG2       16.9280    7.3720   28.7590 C.3   146  VAL146      0.0019
    154  N         14.6710   12.6190   27.7520 N.3   156  LEU156     -0.1245
    155  CA        15.1210   13.1220   29.0720 C.3   156  LEU156      0.1561
    156  C         14.8590   14.5950   29.3780 C.2   156  LEU156      0.2260
    157  O         14.9230   15.0040   30.5410 O.2   156  LEU156     -0.2867
    158  CB        16.6320   12.9460   29.2060 C.3   156  LEU156      0.0270
    159  CG        17.2070   11.5380   29.1930 C.3   156  LEU156      0.0019
    160  CD1       18.7250   11.6320   29.2200 C.3   156  LEU156      0.0001
    161  CD2       16.6800   10.7330   30.3790 C.3   156  LEU156      0.0001
@<TRIPOS>BOND
     1   135   134    2
     2   134   133    1
     3   133   132    1
     4   133   136    1
     5   141   142    1
     6   136   137    1
     7   127   126    2
     8   137   138    1
     9   126   125    1
    10   146   145    1
    11   142   145    1
    12   142   143    1
    13   143   144    2
    14   128   125    1
    15   128   129    1
    16   138   140   am
    17   138   139    2
    18   125   124    1
    19   150   149    2
    20   147   148    1
    21   123   120    1
    22   124   121   am
    23   149   148    1
    24   148   151    1
    25   131   129   am
    26   129   130    2
    27   122   121    2
    28   121   120    1
    29   120   119    1
    30   154   155    1
    31   151   152    1
    32   151   153    1
    33   119   113   am
    34   110   109    1
    35   113   114    2
    36   113   112    1
    37   155   158    1
    38   155   156    1
    39   115   112    1
    40   115   116    1
    41   159   158    1
    42   159   160    1
    43   159   161    1
    44   156   157    2
    45   112   111    1
    46   118   116   ar
    47   111   105   am
    48   116   117   ar
    49   107   108    1
    50   107   104    1
    51    54    55    1
    52   109   108    1
    53    60    58    1
    54   105   104    1
    55   105   106    2
    56   104   103    1
    57    55    58    1
    58    55    56    1
    59    11    10    2
    60    58    59    1
    61    59    61    1
    62    57    56    2
    63   103    97   am
    64    17    16    1
    65    17    18    1
    66    10    16   am
    67    10     9    1
    68    85    84    1
    69    45    44    1
    70    19    18    2
    71    97    98    2
    72    97    96    1
    73     9    12    1
    74     9     8    1
    75    84    83    1
    76    12    13    1
    77    12    14    1
    78    15    13    1
    79    46    47    1
    80    53    52    1
    81    51    50    1
    82    51    52    1
    83    44    43    1
    84    26    24    1
    85    47    50    1
    86    47    48    1
    87    89    88    2
    88    96    95    1
    89    96    99    1
    90   101   100    1
    91     8     3   am
    92     4     3    2
    93   100    99    1
    94   100   102    1
    95    43    42    1
    96    24    25    1
    97    24    21    1
    98    83    82    1
    99    48    49    2
   100    88    95   am
   101    88    87    1
   102    90    91    1
   103    90    87    1
   104     3     2    1
   105    36    33    1
   106    91    92    1
   107    82    79    1
   108    20    21    1
   109    87    86    1
   110    42    41    1
   111    21    22    1
   112    23    22    2
   113     5     2    1
   114     5     6    1
   115    86    80   am
   116     2     1    1
   117    62    63    1
   118    92    94   ar
   119    92    93   ar
   120    41    38    1
   121    80    79    1
   122    80    81    2
   123    76    75    1
   124    31    28    1
   125    79    78    1
   126    33    32    1
   127    33    34    1
   128     1     7    1
   129     6     7    1
   130    27    28    1
   131    68    67    1
   132    63    66    1
   133    63    64    1
   134    28    29    1
   135    38    37    1
   136    38    39    1
   137    34    35    2
   138    66    67    1
   139    75    74    1
   140    75    77    1
   141    69    67    1
   142    74    71    1
   143    64    65    2
   144    39    40    2
   145    29    30    2
   146    73    72    2
   147    72    71    1
   148    71    70    1
