@<TRIPOS>MOLECULE
tmp/3g9nA00.pdb
 158 145 0 0 0
SMALL
GASTEIGER

@<TRIPOS>ATOM
      1  N         29.5670   29.1950   15.4070 N.3    25  PRO25      -0.2102
      2  CA        29.4860   28.0960   16.3760 C.3    25  PRO25       0.1504
      3  C         29.0450   28.5750   17.7690 C.2    25  PRO25       0.2576
      4  O         29.6010   29.5260   18.3160 O.2    25  PRO25      -0.2718
      5  CB        30.9130   27.5320   16.3940 C.3    25  PRO25       0.0282
      6  CG        31.7730   28.6810   16.0210 C.3    25  PRO25       0.0208
      7  CD        30.9650   29.5560   15.0960 C.3    25  PRO25       0.0893
      8  N         28.0300   27.9230   18.3170 N.am   26  ILE26      -0.1966
      9  CA        27.4790   28.2770   19.6210 C.3    26  ILE26       0.1727
     10  C         27.2050   26.9920   20.4020 C.2    26  ILE26       0.2616
     11  O         26.5770   27.0100   21.4660 O.2    26  ILE26      -0.2715
     12  CB        26.1720   29.1130   19.4880 C.3    26  ILE26       0.0290
     13  CG1       25.0510   28.2810   18.8610 C.3    26  ILE26       0.0022
     14  CG2       26.4200   30.3840   18.6870 C.3    26  ILE26       0.0023
     15  CD1       23.6650   28.7030   19.2640 C.3    26  ILE26       0.0001
     16  N         27.6820   25.8760   19.8570 N.am   27  GLY27      -0.1955
     17  CA        27.4290   24.5680   20.4380 C.3    27  GLY27       0.1869
     18  C         28.2270   23.4440   19.8000 C.2    27  GLY27       0.2309
     19  O         28.3300   23.3450   18.5700 O.2    27  GLY27      -0.2863
     20  N         29.3150   20.7640   22.6210 N.3    29  GLY29      -0.1225
     21  CA        28.7500   20.1000   23.7860 C.3    29  GLY29       0.1811
     22  C         27.2780   20.4570   23.8760 C.2    29  GLY29       0.2280
     23  O         26.7240   21.0880   22.9580 O.2    29  GLY29      -0.2866
     24  N         24.0270   20.7020   22.9960 N.3    30  GLN30      -0.1245
     25  CA        23.0880   20.1820   22.0090 C.3    30  GLN30       0.1566
     26  C         23.8070   19.3340   20.9750 C.2    30  GLN30       0.2260
     27  O         23.2750   18.3360   20.5000 O.2    30  GLN30      -0.2867
     28  CB        22.3340   21.3230   21.3290 C.3    30  GLN30       0.0367
     29  CG        21.0090   21.6730   21.9760 C.3    30  GLN30       0.0905
     30  CD        19.8710   20.8090   21.4720 C.2    30  GLN30       0.2608
     31  OE1       18.7110   21.2130   21.5000 O.2    30  GLN30      -0.2717
     32  NE2       20.2010   19.6150   20.9960 N.am   30  GLN30      -0.0878
     33  N         25.5690   22.7830   17.2670 N.3    33  VAL33      -0.1245
     34  CA        24.5600   23.8090   17.0600 C.3    33  VAL33       0.1561
     35  C         25.2120   24.9600   16.3080 C.2    33  VAL33       0.2260
     36  O         26.4290   25.0390   16.2360 O.2    33  VAL33      -0.2867
     37  CB        23.9930   24.3160   18.3730 C.3    33  VAL33       0.0252
     38  CG1       22.6860   25.0330   18.1260 C.3    33  VAL33       0.0019
     39  CG2       23.7860   23.1660   19.3180 C.3    33  VAL33       0.0019
     40  N         24.4640   29.2780   15.0090 N.3    35  ALA35      -0.1245
     41  CA        23.6770   30.4890   14.8880 C.3    35  ALA35       0.1562
     42  C         23.7790   30.9840   13.4640 C.2    35  ALA35       0.2260
     43  O         24.8450   30.8950   12.8490 O.2    35  ALA35      -0.2867
     44  CB        24.1770   31.5400   15.8560 C.3    35  ALA35       0.0290
     45  N         18.7680   29.4200   15.0320 N.3    46  ALA46      -0.1245
     46  CA        19.6630   28.3820   15.4650 C.3    46  ALA46       0.1562
     47  C         19.3980   27.1310   14.6690 C.2    46  ALA46       0.2260
     48  O         18.2630   26.6860   14.5530 O.2    46  ALA46      -0.2867
     49  CB        19.4640   28.1110   16.9010 C.3    46  ALA46       0.0290
     50  N         20.7550   23.0140   14.0830 N.3    48  LYS48      -0.1245
     51  CA        21.4510   21.9130   14.7370 C.3    48  LYS48       0.1561
     52  C         21.6320   20.7630   13.7670 C.2    48  LYS48       0.2260
     53  O         20.6480   20.2470   13.2380 O.2    48  LYS48      -0.2867
     54  CB        20.6650   21.4160   15.9470 C.3    48  LYS48       0.0271
     55  CG        21.5210   20.6450   16.9440 C.3    48  LYS48       0.0035
     56  CD        21.0370   19.2310   17.1400 C.3    48  LYS48       0.0206
     57  CE        19.7990   19.1400   18.0010 C.3    48  LYS48       0.1093
     58  NZ        19.8130   17.8300   18.7340 N.3    48  LYS48      -0.1314
     59  N         11.0320   25.6350   23.3020 N.3    79  ILE79      -0.1245
     60  CA        11.6760   26.0650   22.0580 C.3    79  ILE79       0.1561
     61  C         10.8310   25.7460   20.8080 C.2    79  ILE79       0.2260
     62  O         10.2660   24.6450   20.6890 O.2    79  ILE79      -0.2867
     63  CB        13.1590   25.5140   21.9320 C.3    79  ILE79       0.0252
     64  CG1       13.9720   26.3120   20.9050 C.3    79  ILE79       0.0019
     65  CG2       13.1960   24.0010   21.6480 C.3    79  ILE79       0.0019
     66  CD1       14.3600   27.6990   21.3640 C.3    79  ILE79       0.0001
     67  N         17.8300   20.7330   12.1700 N.3    99  LEU99      -0.1245
     68  CA        16.7030   21.3710   12.8320 C.3    99  LEU99       0.1561
     69  C         16.9620   22.8730   12.9620 C.2    99  LEU99       0.2260
     70  O         17.9810   23.2940   13.5330 O.2    99  LEU99      -0.2867
     71  CB        16.4490   20.7710   14.2240 C.3    99  LEU99       0.0270
     72  CG        16.3720   19.2780   14.5870 C.3    99  LEU99       0.0019
     73  CD1       16.0970   19.1780   16.0630 C.3    99  LEU99       0.0001
     74  CD2       15.3060   18.4930   13.8450 C.3    99  LEU99       0.0001
     75  N         15.5220   26.1210   14.7170 N.3   101  MET101     -0.1230
     76  CA        14.6500   26.7810   15.6910 C.3   101  MET101      0.1702
     77  C         15.0080   28.2550   15.8440 C.2   101  MET101      0.2592
     78  O         16.0590   28.7040   15.3580 O.2   101  MET101     -0.2718
     79  CB        14.7610   26.1160   17.0540 C.3   101  MET101      0.0401
     80  CG        14.3010   24.6890   17.1040 C.3   101  MET101      0.0596
     81  SD        15.7490   23.8230   17.6760 S.3   101  MET101     -0.1393
     82  CE        15.0800   22.4040   18.5420 C.3   101  MET101      0.0692
     83  N         14.1300   28.9980   16.5250 N.am  102  GLU102     -0.1966
     84  CA        14.3770   30.4200   16.7980 C.3   102  GLU102      0.1733
     85  C         15.4760   30.5620   17.8310 C.2   102  GLU102      0.2616
     86  O         15.7520   29.6210   18.5740 O.2   102  GLU102     -0.2715
     87  CB        13.1070   31.1700   17.2450 C.3   102  GLU102      0.0429
     88  CG        12.9110   31.2880   18.7520 C.3   102  GLU102      0.1163
     89  CD        11.7440   30.4570   19.2550 C.2   102  GLU102      0.3649
     90  OE1       10.9750   30.9790   20.0950 O.co2 102  GLU102     -0.2457
     91  OE2       11.5880   29.2960   18.8060 O.co2 102  GLU102     -0.2457
     92  N         16.0800   31.7450   17.8760 N.am  103  LEU103     -0.1963
     93  CA        17.2590   31.9680   18.6790 C.3   103  LEU103      0.1728
     94  C         17.0140   32.8320   19.9040 C.2   103  LEU103      0.2616
     95  O         16.3630   33.8780   19.8260 O.2   103  LEU103     -0.2715
     96  CB        18.3620   32.5860   17.8260 C.3   103  LEU103      0.0311
     97  CG        19.7590   32.7330   18.4170 C.3   103  LEU103      0.0022
     98  CD1       20.2310   31.4170   18.9790 C.3   103  LEU103      0.0001
     99  CD2       20.7080   33.2340   17.3590 C.3   103  LEU103      0.0001
    100  N         17.5550   32.3680   21.0320 N.am  104  MET104     -0.1963
    101  CA        17.6720   33.1610   22.2450 C.3   104  MET104      0.1736
    102  C         19.0970   33.6820   22.3500 C.2   104  MET104      0.2616
    103  O         19.8940   33.5360   21.4180 O.2   104  MET104     -0.2715
    104  CB        17.3450   32.3090   23.4570 C.3   104  MET104      0.0427
    105  CG        16.0880   31.4600   23.2890 C.3   104  MET104      0.0599
    106  SD        14.6520   32.4710   22.9120 S.3   104  MET104     -0.1393
    107  CE        14.2500   33.1420   24.5200 C.3   104  MET104      0.0692
    108  N         19.4340   34.2630   23.4920 N.am  105  ASP105     -0.1957
    109  CA        20.6970   34.9680   23.6080 C.3   105  ASP105      0.1840
    110  C         21.7770   34.2400   24.4030 C.2   105  ASP105      0.2622
    111  O         22.9450   34.5950   24.2610 O.2   105  ASP105     -0.2715
    112  CB        20.4720   36.3630   24.1980 C.3   105  ASP105      0.1450
    113  CG        19.6310   37.2610   23.3000 C.2   105  ASP105      0.3671
    114  OD1       19.5850   37.0340   22.0710 O.co2 105  ASP105     -0.2456
    115  OD2       19.0190   38.2140   23.8240 O.co2 105  ASP105     -0.2456
    116  N         21.4070   33.2450   25.2240 N.am  106  ALA106     -0.1963
    117  CA        22.3410   32.6470   26.1970 C.3   106  ALA106      0.1728
    118  C         21.8610   31.3810   26.9080 C.2   106  ALA106      0.2616
    119  O         20.6610   31.0960   26.9550 O.2   106  ALA106     -0.2715
    120  CB        22.7300   33.6810   27.2350 C.3   106  ALA106      0.0334
    121  N         22.8200   30.6380   27.4720 N.am  107  ASN107     -0.1972
    122  CA        22.5680   29.4230   28.2530 C.3   107  ASN107      0.1688
    123  C         22.0700   29.7960   29.6180 C.2   107  ASN107      0.2292
    124  O         22.3440   30.8920   30.1010 O.2   107  ASN107     -0.2864
    125  CB        23.8660   28.6520   28.4810 C.3   107  ASN107      0.1181
    126  CG        24.3710   27.9740   27.2390 C.2   107  ASN107      0.2629
    127  OD1       23.7120   27.0890   26.6810 O.2   107  ASN107     -0.2716
    128  ND2       25.5630   28.3610   26.8050 N.am  107  ASN107     -0.0877
    129  N         25.2380   30.4290   31.8740 N.3   110  GLN110     -0.1245
    130  CA        25.7880   31.7860   31.9560 C.3   110  GLN110      0.1566
    131  C         25.0200   32.6280   32.9710 C.2   110  GLN110      0.2260
    132  O         25.6230   33.3430   33.7630 O.2   110  GLN110     -0.2867
    133  CB        25.7520   32.4870   30.5880 C.3   110  GLN110      0.0367
    134  CG        26.3440   31.6810   29.4190 C.3   110  GLN110      0.0905
    135  CD        25.9220   32.1980   28.0230 C.2   110  GLN110      0.2608
    136  OE1       25.8650   33.4040   27.7720 O.2   110  GLN110     -0.2717
    137  NE2       25.6510   31.2720   27.1110 N.am  110  GLN110     -0.0878
    138  N         22.3670   23.6030   30.8550 N.3   148  SER148     -0.1217
    139  CA        22.7630   23.4490   29.4640 C.3   148  SER148      0.1889
    140  C         21.5590   23.3310   28.5050 C.2   148  SER148      0.2288
    141  O         21.7010   23.5110   27.2930 O.2   148  SER148     -0.2866
    142  CB        23.6620   22.2340   29.3120 C.3   148  SER148      0.2089
    143  OG        22.9050   21.0510   29.4520 O.3   148  SER148     -0.2183
    144  N         17.3870   27.8710   27.7210 N.3   151  VAL151     -0.1245
    145  CA        17.9570   29.0580   27.1020 C.3   151  VAL151      0.1561
    146  C         17.1670   30.2880   27.4880 C.2   151  VAL151      0.2260
    147  O         15.9640   30.2080   27.7600 O.2   151  VAL151     -0.2867
    148  CB        18.0540   28.9450   25.5550 C.3   151  VAL151      0.0252
    149  CG1       19.1810   28.0130   25.1750 C.3   151  VAL151      0.0019
    150  CG2       16.7400   28.4940   24.9370 C.3   151  VAL151      0.0019
    151  N         14.8850   23.4980   25.5070 N.3   161  LEU161     -0.1245
    152  CA        15.3070   22.8990   24.2390 C.3   161  LEU161      0.1561
    153  C         14.9120   21.4310   24.0170 C.2   161  LEU161      0.2260
    154  O         14.7170   21.0300   22.8820 O.2   161  LEU161     -0.2867
    155  CB        16.8230   23.0460   24.0490 C.3   161  LEU161      0.0270
    156  CG        17.4330   24.4430   23.9710 C.3   161  LEU161      0.0019
    157  CD1       18.9520   24.3640   24.1420 C.3   161  LEU161      0.0001
    158  CD2       17.0640   25.1660   22.6740 C.3   161  LEU161      0.0001
@<TRIPOS>BOND
     1    67    68    1
     2    68    69    1
     3    68    71    1
     4    43    42    2
     5    69    70    2
     6    53    52    2
     7    42    41    1
     8    52    51    1
     9    74    72    1
    10    50    51    1
    11    71    72    1
    12    48    47    2
    13    72    73    1
    14    47    46    1
    15    75    76    1
    16    51    54    1
    17    41    40    1
    18    41    44    1
    19    45    46    1
    20     7     1    1
    21     7     6    1
    22    78    77    2
    23     1     2    1
    24    46    49    1
    25    76    77    1
    26    76    79    1
    27    77    83   am
    28    54    55    1
    29     6     5    1
    30    36    35    2
    31    35    34    1
    32     2     5    1
    33     2     3    1
    34    83    84    1
    35    84    87    1
    36    84    85    1
    37    55    56    1
    38    79    80    1
    39    34    33    1
    40    34    37    1
    41    80    81    1
    42    56    57    1
    43    87    88    1
    44    99    97    1
    45    81    82    1
    46     3     4    2
    47     3     8   am
    48    96    97    1
    49    96    93    1
    50    85    92   am
    51    85    86    2
    52    92    93    1
    53    57    58    1
    54    38    37    1
    55     8     9    1
    56    37    39    1
    57    97    98    1
    58    19    18    2
    59    93    94    1
    60    14    12    1
    61    88    89    1
    62    91    89   ar
    63    13    15    1
    64    13    12    1
    65    89    90   ar
    66    12     9    1
    67     9    10    1
    68    18    17    1
    69    95    94    2
    70    16    10   am
    71    16    17    1
    72    94   100   am
    73    10    11    2
    74    27    26    2
    75    62    61    2
    76    61    60    1
    77    64    66    1
    78    64    63    1
    79    26    25    1
    80    32    30   am
    81   100   101    1
    82    28    29    1
    83    28    25    1
    84   103   102    2
    85    30    31    2
    86    30    29    1
    87    65    63    1
    88    63    60    1
    89    25    24    1
    90    60    59    1
    91   114   113   ar
    92   101   102    1
    93   101   104    1
    94   102   108   am
    95    20    21    1
    96   158   156    1
    97   154   153    2
    98   106   105    1
    99   106   107    1
   100    23    22    2
   101   105   104    1
   102   113   115   ar
   103   113   112    1
   104   108   109    1
   105   109   112    1
   106   109   110    1
   107    21    22    1
   108   156   155    1
   109   156   157    1
   110   153   152    1
   111   155   152    1
   112   152   151    1
   113   111   110    2
   114   110   116   am
   115   150   148    1
   116   149   148    1
   117   116   117    1
   118   148   145    1
   119   117   118    1
   120   117   120    1
   121   127   126    2
   122   128   126   am
   123   118   119    2
   124   118   121   am
   125   145   146    1
   126   145   144    1
   127   137   135   am
   128   126   125    1
   129   141   140    2
   130   121   122    1
   131   146   147    2
   132   136   135    2
   133   135   134    1
   134   122   125    1
   135   122   123    1
   136   140   139    1
   137   142   143    1
   138   142   139    1
   139   134   133    1
   140   139   138    1
   141   123   124    2
   142   133   130    1
   143   129   130    1
   144   130   131    1
   145   131   132    2
