@<TRIPOS>MOLECULE
tmp/3g9wB00.pdb
 100 97 0 0 0
SMALL
GASTEIGER

@<TRIPOS>ATOM
      1  N         39.1110    5.3830   21.5750 N.3   116  GLU116     -0.1231
      2  CA        40.3190    4.5790   21.4020 C.3   116  GLU116      0.1699
      3  C         41.5260    5.3560   21.9250 C.2   116  GLU116      0.2592
      4  O         41.4230    6.5410   22.2290 O.2   116  GLU116     -0.2718
      5  CB        40.5300    4.2290   19.9220 C.3   116  GLU116      0.0402
      6  CG        40.8410    5.4400   19.0560 C.3   116  GLU116      0.1161
      7  CD        40.8880    5.1410   17.5570 C.2   116  GLU116      0.3649
      8  OE1       40.3610    4.0950   17.1120 O.co2 116  GLU116     -0.2457
      9  OE2       41.4480    5.9800   16.8260 O.co2 116  GLU116     -0.2457
     10  N         42.6690    4.6880   22.0250 N.am  117  LYS117     -0.1980
     11  CA        43.9000    5.3600   22.4180 C.3   117  LYS117      0.1596
     12  C         44.3350    6.4070   21.3840 C.2   117  LYS117      0.2287
     13  O         44.3510    6.1420   20.1830 O.2   117  LYS117     -0.2864
     14  CB        45.0180    4.3450   22.6280 C.3   117  LYS117      0.0298
     15  CG        46.3030    4.9530   23.1790 C.3   117  LYS117      0.0038
     16  CD        47.4260    3.9240   23.2420 C.3   117  LYS117      0.0206
     17  CE        48.6830    4.5180   23.8860 C.3   117  LYS117      0.1093
     18  NZ        49.1420    5.7320   23.1430 N.3   117  LYS117     -0.1314
     19  N         46.9790    8.4240   19.3250 N.3   119  LYS119     -0.1245
     20  CA        48.3180    8.1110   18.8380 C.3   119  LYS119      0.1561
     21  C         49.3730    8.8400   19.6680 C.2   119  LYS119      0.2260
     22  O         49.3510   10.0680   19.7630 O.2   119  LYS119     -0.2867
     23  CB        48.4430    8.5100   17.3670 C.3   119  LYS119      0.0271
     24  CG        49.8150    8.2810   16.7590 C.3   119  LYS119      0.0035
     25  CD        49.9870    6.8440   16.2800 C.3   119  LYS119      0.0206
     26  CE        51.1820    6.7190   15.3330 C.3   119  LYS119      0.1093
     27  NZ        51.4530    5.3090   14.9250 N.3   119  LYS119     -0.1314
     28  N         37.0990    1.4920   10.7980 N.3   138  ARG138     -0.1245
     29  CA        37.4100    2.5740   11.7200 C.3   138  ARG138      0.1563
     30  C         37.2190    3.8850   10.9590 C.2   138  ARG138      0.2260
     31  O         37.8050    4.0820    9.8950 O.2   138  ARG138     -0.2867
     32  CB        38.8620    2.4300   12.2100 C.3   138  ARG138      0.0307
     33  CG        39.1920    3.1510   13.5050 C.3   138  ARG138      0.0489
     34  CD        40.5660    2.7360   14.0720 C.3   138  ARG138      0.2205
     35  NE        41.6510    3.1870   13.2160 N.pl3 138  ARG138     -0.0865
     36  CZ        42.3480    4.3030   13.4010 C.cat 138  ARG138      0.5346
     37  NH1       42.0970    5.0950   14.4330 N.pl3 138  ARG138      0.1354
     38  NH2       43.3090    4.6190   12.5450 N.pl3 138  ARG138      0.1354
     39  N         40.4230    2.7300    8.3740 N.3   148  GLN148     -0.1245
     40  CA        40.8090    1.3420    8.1740 C.3   148  GLN148      0.1566
     41  C         39.5840    0.4940    7.9110 C.2   148  GLN148      0.2260
     42  O         38.4840    0.8310    8.3440 O.2   148  GLN148     -0.2867
     43  CB        41.5260    0.7880    9.4050 C.3   148  GLN148      0.0367
     44  CG        42.9560    1.2460    9.5930 C.3   148  GLN148      0.0905
     45  CD        43.5350    0.7190   10.8910 C.2   148  GLN148      0.2608
     46  OE1       43.1190    1.1320   11.9740 O.2   148  GLN148     -0.2717
     47  NE2       44.4830   -0.2110   10.7920 N.am  148  GLN148     -0.0878
     48  N         38.6680   -3.8080    7.8050 N.3   150  TRP150     -0.1241
     49  CA        39.0710   -5.2040    7.9330 C.3   150  TRP150      0.1605
     50  C         37.9540   -6.1210    7.4580 C.2   150  TRP150      0.2264
     51  O         36.8380   -6.0380    7.9590 O.2   150  TRP150     -0.2867
     52  CB        39.3540   -5.5500    9.3980 C.3   150  TRP150      0.0550
     53  CG        40.4540   -4.7750   10.0500 C.ar  150  TRP150      0.0003
     54  CD1       41.7920   -5.0100    9.9430 C.ar  150  TRP150      0.0946
     55  CD2       40.3130   -3.6590   10.9390 C.ar  150  TRP150      0.0152
     56  NE1       42.4950   -4.1020   10.6980 N.ar  150  TRP150     -0.2442
     57  CE2       41.6100   -3.2620   11.3220 C.ar  150  TRP150      0.0810
     58  CE3       39.2140   -2.9540   11.4490 C.ar  150  TRP150      0.0012
     59  CZ2       41.8420   -2.1950   12.1860 C.ar  150  TRP150      0.0191
     60  CZ3       39.4440   -1.8940   12.3040 C.ar  150  TRP150      0.0001
     61  CH2       40.7500   -1.5240   12.6640 C.ar  150  TRP150      0.0015
     62  N         47.5740   -8.9540   11.6820 N.3   173  GLN173     -0.1245
     63  CA        48.3180   -7.8410   12.2620 C.3   173  GLN173      0.1566
     64  C         48.8390   -8.1760   13.6670 C.2   173  GLN173      0.2260
     65  O         48.3830   -9.1290   14.3000 O.2   173  GLN173     -0.2867
     66  CB        47.5110   -6.5310   12.2310 C.3   173  GLN173      0.0367
     67  CG        46.4690   -6.3540   13.3220 C.3   173  GLN173      0.0905
     68  CD        45.7850   -4.9820   13.2660 C.2   173  GLN173      0.2608
     69  OE1       45.4840   -4.4660   12.1860 O.2   173  GLN173     -0.2717
     70  NE2       45.5420   -4.3920   14.4350 N.am  173  GLN173     -0.0878
     71  N         48.9110   -6.5300   16.7590 N.3   175  SER175     -0.1202
     72  CA        48.1960   -6.2540   18.0040 C.3   175  SER175      0.2020
     73  C         46.6740   -6.3300   17.8800 C.2   175  SER175      0.2619
     74  O         46.1400   -6.3900   16.7810 O.2   175  SER175     -0.2717
     75  CB        48.6070   -4.8800   18.5360 C.3   175  SER175      0.2103
     76  OG        48.7980   -3.9750   17.4630 O.3   175  SER175     -0.2182
     77  N         45.9900   -6.3350   19.0220 N.am  176  TYR176     -0.1961
     78  CA        44.5320   -6.2790   19.0570 C.3   176  TYR176      0.1771
     79  C         44.0590   -4.8460   18.8110 C.2   176  TYR176      0.2619
     80  O         44.8270   -3.8960   18.9460 O.2   176  TYR176     -0.2715
     81  CB        43.9940   -6.7310   20.4200 C.3   176  TYR176      0.0574
     82  CG        44.2640   -8.1740   20.8230 C.ar  176  TYR176     -0.0198
     83  CD1       44.5650   -9.1480   19.8790 C.ar  176  TYR176     -0.0009
     84  CD2       44.1820   -8.5640   22.1610 C.ar  176  TYR176     -0.0009
     85  CE1       44.7990  -10.4640   20.2530 C.ar  176  TYR176      0.0417
     86  CE2       44.4060   -9.8770   22.5450 C.ar  176  TYR176      0.0417
     87  CZ        44.7150  -10.8210   21.5880 C.ar  176  TYR176      0.1957
     88  OH        44.9430  -12.1250   21.9630 O.3   176  TYR176     -0.2866
     89  N         42.7930   -4.6910   18.4470 N.am  177  TYR177     -0.1974
     90  CA        42.1700   -3.3710   18.4380 C.3   177  TYR177      0.1639
     91  C         41.1390   -3.3230   19.5610 C.2   177  TYR177      0.2290
     92  O         40.1510   -4.0530   19.5320 O.2   177  TYR177     -0.2864
     93  CB        41.5220   -3.0770   17.0790 C.3   177  TYR177      0.0560
     94  CG        40.8740   -1.7080   16.9700 C.ar  177  TYR177     -0.0198
     95  CD1       41.5530   -0.5570   17.3570 C.ar  177  TYR177     -0.0009
     96  CD2       39.5840   -1.5670   16.4610 C.ar  177  TYR177     -0.0009
     97  CE1       40.9590    0.6960   17.2540 C.ar  177  TYR177      0.0417
     98  CE2       38.9840   -0.3170   16.3480 C.ar  177  TYR177      0.0417
     99  CZ        39.6740    0.8070   16.7460 C.ar  177  TYR177      0.1957
    100  OH        39.0760    2.0460   16.6390 O.3   177  TYR177     -0.2866
@<TRIPOS>BOND
     1    50    49    1
     2    50    51    2
     3    48    49    1
     4    41    40    1
     5    41    42    2
     6    49    52    1
     7    40    39    1
     8    40    43    1
     9    52    53    1
    10    43    44    1
    11    44    45    1
    12    31    30    2
    13    54    53   ar
    14    54    56   ar
    15    53    55   ar
    16    56    57   ar
    17    47    45   am
    18    28    29    1
    19    45    46    2
    20    55    57   ar
    21    55    58   ar
    22    30    29    1
    23    57    59   ar
    24    58    60   ar
    25    62    63    1
    26    29    32    1
    27    69    68    2
    28    59    61   ar
    29    32    33    1
    30    66    63    1
    31    66    67    1
    32    63    64    1
    33    60    61   ar
    34    38    36    1
    35    35    36    2
    36    35    34    1
    37    68    67    1
    38    68    70   am
    39    36    37    1
    40    33    34    1
    41    64    65    2
    42    27    26    1
    43    26    25    1
    44    25    24    1
    45    98    96   ar
    46    98    99   ar
    47    96    94   ar
    48   100    99    1
    49    99    97   ar
    50    24    23    1
    51    71    72    1
    52    74    73    2
    53     9     7   ar
    54    94    93    1
    55    94    95   ar
    56    93    90    1
    57     8     7   ar
    58    97    95   ar
    59    23    20    1
    60    76    75    1
    61     7     6    1
    62    73    72    1
    63    73    77   am
    64    72    75    1
    65    90    89    1
    66    90    91    1
    67    89    79   am
    68    79    80    2
    69    79    78    1
    70    20    19    1
    71    20    21    1
    72    77    78    1
    73     6     5    1
    74    78    81    1
    75    92    91    2
    76    21    22    2
    77    83    85   ar
    78    83    82   ar
    79     5     2    1
    80    13    12    2
    81    85    87   ar
    82    81    82    1
    83    82    84   ar
    84    12    11    1
    85     2     1    1
    86     2     3    1
    87    87    88    1
    88    87    86   ar
    89     3    10   am
    90     3     4    2
    91    10    11    1
    92    84    86   ar
    93    11    14    1
    94    14    15    1
    95    18    17    1
    96    15    16    1
    97    16    17    1
