@<TRIPOS>MOLECULE
tmp/3ga4A00.pdb
 113 110 0 0 0
SMALL
GASTEIGER

@<TRIPOS>ATOM
      1  N         21.4170   10.3840   23.3100 N.3    37  ILE37      -0.1245
      2  CA        20.4980    9.9890   24.3610 C.3    37  ILE37       0.1561
      3  C         20.9110   10.7140   25.6320 C.2    37  ILE37       0.2260
      4  O         22.0230   10.5260   26.1330 O.2    37  ILE37      -0.2867
      5  CB        20.5500    8.4700   24.5730 C.3    37  ILE37       0.0252
      6  CG1       20.2130    7.7380   23.2680 C.3    37  ILE37       0.0019
      7  CG2       19.6110    8.0610   25.6940 C.3    37  ILE37       0.0019
      8  CD1       20.4940    6.2540   23.3090 C.3    37  ILE37       0.0001
      9  N         12.8210    0.0540   25.0330 N.3    91  ASP91      -0.1225
     10  CA        13.3330   -0.6620   23.8670 C.3    91  ASP91       0.1805
     11  C         14.8520   -0.8070   23.8510 C.2    91  ASP91       0.2598
     12  O         15.3770   -1.8560   23.4820 O.2    91  ASP91      -0.2718
     13  CB        12.8760    0.0260   22.5790 C.3    91  ASP91       0.1424
     14  CG        11.4030   -0.1750   22.2980 C.2    91  ASP91       0.3668
     15  OD1       10.7580   -0.9690   23.0150 O.co2  91  ASP91      -0.2456
     16  OD2       10.8890    0.4610   21.3540 O.co2  91  ASP91      -0.2456
     17  N         15.5510    0.2530   24.2430 N.am   92  LEU92      -0.1966
     18  CA        17.0090    0.2580   24.2110 C.3    92  LEU92       0.1728
     19  C         17.6150   -0.1660   25.5470 C.2    92  LEU92       0.2616
     20  O         18.8340   -0.1340   25.7220 O.2    92  LEU92      -0.2715
     21  CB        17.5350    1.6340   23.7890 C.3    92  LEU92       0.0311
     22  CG        17.5800    1.9270   22.2850 C.3    92  LEU92       0.0022
     23  CD1       16.2370    1.6580   21.6150 C.3    92  LEU92       0.0001
     24  CD2       18.0340    3.3560   22.0230 C.3    92  LEU92       0.0001
     25  N         16.7570   -0.5620   26.4830 N.am   93  LYS93      -0.1963
     26  CA        17.1990   -1.0600   27.7840 C.3    93  LYS93       0.1728
     27  C         18.1470   -0.0890   28.4820 C.2    93  LYS93       0.2616
     28  O         19.1530   -0.5000   29.0610 O.2    93  LYS93      -0.2715
     29  CB        17.8780   -2.4250   27.6310 C.3    93  LYS93       0.0311
     30  CG        17.1320   -3.4000   26.7350 C.3    93  LYS93       0.0038
     31  CD        15.7490   -3.7140   27.2800 C.3    93  LYS93       0.0206
     32  CE        14.9920   -4.6520   26.3540 C.3    93  LYS93       0.1093
     33  NZ        13.6200   -4.9440   26.8540 N.3    93  LYS93      -0.1314
     34  N         17.8190    1.1970   28.4310 N.am   94  LEU94      -0.1977
     35  CA        18.6840    2.2220   29.0040 C.3    94  LEU94       0.1596
     36  C         18.6890    2.1910   30.5260 C.2    94  LEU94       0.2287
     37  O         17.6450    2.0290   31.1580 O.2    94  LEU94      -0.2864
     38  CB        18.2720    3.6070   28.5120 C.3    94  LEU94       0.0297
     39  CG        18.3840    3.8090   27.0010 C.3    94  LEU94       0.0022
     40  CD1       17.8330    5.1640   26.6070 C.3    94  LEU94       0.0001
     41  CD2       19.8260    3.6530   26.5400 C.3    94  LEU94       0.0001
     42  N         24.3730    8.7920   26.1780 N.3    99  HIS99      -0.1241
     43  CA        24.9610    7.9090   25.1800 C.3    99  HIS99       0.1621
     44  C         24.9210    8.5880   23.8310 C.2    99  HIS99       0.2264
     45  O         23.9990    9.3490   23.5410 O.2    99  HIS99      -0.2867
     46  CB        24.1980    6.5880   25.0840 C.3    99  HIS99       0.0745
     47  CG        24.1980    5.8020   26.3520 C.ar   99  HIS99       0.0817
     48  ND1       25.1620    4.8610   26.6480 N.ar   99  HIS99      -0.2268
     49  CD2       23.3570    5.8220   27.4120 C.ar   99  HIS99       0.1154
     50  CE1       24.9120    4.3340   27.8310 C.ar   99  HIS99       0.1986
     51  NE2       23.8210    4.9000   28.3170 N.ar   99  HIS99      -0.2212
     52  N         25.1030    7.1260   20.0030 N.3   101  VAL101     -0.1245
     53  CA        25.1880    5.9460   19.1550 C.3   101  VAL101      0.1561
     54  C         24.9630    6.3300   17.7020 C.2   101  VAL101      0.2260
     55  O         24.3060    7.3300   17.4080 O.2   101  VAL101     -0.2867
     56  CB        24.1920    4.8420   19.5940 C.3   101  VAL101      0.0252
     57  CG1       24.4860    4.4000   21.0210 C.3   101  VAL101      0.0019
     58  CG2       22.7480    5.3190   19.4610 C.3   101  VAL101      0.0019
     59  N         23.7460    4.5260   14.0880 N.3   103  TYR103     -0.1241
     60  CA        23.2680    3.4010   13.3060 C.3   103  TYR103      0.1605
     61  C         23.6270    3.6240   11.8490 C.2   103  TYR103      0.2264
     62  O         23.2350    4.6300   11.2670 O.2   103  TYR103     -0.2867
     63  CB        21.7490    3.2800   13.4080 C.3   103  TYR103      0.0534
     64  CG        21.2320    3.0850   14.8100 C.ar  103  TYR103     -0.0201
     65  CD1       21.1670    1.8200   15.3780 C.ar  103  TYR103     -0.0009
     66  CD2       20.8020    4.1660   15.5650 C.ar  103  TYR103     -0.0009
     67  CE1       20.6910    1.6400   16.6610 C.ar  103  TYR103      0.0417
     68  CE2       20.3210    3.9960   16.8460 C.ar  103  TYR103      0.0417
     69  CZ        20.2690    2.7330   17.3900 C.ar  103  TYR103      0.1957
     70  OH        19.7870    2.5710   18.6660 O.3   103  TYR103     -0.2866
     71  N         15.9330    0.7980   15.5330 N.3   116  TRP116     -0.1227
     72  CA        16.9460    1.2280   16.4870 C.3   116  TRP116      0.1737
     73  C         17.1740    0.1740   17.5660 C.2   116  TRP116      0.2595
     74  O         18.2970   -0.0250   18.0130 O.2   116  TRP116     -0.2718
     75  CB        16.5850    2.5610   17.1420 C.3   116  TRP116      0.0564
     76  CG        16.6730    3.7420   16.2250 C.ar  116  TRP116      0.0003
     77  CD1       17.1780    3.7670   14.9580 C.ar  116  TRP116      0.0946
     78  CD2       16.2660    5.0820   16.5210 C.ar  116  TRP116      0.0152
     79  NE1       17.0980    5.0370   14.4400 N.ar  116  TRP116     -0.2442
     80  CE2       16.5440    5.8650   15.3820 C.ar  116  TRP116      0.0810
     81  CE3       15.6920    5.6960   17.6410 C.ar  116  TRP116      0.0012
     82  CZ2       16.2600    7.2310   15.3260 C.ar  116  TRP116      0.0191
     83  CZ3       15.4090    7.0520   17.5840 C.ar  116  TRP116      0.0001
     84  CH2       15.6960    7.8050   16.4340 C.ar  116  TRP116      0.0015
     85  N         16.1170   -0.5150   17.9790 N.am  117  LYS117     -0.1980
     86  CA        16.2560   -1.4330   19.1040 C.3   117  LYS117      0.1596
     87  C         17.0080   -2.7270   18.7720 C.2   117  LYS117      0.2287
     88  O         17.4620   -3.4280   19.6760 O.2   117  LYS117     -0.2864
     89  CB        14.9010   -1.7260   19.7580 C.3   117  LYS117      0.0298
     90  CG        13.9140   -2.4660   18.8860 C.3   117  LYS117      0.0038
     91  CD        12.5810   -2.6150   19.6060 C.3   117  LYS117      0.0206
     92  CE        11.5910   -3.4110   18.7770 C.3   117  LYS117      0.1093
     93  NZ        10.2480   -3.4520   19.4160 N.3   117  LYS117     -0.1314
     94  N         25.0800   -0.8540   16.0170 N.3   121  PHE121     -0.1241
     95  CA        25.4250    0.5540   16.0960 C.3   121  PHE121      0.1605
     96  C         26.8330    0.7300   16.6220 C.2   121  PHE121      0.2264
     97  O         27.3570   -0.1250   17.3450 O.2   121  PHE121     -0.2867
     98  CB        24.4480    1.2960   17.0110 C.3   121  PHE121      0.0534
     99  CG        24.3780    0.7320   18.3990 C.ar  121  PHE121     -0.0203
    100  CD1       23.5260   -0.3210   18.6860 C.ar  121  PHE121     -0.0042
    101  CD2       25.1620    1.2510   19.4180 C.ar  121  PHE121     -0.0042
    102  CE1       23.4570   -0.8460   19.9620 C.ar  121  PHE121     -0.0003
    103  CE2       25.1020    0.7270   20.6960 C.ar  121  PHE121     -0.0003
    104  CZ        24.2450   -0.3230   20.9690 C.ar  121  PHE121     -0.0000
    105  N         29.1080    2.9690   19.1400 N.3   123  GLN123     -0.1245
    106  CA        28.9210    3.8450   20.2840 C.3   123  GLN123      0.1566
    107  C         30.1730    4.6690   20.5560 C.2   123  GLN123      0.2260
    108  O         31.2880    4.1460   20.5370 O.2   123  GLN123     -0.2867
    109  CB        28.5050    3.0750   21.5380 C.3   123  GLN123      0.0367
    110  CG        28.2970    4.0200   22.7090 C.3   123  GLN123      0.0905
    111  CD        27.3890    3.4990   23.8000 C.2   123  GLN123      0.2608
    112  OE1       26.9280    4.2720   24.6380 O.2   123  GLN123     -0.2717
    113  NE2       27.1260    2.1990   23.8030 N.am  123  GLN123     -0.0878
@<TRIPOS>BOND
     1    62    61    2
     2    61    60    1
     3    60    63    1
     4    60    59    1
     5    63    64    1
     6    79    77   ar
     7    79    80   ar
     8    64    65   ar
     9    64    66   ar
    10    77    76   ar
    11    82    80   ar
    12    82    84   ar
    13    65    67   ar
    14    80    78   ar
    15    71    72    1
    16    66    68   ar
    17    94    95    1
    18    95    96    1
    19    95    98    1
    20    76    78   ar
    21    76    75    1
    22    84    83   ar
    23    72    75    1
    24    72    73    1
    25    78    81   ar
    26    96    97    2
    27    67    69   ar
    28    68    69   ar
    29    98    99    1
    30    69    70    1
    31    55    54    2
    32    73    85   am
    33    73    74    2
    34    83    81   ar
    35    54    53    1
    36    85    86    1
    37    99   100   ar
    38    99   101   ar
    39   100   102   ar
    40    87    86    1
    41    87    88    2
    42    92    93    1
    43    92    91    1
    44    90    91    1
    45    90    89    1
    46    86    89    1
    47   105   106    1
    48    53    56    1
    49    53    52    1
    50   101   103   ar
    51    58    56    1
    52    56    57    1
    53   102   104   ar
    54   106   107    1
    55   106   109    1
    56   108   107    2
    57   103   104   ar
    58    16    14   ar
    59   109   110    1
    60    23    22    1
    61    24    22    1
    62    22    21    1
    63    14    13    1
    64    14    15   ar
    65    13    10    1
    66   110   111    1
    67     6     8    1
    68     6     5    1
    69     1     2    1
    70    12    11    2
    71    45    44    2
    72    21    18    1
    73   111   113   am
    74   111   112    2
    75    44    43    1
    76    11    10    1
    77    11    17   am
    78    10     9    1
    79    18    17    1
    80    18    19    1
    81     2     5    1
    82     2     3    1
    83     5     7    1
    84    46    43    1
    85    46    47    1
    86    43    42    1
    87    19    20    2
    88    19    25   am
    89     3     4    2
    90    47    48   ar
    91    47    49   ar
    92    32    33    1
    93    32    31    1
    94    25    26    1
    95    41    39    1
    96    40    39    1
    97    48    50   ar
    98    30    31    1
    99    30    29    1
   100    39    38    1
   101    49    51   ar
   102    29    26    1
   103    26    27    1
   104    50    51   ar
   105    34    27   am
   106    34    35    1
   107    27    28    2
   108    38    35    1
   109    35    36    1
   110    36    37    2
