@<TRIPOS>MOLECULE
tmp/3ga5A00.pdb
 173 164 0 0 0
SMALL
GASTEIGER

@<TRIPOS>ATOM
      1  N          0.1880    6.7040    3.1220 N.3     8  TYR8       -0.1241
      2  CA        -1.1170    6.9010    3.7780 C.3     8  TYR8        0.1605
      3  C         -1.0000    7.1290    5.2930 C.2     8  TYR8        0.2264
      4  O         -1.7600    7.9080    5.8700 O.2     8  TYR8       -0.2867
      5  CB        -2.1060    5.7780    3.4350 C.3     8  TYR8        0.0534
      6  CG        -2.1290    4.5950    4.3880 C.ar    8  TYR8       -0.0201
      7  CD1       -1.2760    3.5160    4.2150 C.ar    8  TYR8       -0.0009
      8  CD2       -3.0570    4.5350    5.4220 C.ar    8  TYR8       -0.0009
      9  CE1       -1.3090    2.4300    5.0810 C.ar    8  TYR8        0.0417
     10  CE2       -3.1060    3.4440    6.2920 C.ar    8  TYR8        0.0417
     11  CZ        -2.2320    2.4030    6.1190 C.ar    8  TYR8        0.1957
     12  OH        -2.2950    1.3160    6.9680 O.3     8  TYR8       -0.2866
     13  N          2.3560    2.7800    9.4810 N.3    12  ASP12      -0.1239
     14  CA         2.0720    1.4510    8.9390 C.3    12  ASP12       0.1674
     15  C          3.3760    0.6930    8.6890 C.2    12  ASP12       0.2266
     16  O          4.2380    1.1750    7.9560 O.2    12  ASP12      -0.2867
     17  CB         1.2090    1.5790    7.6620 C.3    12  ASP12       0.1410
     18  CG         0.9020    0.2310    7.0090 C.2    12  ASP12       0.3668
     19  OD1        1.8010   -0.3100    6.3500 O.co2  12  ASP12      -0.2456
     20  OD2       -0.2450   -0.2680    7.1280 O.co2  12  ASP12      -0.2456
     21  N          4.5190   -2.1530    7.0760 N.3    14  PHE14      -0.1227
     22  CA         4.9580   -2.5230    5.7490 C.3    14  PHE14       0.1736
     23  C          5.2000   -1.2970    4.8640 C.2    14  PHE14       0.2595
     24  O          6.1590   -1.2600    4.1030 O.2    14  PHE14      -0.2718
     25  CB         3.9750   -3.4950    5.0890 C.3    14  PHE14       0.0547
     26  CG         4.3530   -3.8650    3.6700 C.ar   14  PHE14      -0.0202
     27  CD1        5.2710   -4.8590    3.4240 C.ar   14  PHE14      -0.0042
     28  CD2        3.7930   -3.2040    2.5980 C.ar   14  PHE14      -0.0042
     29  CE1        5.6340   -5.1920    2.1200 C.ar   14  PHE14      -0.0003
     30  CE2        4.1410   -3.5360    1.2940 C.ar   14  PHE14      -0.0003
     31  CZ         5.0590   -4.5350    1.0590 C.ar   14  PHE14      -0.0000
     32  N          4.3320   -0.2930    4.9530 N.am   15  MET15      -0.1979
     33  CA         4.5480    0.9000    4.1430 C.3    15  MET15       0.1605
     34  C          5.7900    1.6580    4.6060 C.2    15  MET15       0.2287
     35  O          6.3720    2.4170    3.8440 O.2    15  MET15      -0.2864
     36  CB         3.2920    1.7790    4.0620 C.3    15  MET15       0.0413
     37  CG         2.3230    1.3200    2.9630 C.3    15  MET15       0.0598
     38  SD         3.0830    1.3520    1.3110 S.3    15  MET15      -0.1393
     39  CE         3.7370    3.0170    1.3180 C.3    15  MET15       0.0692
     40  N          0.3110    0.4990   -3.7220 N.3    89  ASN89      -0.1225
     41  CA        -0.0120   -0.1870   -2.4650 C.3    89  ASN89       0.1785
     42  C         -1.5030   -0.3480   -2.1140 C.2    89  ASN89       0.2597
     43  O         -1.8850   -1.3500   -1.5120 O.2    89  ASN89      -0.2718
     44  CB         0.7800    0.4170   -1.2870 C.3    89  ASN89       0.1169
     45  CG         0.3310   -0.1350    0.0660 C.2    89  ASN89       0.2627
     46  OD1       -0.4310    0.5030    0.7900 O.2    89  ASN89      -0.2716
     47  ND2        0.8020   -1.3290    0.4040 N.am   89  ASN89      -0.0877
     48  N         -2.3310    0.6400   -2.4540 N.am   90  LYS90      -0.1980
     49  CA        -3.7820    0.4970   -2.3710 C.3    90  LYS90       0.1596
     50  C         -4.3570    0.6970   -3.7800 C.2    90  LYS90       0.2287
     51  O         -4.2950    1.7940   -4.3360 O.2    90  LYS90      -0.2864
     52  CB        -4.3990    1.4950   -1.3830 C.3    90  LYS90       0.0298
     53  CG        -3.7840    1.4660    0.0220 C.3    90  LYS90       0.0038
     54  CD        -4.7780    1.9070    1.0770 C.3    90  LYS90       0.0206
     55  CE        -4.1110    2.1320    2.4300 C.3    90  LYS90       0.1093
     56  NZ        -5.0660    2.6690    3.4540 N.3    90  LYS90      -0.1314
     57  N         -0.6020    2.1980  -11.6010 N.3   105  TYR105     -0.1241
     58  CA        -0.6650    1.5790  -10.2830 C.3   105  TYR105      0.1605
     59  C          0.3960    0.4970  -10.1250 C.2   105  TYR105      0.2264
     60  O          0.6140   -0.3030  -11.0360 O.2   105  TYR105     -0.2867
     61  CB        -2.0390    0.9590  -10.0190 C.3   105  TYR105      0.0534
     62  CG        -2.0410    0.2170   -8.6960 C.ar  105  TYR105     -0.0201
     63  CD1       -1.9690    0.9190   -7.4980 C.ar  105  TYR105     -0.0009
     64  CD2       -2.0540   -1.1760   -8.6470 C.ar  105  TYR105     -0.0009
     65  CE1       -1.9420    0.2590   -6.2820 C.ar  105  TYR105      0.0417
     66  CE2       -2.0180   -1.8500   -7.4280 C.ar  105  TYR105      0.0417
     67  CZ        -1.9640   -1.1170   -6.2560 C.ar  105  TYR105      0.1957
     68  OH        -1.9250   -1.7470   -5.0450 O.3   105  TYR105     -0.2866
     69  N          1.5000   -2.6190   -7.5810 N.3   107  GLY107     -0.1210
     70  CA         0.9820   -3.4220   -6.4830 C.3   107  GLY107      0.1956
     71  C          1.3570   -4.8770   -6.6150 C.2   107  GLY107      0.2612
     72  O          2.4920   -5.2060   -6.9750 O.2   107  GLY107     -0.2717
     73  N          0.3790   -5.7310   -6.3360 N.am  108  THR108     -0.1952
     74  CA         0.5230   -7.1690   -6.3430 C.3   108  THR108      0.1897
     75  C         -0.7260   -7.8070   -6.9210 C.2   108  THR108      0.2313
     76  O         -1.7370   -7.1360   -7.1360 O.2   108  THR108     -0.2863
     77  CB         0.7160   -7.7050   -4.9060 C.3   108  THR108      0.1794
     78  OG1       -0.5060   -7.5600   -4.1530 O.3   108  THR108     -0.2208
     79  CG2        1.8360   -6.9330   -4.2190 C.3   108  THR108      0.0378
     80  N         -3.4970   -9.5120   -5.7170 N.3   110  SER110     -0.1217
     81  CA        -3.9960   -9.5920   -4.3350 C.3   110  SER110      0.1889
     82  C         -4.3660  -11.0010   -3.8940 C.2   110  SER110      0.2288
     83  O         -4.0540  -11.4070   -2.7760 O.2   110  SER110     -0.2866
     84  CB        -5.1960   -8.6590   -4.1230 C.3   110  SER110      0.2089
     85  OG        -4.8300   -7.3010   -4.3350 O.3   110  SER110     -0.2183
     86  N        -10.3200   -2.6150    1.2890 N.3   150  HIS150     -0.1241
     87  CA        -8.9660   -2.6390    0.7600 C.3   150  HIS150      0.1621
     88  C         -8.8500   -3.9260   -0.0600 C.2   150  HIS150      0.2264
     89  O         -9.1070   -5.0090    0.4560 O.2   150  HIS150     -0.2867
     90  CB        -7.9770   -2.6280    1.9210 C.3   150  HIS150      0.0745
     91  CG        -6.5440   -2.4830    1.5080 C.ar  150  HIS150      0.0817
     92  ND1       -5.9160   -3.3790    0.6700 N.ar  150  HIS150     -0.2268
     93  CD2       -5.6120   -1.5590    1.8420 C.ar  150  HIS150      0.1154
     94  CE1       -4.6550   -3.0150    0.5070 C.ar  150  HIS150      0.1986
     95  NE2       -4.4430   -1.9160    1.2120 N.ar  150  HIS150     -0.2212
     96  N         -6.5800   -5.8560   -0.8960 N.3   152  ASP152     -0.1239
     97  CA        -5.7770   -6.9320   -0.2950 C.3   152  ASP152      0.1674
     98  C         -6.4280   -7.5550    0.9480 C.2   152  ASP152      0.2266
     99  O         -6.3030   -8.7610    1.1750 O.2   152  ASP152     -0.2867
    100  CB        -4.3520   -6.4660    0.0200 C.3   152  ASP152      0.1410
    101  CG        -3.5490   -6.1800   -1.2300 C.2   152  ASP152      0.3668
    102  OD1       -3.2180   -7.1270   -1.9710 O.co2 152  ASP152     -0.2456
    103  OD2       -3.2370   -5.0000   -1.4740 O.co2 152  ASP152     -0.2456
    104  N         -7.2240  -11.4720    0.5800 N.3   156  ARG156     -0.1245
    105  CA        -6.5210  -12.3610    1.5000 C.3   156  ARG156      0.1563
    106  C         -7.5070  -13.1060    2.3870 C.2   156  ARG156      0.2260
    107  O         -7.3170  -14.2770    2.7010 O.2   156  ARG156     -0.2867
    108  CB        -5.5250  -11.5720    2.3490 C.3   156  ARG156      0.0307
    109  CG        -4.3600  -11.0380    1.5400 C.3   156  ARG156      0.0489
    110  CD        -3.4780  -10.1410    2.3730 C.3   156  ARG156      0.2205
    111  NE        -2.5200   -9.4190    1.5450 N.pl3 156  ARG156     -0.0865
    112  CZ        -1.7280   -8.4520    1.9970 C.cat 156  ARG156      0.5346
    113  NH1       -1.7800   -8.1060    3.2800 N.pl3 156  ARG156      0.1354
    114  NH2       -0.8720   -7.8480    1.1700 N.pl3 156  ARG156      0.1354
    115  N         -4.9840   -3.3030    9.8720 N.3   181  TRP181     -0.1241
    116  CA        -3.5500   -3.4690    9.5650 C.3   181  TRP181      0.1605
    117  C         -2.6250   -3.1690   10.7660 C.2   181  TRP181      0.2264
    118  O         -1.3880   -3.2140   10.6290 O.2   181  TRP181     -0.2867
    119  CB        -3.1030   -2.5650    8.4120 C.3   181  TRP181      0.0550
    120  CG        -3.8180   -2.6870    7.0800 C.ar  181  TRP181      0.0003
    121  CD1       -4.4280   -1.6740    6.3850 C.ar  181  TRP181      0.0946
    122  CD2       -3.9410   -3.8630    6.2630 C.ar  181  TRP181      0.0152
    123  NE1       -4.9430   -2.1560    5.1970 N.ar  181  TRP181     -0.2442
    124  CE2       -4.6500   -3.4920    5.0960 C.ar  181  TRP181      0.0810
    125  CE3       -3.5310   -5.1920    6.4080 C.ar  181  TRP181      0.0012
    126  CZ2       -4.9520   -4.4040    4.0810 C.ar  181  TRP181      0.0191
    127  CZ3       -3.8280   -6.0940    5.3990 C.ar  181  TRP181      0.0001
    128  CH2       -4.5380   -5.6940    4.2480 C.ar  181  TRP181      0.0015
    129  N         -2.2070   -9.4910    7.7690 N.3   209  ASN209     -0.1240
    130  CA        -0.8110   -9.0310    7.7330 C.3   209  ASN209      0.1653
    131  C         -0.0190   -9.3780    8.9940 C.2   209  ASN209      0.2266
    132  O         -0.5860   -9.8390    9.9930 O.2   209  ASN209     -0.2867
    133  CB        -0.6960   -7.5220    7.4060 C.3   209  ASN209      0.1155
    134  CG        -0.9580   -6.6180    8.6120 C.2   209  ASN209      0.2627
    135  OD1       -1.3760   -7.0730    9.6730 O.2   209  ASN209     -0.2716
    136  ND2       -0.6990   -5.3150    8.4410 N.am  209  ASN209     -0.0877
    137  N          3.4940  -10.5630    4.8180 N.3   234  ASP234     -0.1239
    138  CA         4.3830   -9.4150    4.5560 C.3   234  ASP234      0.1674
    139  C          5.8580   -9.7940    4.6500 C.2   234  ASP234      0.2266
    140  O          6.6920   -9.2600    3.9090 O.2   234  ASP234     -0.2867
    141  CB         4.1170   -8.2290    5.4910 C.3   234  ASP234      0.1410
    142  CG         2.9810   -7.3370    5.0090 C.2   234  ASP234      0.3668
    143  OD1        2.5870   -7.4320    3.8330 O.co2 234  ASP234     -0.2456
    144  OD2        2.4860   -6.5400    5.8270 O.co2 234  ASP234     -0.2456
    145  N          6.0010  -10.0070    1.0520 N.3   254  ASN254     -0.1240
    146  CA         5.3890   -8.9730    0.2330 C.3   254  ASN254      0.1653
    147  C          6.5930   -8.1360   -0.2000 C.2   254  ASN254      0.2266
    148  O          7.3440   -7.6460    0.6440 O.2   254  ASN254     -0.2867
    149  CB         4.3920   -8.1670    1.0880 C.3   254  ASN254      0.1155
    150  CG         3.5130   -7.2040    0.2660 C.2   254  ASN254      0.2627
    151  OD1        3.6990   -7.0220   -0.9470 O.2   254  ASN254     -0.2716
    152  ND2        2.5530   -6.5740    0.9460 N.am  254  ASN254     -0.0877
    153  N          8.3270   -3.2470   -5.3090 N.3   259  GLN259     -0.1245
    154  CA         7.2030   -2.3250   -5.4130 C.3   259  GLN259      0.1566
    155  C          7.6720   -0.8870   -5.2970 C.2   259  GLN259      0.2260
    156  O          7.1770   -0.0160   -6.0110 O.2   259  GLN259     -0.2867
    157  CB         6.1330   -2.6350   -4.3670 C.3   259  GLN259      0.0367
    158  CG         5.2970   -3.9010   -4.7010 C.3   259  GLN259      0.0905
    159  CD         4.3680   -4.2930   -3.5650 C.2   259  GLN259      0.2608
    160  OE1        3.3250   -3.6780   -3.3660 O.2   259  GLN259     -0.2717
    161  NE2        4.7440   -5.3230   -2.8150 N.am  259  GLN259     -0.0878
    162  N          4.2610  -12.4550   -4.7370 N.3   293  TYR293     -0.1241
    163  CA         4.4910  -12.8440   -3.3450 C.3   293  TYR293      0.1605
    164  C          5.2160  -14.1920   -3.3160 C.2   293  TYR293      0.2264
    165  O          5.1700  -14.9320   -4.2910 O.2   293  TYR293     -0.2867
    166  CB         3.1660  -13.0560   -2.6060 C.3   293  TYR293      0.0534
    167  CG         2.3100  -11.8390   -2.3730 C.ar  293  TYR293     -0.0201
    168  CD1        2.4960  -11.0380   -1.2500 C.ar  293  TYR293     -0.0009
    169  CD2        1.2840  -11.5110   -3.2490 C.ar  293  TYR293     -0.0009
    170  CE1        1.6760   -9.9380   -1.0100 C.ar  293  TYR293      0.0417
    171  CE2        0.4730  -10.4110   -3.0230 C.ar  293  TYR293      0.0417
    172  CZ         0.6850   -9.6240   -1.9000 C.ar  293  TYR293      0.1957
    173  OH        -0.1150   -8.5260   -1.6690 O.3   293  TYR293     -0.2866
@<TRIPOS>BOND
     1    57    58    1
     2    60    59    2
     3    58    59    1
     4    58    61    1
     5    61    62    1
     6    62    64   ar
     7    62    63   ar
     8    64    66   ar
     9    69    70    1
    10    63    65   ar
    11    66    67   ar
    12    76    75    2
    13    72    71    2
    14    75    74    1
    15    71    70    1
    16    71    73   am
    17    74    73    1
    18    74    77    1
    19    65    67   ar
    20    67    68    1
    21   156   155    2
    22    80    81    1
    23   154   153    1
    24   154   155    1
    25   154   157    1
    26    77    79    1
    27    77    78    1
    28   162   163    1
    29   158   157    1
    30   158   159    1
    31    51    50    2
    32    81    84    1
    33    81    82    1
    34    85    84    1
    35   165   164    2
    36    82    83    2
    37    50    49    1
    38    40    41    1
    39   159   160    2
    40   159   161   am
    41   163   164    1
    42   163   166    1
    43   169   171   ar
    44   169   167   ar
    45   171   172   ar
    46   166   167    1
    47    41    42    1
    48    41    44    1
    49    48    49    1
    50    48    42   am
    51   167   168   ar
    52    49    52    1
    53    42    43    2
    54   102   101   ar
    55   172   173    1
    56   172   170   ar
    57   103   101   ar
    58    52    53    1
    59    44    45    1
    60   168   170   ar
    61   101   100    1
    62   151   150    2
    63    96    97    1
    64    97   100    1
    65    97    98    1
    66   147   146    1
    67   147   148    2
    68    88    89    2
    69    88    87    1
    70    53    54    1
    71    45    47   am
    72    45    46    2
    73   146   145    1
    74   146   149    1
    75   150   152   am
    76   150   149    1
    77    94    92   ar
    78    94    95   ar
    79   104   105    1
    80    92    91   ar
    81    87    86    1
    82    87    90    1
    83    98    99    2
    84    31    30   ar
    85    31    29   ar
    86    54    55    1
    87   114   112    1
    88    95    93   ar
    89    30    28   ar
    90    38    39    1
    91    38    37    1
    92   105   108    1
    93   105   106    1
    94    91    93   ar
    95    91    90    1
    96   109   108    1
    97   109   110    1
    98   111   112    2
    99   111   110    1
   100   112   113    1
   101    29    27   ar
   102   106   107    2
   103    55    56    1
   104    28    26   ar
   105    37    36    1
   106     1     2    1
   107    27    26   ar
   108     5     2    1
   109     5     6    1
   110    26    25    1
   111     2     3    1
   112   143   142   ar
   113    35    34    2
   114   140   139    2
   115    36    33    1
   116   126   128   ar
   117   126   124   ar
   118    24    23    2
   119    33    34    1
   120    33    32    1
   121     7     6   ar
   122     7     9   ar
   123   128   127   ar
   124     6     8   ar
   125   138   139    1
   126   138   137    1
   127   138   141    1
   128    23    32   am
   129    23    22    1
   130   142   141    1
   131   142   144   ar
   132     9    11   ar
   133    25    22    1
   134   124   123   ar
   135   124   122   ar
   136   123   121   ar
   137     3     4    2
   138   127   125   ar
   139     8    10   ar
   140    22    21    1
   141    11    10   ar
   142    11    12    1
   143   122   125   ar
   144   122   120   ar
   145    19    18   ar
   146   121   120   ar
   147    18    20   ar
   148    18    17    1
   149   120   119    1
   150   133   130    1
   151   133   134    1
   152    17    14    1
   153   130   129    1
   154   130   131    1
   155    16    15    2
   156   119   116    1
   157   136   134   am
   158   134   135    2
   159    15    14    1
   160    14    13    1
   161   131   132    2
   162   116   115    1
   163   116   117    1
   164   118   117    2
