@<TRIPOS>MOLECULE
tmp/3ga9B01.pdb
 85 81 0 0 0
SMALL
GASTEIGER

@<TRIPOS>ATOM
      1  N          7.8300   70.2670   24.2050 N.3     1  THR1       -0.1218
      2  CA         7.9050   69.5210   22.9320 C.3     1  THR1        0.1862
      3  C          9.1310   68.6450   22.9410 C.2     1  THR1        0.2287
      4  O         10.1660   68.9800   23.5290 O.2     1  THR1       -0.2866
      5  CB         7.9390   70.5030   21.7410 C.3     1  THR1        0.1770
      6  OG1        6.9080   71.4410   21.9710 O.3     1  THR1       -0.2211
      7  CG2        7.6480   69.8030   20.4360 C.3     1  THR1        0.0375
      8  N          2.5780   71.9800   24.1820 N.3    21  SER21      -0.1202
      9  CA         2.7520   73.3700   23.7290 C.3    21  SER21       0.2020
     10  C          3.6850   74.0940   24.6560 C.2    21  SER21       0.2619
     11  O          4.8780   73.9700   24.4480 O.2    21  SER21      -0.2717
     12  CB         1.4400   74.0930   23.4820 C.3    21  SER21       0.2103
     13  OG         0.7830   73.3770   22.4490 O.3    21  SER21      -0.2182
     14  N          3.2110   74.8180   25.6740 N.am   22  ASN22      -0.1960
     15  CA         4.1540   75.3170   26.6760 C.3    22  ASN22       0.1819
     16  C          4.7890   74.1600   27.4670 C.2    22  ASN22       0.2621
     17  O          4.2180   73.0780   27.5710 O.2    22  ASN22      -0.2715
     18  CB         3.4840   76.1870   27.7420 C.3    22  ASN22       0.1195
     19  CG         2.9360   77.4850   27.2190 C.2    22  ASN22       0.2630
     20  OD1        3.3630   78.0180   26.1720 O.2    22  ASN22      -0.2716
     21  ND2        1.9540   78.0230   27.9630 N.am   22  ASN22      -0.0877
     22  N          5.9350   74.4560   28.0890 N.am   23  PHE23      -0.1974
     23  CA         6.4940   73.6500   29.1380 C.3    23  PHE23       0.1639
     24  C          5.4460   73.4900   30.2180 C.2    23  PHE23       0.2290
     25  O          4.9360   74.4840   30.7320 O.2    23  PHE23      -0.2864
     26  CB         7.7750   74.3090   29.6750 C.3    23  PHE23       0.0560
     27  CG         8.9200   74.2560   28.7020 C.ar   23  PHE23      -0.0200
     28  CD1        9.3160   73.0310   28.1410 C.ar   23  PHE23      -0.0042
     29  CD2        9.5960   75.4180   28.3270 C.ar   23  PHE23      -0.0042
     30  CE1       10.3610   72.9560   27.2220 C.ar   23  PHE23      -0.0003
     31  CE2       10.6640   75.3580   27.4010 C.ar   23  PHE23      -0.0003
     32  CZ        11.0320   74.1270   26.8500 C.ar   23  PHE23      -0.0000
     33  N         -2.6610   76.7910   21.8770 N.3    39  LEU39      -0.1245
     34  CA        -2.4260   78.0760   21.2040 C.3    39  LEU39       0.1561
     35  C         -3.5040   78.3000   20.1510 C.2    39  LEU39       0.2260
     36  O         -3.7180   77.4330   19.2930 O.2    39  LEU39      -0.2867
     37  CB        -1.0550   78.0660   20.5200 C.3    39  LEU39       0.0270
     38  CG         0.1450   78.8750   21.0560 C.3    39  LEU39       0.0019
     39  CD1       -0.0660   80.4250   20.9230 C.3    39  LEU39       0.0001
     40  CD2        0.6030   78.4580   22.4780 C.3    39  LEU39       0.0001
     41  N         12.0480   70.1400   18.7370 N.3    67  PRO67      -0.2102
     42  CA        11.0970   71.1340   19.3030 C.3    67  PRO67       0.1504
     43  C         11.5880   72.5270   18.9900 C.2    67  PRO67       0.2576
     44  O         12.6530   72.6980   18.3550 O.2    67  PRO67      -0.2718
     45  CB        11.2410   70.9290   20.8190 C.3    67  PRO67       0.0282
     46  CG        12.7160   70.4940   20.9400 C.3    67  PRO67       0.0208
     47  CD        12.8420   69.4980   19.8020 C.3    67  PRO67       0.0893
     48  N         10.8430   73.5020   19.4900 N.am   68  GLY68      -0.1943
     49  CA        11.2430   74.8970   19.4500 C.3    68  GLY68       0.2014
     50  C         10.2570   75.8290   18.7620 C.2    68  GLY68       0.2639
     51  O         10.6640   76.8610   18.2570 O.2    68  GLY68      -0.2714
     52  N          9.0020   75.4560   18.7420 N.am   69  GLY69      -0.1954
     53  CA         7.9360   76.3030   18.2950 C.3    69  GLY69       0.1869
     54  C          8.0960   76.7780   16.8920 C.2    69  GLY69       0.2309
     55  O          8.2680   76.0140   15.9900 O.2    69  GLY69      -0.2863
     56  N         10.4130   78.2090   15.5440 N.3    71  ARG71      -0.1231
     57  CA        11.7590   78.2240   15.0460 C.3    71  ARG71       0.1694
     58  C         12.1730   76.9080   14.4320 C.2    71  ARG71       0.2591
     59  O         13.2270   76.7860   13.8820 O.2    71  ARG71      -0.2718
     60  CB        12.7000   78.6740   16.1420 C.3    71  ARG71       0.0321
     61  CG        12.3180   80.0190   16.6870 C.3    71  ARG71       0.0489
     62  CD        13.0440   80.4100   17.9340 C.3    71  ARG71       0.2205
     63  NE        12.8820   79.4560   19.0080 N.pl3  71  ARG71      -0.0865
     64  CZ        11.8520   79.4330   19.8210 C.cat  71  ARG71       0.5346
     65  NH1       10.8840   80.3020   19.6800 N.pl3  71  ARG71       0.1354
     66  NH2       11.7880   78.5360   20.7620 N.pl3  71  ARG71       0.1354
     67  N         11.2920   75.9350   14.5030 N.am   72  ILE72      -0.1980
     68  CA        11.5450   74.5700   14.0360 C.3    72  ILE72       0.1595
     69  C         12.1480   74.5350   12.6090 C.2    72  ILE72       0.2287
     70  O         13.2620   74.0510   12.4470 O.2    72  ILE72      -0.2864
     71  CB        10.3140   73.6190   14.2680 C.3    72  ILE72       0.0276
     72  CG1       10.0940   73.3830   15.7720 C.3    72  ILE72       0.0022
     73  CG2       10.5170   72.2860   13.6300 C.3    72  ILE72       0.0022
     74  CD1        8.7760   72.7110   16.1370 C.3    72  ILE72       0.0001
     75  N         19.2840   69.8630   25.2690 N.3   159  ARG159     -0.1245
     76  CA        18.1940   69.3270   26.1020 C.3   159  ARG159      0.1563
     77  C         18.5920   67.9890   26.6920 C.2   159  ARG159      0.2260
     78  O         17.7350   67.1320   26.9490 O.2   159  ARG159     -0.2867
     79  CB        16.8800   69.2030   25.3300 C.3   159  ARG159      0.0307
     80  CG        16.4640   70.4720   24.6260 C.3   159  ARG159      0.0489
     81  CD        15.0110   70.4940   24.3160 C.3   159  ARG159      0.2205
     82  NE        14.6200   71.7700   23.7240 N.pl3 159  ARG159     -0.0865
     83  CZ        13.3640   72.2150   23.6480 C.cat 159  ARG159      0.5346
     84  NH1       12.3560   71.4730   24.1110 N.pl3 159  ARG159      0.1354
     85  NH2       13.1070   73.3750   23.0470 N.pl3 159  ARG159      0.1354
@<TRIPOS>BOND
     1    70    69    2
     2    69    68    1
     3    73    71    1
     4    59    58    2
     5    68    71    1
     6    68    67    1
     7    71    72    1
     8    58    67   am
     9    58    57    1
    10    57    56    1
    11    57    60    1
    12    72    74    1
    13    55    54    2
    14    60    61    1
    15    61    62    1
    16    54    53    1
    17    62    63    1
    18    51    50    2
    19    53    52    1
    20    44    43    2
    21    41    42    1
    22    41    47    1
    23    52    50   am
    24    50    49    1
    25    43    42    1
    26    43    48   am
    27    63    64    2
    28    36    35    2
    29    42    45    1
    30    49    48    1
    31    65    64    1
    32    47    46    1
    33    64    66    1
    34    35    34    1
    35     7     5    1
    36    37    38    1
    37    37    34    1
    38    45    46    1
    39    39    38    1
    40    38    40    1
    41    34    33    1
    42     5     6    1
    43     5     2    1
    44    13    12    1
    45     2     3    1
    46     2     1    1
    47     3     4    2
    48    85    83    1
    49    12     9    1
    50    83    82    2
    51    83    84    1
    52    82    81    1
    53     9     8    1
    54     9    10    1
    55    81    80    1
    56    11    10    2
    57    80    79    1
    58    10    14   am
    59    75    76    1
    60    79    76    1
    61    14    15    1
    62    76    77    1
    63    20    19    2
    64    15    16    1
    65    15    18    1
    66    77    78    2
    67    32    30   ar
    68    32    31   ar
    69    19    18    1
    70    19    21   am
    71    30    28   ar
    72    31    29   ar
    73    16    17    2
    74    16    22   am
    75    22    23    1
    76    28    27   ar
    77    29    27   ar
    78    27    26    1
    79    23    26    1
    80    23    24    1
    81    24    25    2
