@<TRIPOS>MOLECULE
tmp/3ga9B00.pdb
 82 80 0 0 0
SMALL
GASTEIGER

@<TRIPOS>ATOM
      1  N          2.5780   71.9800   24.1820 N.3    21  SER21      -0.1202
      2  CA         2.7520   73.3700   23.7290 C.3    21  SER21       0.2020
      3  C          3.6850   74.0940   24.6560 C.2    21  SER21       0.2619
      4  O          4.8780   73.9700   24.4480 O.2    21  SER21      -0.2717
      5  CB         1.4400   74.0930   23.4820 C.3    21  SER21       0.2103
      6  OG         0.7830   73.3770   22.4490 O.3    21  SER21      -0.2182
      7  N          3.2110   74.8180   25.6740 N.am   22  ASN22      -0.1960
      8  CA         4.1540   75.3170   26.6760 C.3    22  ASN22       0.1819
      9  C          4.7890   74.1600   27.4670 C.2    22  ASN22       0.2621
     10  O          4.2180   73.0780   27.5710 O.2    22  ASN22      -0.2715
     11  CB         3.4840   76.1870   27.7420 C.3    22  ASN22       0.1195
     12  CG         2.9360   77.4850   27.2190 C.2    22  ASN22       0.2630
     13  OD1        3.3630   78.0180   26.1720 O.2    22  ASN22      -0.2716
     14  ND2        1.9540   78.0230   27.9630 N.am   22  ASN22      -0.0877
     15  N          5.9350   74.4560   28.0890 N.am   23  PHE23      -0.1974
     16  CA         6.4940   73.6500   29.1380 C.3    23  PHE23       0.1639
     17  C          5.4460   73.4900   30.2180 C.2    23  PHE23       0.2290
     18  O          4.9360   74.4840   30.7320 O.2    23  PHE23      -0.2864
     19  CB         7.7750   74.3090   29.6750 C.3    23  PHE23       0.0560
     20  CG         8.9200   74.2560   28.7020 C.ar   23  PHE23      -0.0200
     21  CD1        9.3160   73.0310   28.1410 C.ar   23  PHE23      -0.0042
     22  CD2        9.5960   75.4180   28.3270 C.ar   23  PHE23      -0.0042
     23  CE1       10.3610   72.9560   27.2220 C.ar   23  PHE23      -0.0003
     24  CE2       10.6640   75.3580   27.4010 C.ar   23  PHE23      -0.0003
     25  CZ        11.0320   74.1270   26.8500 C.ar   23  PHE23      -0.0000
     26  N         -2.6610   76.7910   21.8770 N.3    39  LEU39      -0.1245
     27  CA        -2.4260   78.0760   21.2040 C.3    39  LEU39       0.1561
     28  C         -3.5040   78.3000   20.1510 C.2    39  LEU39       0.2260
     29  O         -3.7180   77.4330   19.2930 O.2    39  LEU39      -0.2867
     30  CB        -1.0550   78.0660   20.5200 C.3    39  LEU39       0.0270
     31  CG         0.1450   78.8750   21.0560 C.3    39  LEU39       0.0019
     32  CD1       -0.0660   80.4250   20.9230 C.3    39  LEU39       0.0001
     33  CD2        0.6030   78.4580   22.4780 C.3    39  LEU39       0.0001
     34  N          4.1020   74.4210   14.2740 N.3    50  PHE50      -0.1241
     35  CA         5.2880   74.4220   13.4330 C.3    50  PHE50       0.1605
     36  C          6.0080   73.0910   13.4380 C.2    50  PHE50       0.2264
     37  O          6.9890   72.9170   12.7110 O.2    50  PHE50      -0.2867
     38  CB         6.2330   75.5480   13.8510 C.3    50  PHE50       0.0534
     39  CG         5.9130   76.8610   13.2020 C.ar   50  PHE50      -0.0203
     40  CD1        6.3240   77.1120   11.8970 C.ar   50  PHE50      -0.0042
     41  CD2        5.1660   77.8230   13.8830 C.ar   50  PHE50      -0.0042
     42  CE1        6.0140   78.3170   11.2770 C.ar   50  PHE50      -0.0003
     43  CE2        4.8430   79.0380   13.2780 C.ar   50  PHE50      -0.0003
     44  CZ         5.2750   79.2810   11.9660 C.ar   50  PHE50      -0.0000
     45  N         10.8430   73.5020   19.4900 N.3    68  GLY68      -0.1210
     46  CA        11.2430   74.8970   19.4500 C.3    68  GLY68       0.1956
     47  C         10.2570   75.8290   18.7620 C.2    68  GLY68       0.2612
     48  O         10.6640   76.8610   18.2570 O.2    68  GLY68      -0.2717
     49  N          9.0020   75.4560   18.7420 N.am   69  GLY69      -0.1942
     50  CA         7.9360   76.3030   18.2950 C.3    69  GLY69       0.2014
     51  C          8.0960   76.7780   16.8920 C.2    69  GLY69       0.2639
     52  O          8.2680   76.0140   15.9900 O.2    69  GLY69      -0.2714
     53  N          8.0170   78.0730   16.7160 N.am   70  ASN70      -0.1958
     54  CA         8.0420   78.6030   15.3860 C.3    70  ASN70       0.1819
     55  C          9.4300   78.7190   14.8320 C.2    70  ASN70       0.2621
     56  O          9.6090   79.2000   13.7640 O.2    70  ASN70      -0.2715
     57  CB         7.3310   79.9200   15.3430 C.3    70  ASN70       0.1195
     58  CG         8.1140   80.9710   15.9400 C.2    70  ASN70       0.2630
     59  OD1        7.6110   81.8170   16.6350 O.2    70  ASN70      -0.2716
     60  ND2        9.3830   80.9230   15.6960 N.am   70  ASN70      -0.0877
     61  N         10.4130   78.2090   15.5440 N.am   71  ARG71      -0.1977
     62  CA        11.7590   78.2240   15.0460 C.3    71  ARG71       0.1597
     63  C         12.1730   76.9080   14.4320 C.2    71  ARG71       0.2287
     64  O         13.2270   76.7860   13.8820 O.2    71  ARG71      -0.2864
     65  CB        12.7000   78.6740   16.1420 C.3    71  ARG71       0.0334
     66  CG        12.3180   80.0190   16.6870 C.3    71  ARG71       0.0492
     67  CD        13.0440   80.4100   17.9340 C.3    71  ARG71       0.2205
     68  NE        12.8820   79.4560   19.0080 N.pl3  71  ARG71      -0.0865
     69  CZ        11.8520   79.4330   19.8210 C.cat  71  ARG71       0.5346
     70  NH1       10.8840   80.3020   19.6800 N.pl3  71  ARG71       0.1354
     71  NH2       11.7880   78.5360   20.7620 N.pl3  71  ARG71       0.1354
     72  N         15.9650   77.3250   23.7260 N.3   135  PHE135     -0.1241
     73  CA        15.4030   78.2210   22.7000 C.3   135  PHE135      0.1605
     74  C         15.8000   77.7760   21.2820 C.2   135  PHE135      0.2264
     75  O         15.0240   77.9060   20.3410 O.2   135  PHE135     -0.2867
     76  CB        15.8310   79.6670   22.9790 C.3   135  PHE135      0.0534
     77  CG        15.2860   80.7020   22.0010 C.ar  135  PHE135     -0.0203
     78  CD1       14.0570   81.3440   22.2490 C.ar  135  PHE135     -0.0042
     79  CD2       16.0280   81.0760   20.8740 C.ar  135  PHE135     -0.0042
     80  CE1       13.5560   82.3260   21.3630 C.ar  135  PHE135     -0.0003
     81  CE2       15.5460   82.0540   19.9760 C.ar  135  PHE135     -0.0003
     82  CZ        14.3120   82.6820   20.2190 C.ar  135  PHE135     -0.0000
@<TRIPOS>BOND
     1    42    40   ar
     2    42    44   ar
     3    40    39   ar
     4    44    43   ar
     5    37    36    2
     6    39    38    1
     7    39    41   ar
     8    43    41   ar
     9    35    36    1
    10    35    38    1
    11    35    34    1
    12    56    55    2
    13    64    63    2
    14    63    62    1
    15    55    54    1
    16    55    61   am
    17    62    61    1
    18    62    65    1
    19    57    54    1
    20    57    58    1
    21    54    53    1
    22    60    58   am
    23    58    59    2
    24    52    51    2
    25    65    66    1
    26    66    67    1
    27    53    51   am
    28    51    50    1
    29    67    68    1
    30    48    47    2
    31    50    49    1
    32    49    47   am
    33    47    46    1
    34    68    69    2
    35    29    28    2
    36    46    45    1
    37    70    69    1
    38    69    71    1
    39    81    82   ar
    40    81    79   ar
    41    28    27    1
    42    82    80   ar
    43    75    74    2
    44    30    31    1
    45    30    27    1
    46    79    77   ar
    47    32    31    1
    48    31    33    1
    49    27    26    1
    50    74    73    1
    51    80    78   ar
    52    77    78   ar
    53    77    76    1
    54     6     5    1
    55    73    76    1
    56    73    72    1
    57     5     2    1
    58     2     1    1
    59     2     3    1
    60     4     3    2
    61     3     7   am
    62     7     8    1
    63    13    12    2
    64     8     9    1
    65     8    11    1
    66    25    23   ar
    67    25    24   ar
    68    12    11    1
    69    12    14   am
    70    23    21   ar
    71    24    22   ar
    72     9    10    2
    73     9    15   am
    74    15    16    1
    75    21    20   ar
    76    22    20   ar
    77    20    19    1
    78    16    19    1
    79    16    17    1
    80    17    18    2
