@<TRIPOS>MOLECULE
tmp/3gagA01.pdb
 74 73 0 0 0
SMALL
GASTEIGER

@<TRIPOS>ATOM
      1  N         30.0110   11.1790   38.3190 N.3    36  TYR36      -0.1227
      2  CA        31.2280   10.5140   37.8260 C.3    36  TYR36       0.1736
      3  C         31.0640    9.0160   37.7590 C.2    36  TYR36       0.2595
      4  O         31.9770    8.3020   37.3100 O.2    36  TYR36      -0.2718
      5  CB        32.4440   10.8790   38.6560 C.3    36  TYR36       0.0548
      6  CG        32.7900   12.3630   38.6350 C.ar   36  TYR36      -0.0200
      7  CD1       32.4610   13.2040   37.5160 C.ar   36  TYR36      -0.0009
      8  CD2       33.5000   12.9370   39.6830 C.ar   36  TYR36      -0.0009
      9  CE1       32.7980   14.5450   37.5060 C.ar   36  TYR36       0.0417
     10  CE2       33.8280   14.2790   39.6640 C.ar   36  TYR36       0.0417
     11  CZ        33.4710   15.0800   38.6000 C.ar   36  TYR36       0.1957
     12  OH        33.8340   16.4240   38.5830 O.3    36  TYR36      -0.2866
     13  N         29.9090    8.5250   38.1840 N.am   37  ALA37      -0.1966
     14  CA        29.5610    7.1150   38.0440 C.3    37  ALA37       0.1713
     15  C         29.6650    6.6370   36.6020 C.2    37  ALA37       0.2458
     16  O         29.4740    7.4450   35.6810 O.2    37  ALA37      -0.2730
     17  CB        28.1170    6.8530   38.5250 C.3    37  ALA37       0.0333
     18  N         29.9890    5.3570   36.4070 N.am   38  PRO38      -0.2716
     19  CA        30.0890    4.8490   35.0550 C.3    38  PRO38       0.1536
     20  C         28.6690    4.5160   34.5760 C.2    38  PRO38       0.2599
     21  O         27.7550    4.4410   35.3890 O.2    38  PRO38      -0.2715
     22  CB        30.9260    3.5770   35.2350 C.3    38  PRO38       0.0310
     23  CG        30.5420    3.0820   36.6150 C.3    38  PRO38       0.0237
     24  CD        30.3370    4.3220   37.4130 C.3    38  PRO38       0.0939
     25  N         28.4830    4.4590   33.2760 N.am   39  SER39      -0.1936
     26  CA        27.2430    4.0710   32.6380 C.3    39  SER39       0.2055
     27  C         27.6540    3.5000   31.2570 C.2    39  SER39       0.2644
     28  O         28.7180    3.8510   30.7340 O.2    39  SER39      -0.2714
     29  CB        26.2880    5.2770   32.5230 C.3    39  SER39       0.2130
     30  OG        26.8590    6.3420   31.7520 O.3    39  SER39      -0.2179
     31  N         26.8540    2.5880   30.7040 N.am   40  GLY40      -0.1939
     32  CA        27.1320    1.9990   29.3800 C.3    40  GLY40       0.2014
     33  C         27.3050    3.0970   28.3770 C.2    40  GLY40       0.2639
     34  O         26.4410    3.9980   28.3020 O.2    40  GLY40      -0.2714
     35  N         28.4570    3.0830   27.6900 N.am   41  ASN41      -0.1958
     36  CA        28.8330    4.0200   26.6720 C.3    41  ASN41       0.1819
     37  C         28.7610    5.4700   27.1400 C.2    41  ASN41       0.2621
     38  O         28.6550    6.3740   26.3380 O.2    41  ASN41      -0.2715
     39  CB        27.9660    3.8330   25.4220 C.3    41  ASN41       0.1195
     40  CG        28.2500    2.5280   24.7110 C.2    41  ASN41       0.2630
     41  OD1       29.3050    2.3720   24.1050 O.2    41  ASN41      -0.2716
     42  ND2       27.3000    1.6060   24.7500 N.am   41  ASN41      -0.0877
     43  N         28.8520    5.6850   28.4520 N.am   42  ASN42      -0.1972
     44  CA        28.7680    7.0290   29.0050 C.3    42  ASN42       0.1688
     45  C         27.4680    7.7480   28.5870 C.2    42  ASN42       0.2292
     46  O         27.4650    8.9730   28.4730 O.2    42  ASN42      -0.2864
     47  CB        29.9960    7.8500   28.6260 C.3    42  ASN42       0.1181
     48  CG        30.1900    9.0720   29.4920 C.2    42  ASN42       0.2629
     49  OD1       29.8250    9.0830   30.6580 O.2    42  ASN42      -0.2716
     50  ND2       30.7350   10.1380   28.9050 N.am   42  ASN42      -0.0877
     51  N         20.2600   -0.4870   36.0030 N.3   131  LEU131     -0.1231
     52  CA        21.6820   -0.6530   36.2330 C.3   131  LEU131      0.1693
     53  C         22.4430    0.6840   36.2470 C.2   131  LEU131      0.2592
     54  O         23.1700    0.9960   37.1980 O.2   131  LEU131     -0.2718
     55  CB        22.2660   -1.6320   35.1900 C.3   131  LEU131      0.0284
     56  CG        23.7860   -1.9170   35.2470 C.3   131  LEU131      0.0019
     57  CD1       24.2260   -2.2760   36.7000 C.3   131  LEU131      0.0001
     58  CD2       24.1680   -3.0050   34.2630 C.3   131  LEU131      0.0001
     59  N         22.2760    1.4730   35.1840 N.am  132  ASP132     -0.1974
     60  CA        22.9930    2.7180   35.0380 C.3   132  ASP132      0.1709
     61  C         22.6780    3.6920   36.1970 C.2   132  ASP132      0.2293
     62  O         23.5880    4.3080   36.7880 O.2   132  ASP132     -0.2864
     63  CB        22.7030    3.3690   33.6630 C.3   132  ASP132      0.1436
     64  CG        23.4430    2.7080   32.4800 C.2   132  ASP132      0.3671
     65  OD1       24.5480    2.0760   32.6240 O.co2 132  ASP132     -0.2456
     66  OD2       22.8990    2.8330   31.3570 O.co2 132  ASP132     -0.2456
     67  N         24.0910    2.5200   39.5220 N.3   135  LEU135     -0.1245
     68  CA        25.4940    2.8730   39.7190 C.3   135  LEU135      0.1561
     69  C         25.5830    4.3180   40.2530 C.2   135  LEU135      0.2260
     70  O         26.3200    4.5810   41.2000 O.2   135  LEU135     -0.2867
     71  CB        26.2580    2.7230   38.3930 C.3   135  LEU135      0.0270
     72  CG        26.3500    1.2870   37.8790 C.3   135  LEU135      0.0019
     73  CD1       26.7060    1.1690   36.3540 C.3   135  LEU135      0.0001
     74  CD2       27.2990    0.4210   38.7550 C.3   135  LEU135      0.0001
@<TRIPOS>BOND
     1    41    40    2
     2    40    42   am
     3    40    39    1
     4    39    36    1
     5    38    37    2
     6    36    37    1
     7    36    35    1
     8    37    43   am
     9    35    33   am
    10    34    33    2
    11    33    32    1
    12    43    44    1
    13    46    45    2
    14    45    44    1
    15    47    44    1
    16    47    48    1
    17    50    48   am
    18    32    31    1
    19    48    49    2
    20    31    27   am
    21    28    27    2
    22    27    26    1
    23    66    64   ar
    24    30    29    1
    25    64    65   ar
    26    64    63    1
    27    29    26    1
    28    26    25    1
    29    25    20   am
    30    63    60    1
    31    58    56    1
    32    20    19    1
    33    20    21    2
    34    60    59    1
    35    60    61    1
    36    19    22    1
    37    19    18    1
    38    59    53   am
    39    55    56    1
    40    55    52    1
    41    22    23    1
    42    56    57    1
    43    16    15    2
    44    51    52    1
    45    61    62    2
    46    52    53    1
    47    53    54    2
    48    73    72    1
    49    18    15   am
    50    18    24    1
    51    15    14    1
    52    23    24    1
    53     4     3    2
    54     9     7   ar
    55     9    11   ar
    56     7     6   ar
    57     3     2    1
    58     3    13   am
    59     2     1    1
    60     2     5    1
    61    72    71    1
    62    72    74    1
    63    14    13    1
    64    14    17    1
    65    71    68    1
    66    12    11    1
    67    11    10   ar
    68     6     5    1
    69     6     8   ar
    70    67    68    1
    71    10     8   ar
    72    68    69    1
    73    69    70    2
