@<TRIPOS>MOLECULE
tmp/3gagA00.pdb
 126 118 0 0 0
SMALL
GASTEIGER

@<TRIPOS>ATOM
      1  N         28.5890    4.0100   54.8670 N.3    11  ARG11      -0.1231
      2  CA        27.2940    4.1600   54.1260 C.3    11  ARG11       0.1694
      3  C         26.3260    3.1450   54.7520 C.2    11  ARG11       0.2592
      4  O         26.5540    1.9400   54.7580 O.2    11  ARG11      -0.2718
      5  CB        27.5290    3.9360   52.6600 C.3    11  ARG11       0.0321
      6  CG        26.4700    4.4260   51.6640 C.3    11  ARG11       0.0489
      7  CD        25.1030    3.7560   51.7320 C.3    11  ARG11       0.2205
      8  NE        25.1840    2.3000   51.8870 N.pl3  11  ARG11      -0.0865
      9  CZ        24.2060    1.5880   52.4050 C.cat  11  ARG11       0.5346
     10  NH1       23.0830    2.2000   52.7960 N.pl3  11  ARG11       0.1354
     11  NH2       24.3620    0.2780   52.5670 N.pl3  11  ARG11       0.1354
     12  N         25.2430    3.6650   55.3360 N.am   12  VAL12      -0.1966
     13  CA        24.2480    2.8640   56.0150 C.3    12  VAL12       0.1727
     14  C         22.8500    3.5210   55.8780 C.2    12  VAL12       0.2616
     15  O         22.7640    4.6930   55.5980 O.2    12  VAL12      -0.2715
     16  CB        24.6370    2.8060   57.4750 C.3    12  VAL12       0.0290
     17  CG1       24.4350    4.1650   58.1250 C.3    12  VAL12       0.0023
     18  CG2       23.8730    1.7550   58.1640 C.3    12  VAL12       0.0023
     19  N         21.7620    2.7730   56.0340 N.am   13  SER13      -0.1950
     20  CA        20.4480    3.3980   55.9340 C.3    13  SER13       0.1924
     21  C         20.1500    4.1370   57.2270 C.2    13  SER13       0.2314
     22  O         20.1900    3.5420   58.3170 O.2    13  SER13      -0.2863
     23  CB        19.3550    2.3820   55.6060 C.3    13  SER13       0.2116
     24  OG        19.4250    1.9330   54.2540 O.3    13  SER13      -0.2180
     25  N         17.1720    6.4930   58.9900 N.3    15  ARG15      -0.1245
     26  CA        15.7600    6.8040   58.8230 C.3    15  ARG15       0.1563
     27  C         15.2560    7.8630   59.8420 C.2    15  ARG15       0.2260
     28  O         14.0980    8.2710   59.8150 O.2    15  ARG15      -0.2867
     29  CB        14.9450    5.5200   58.9010 C.3    15  ARG15       0.0307
     30  CG        15.2250    4.5450   57.7550 C.3    15  ARG15       0.0489
     31  CD        14.6280    3.2170   58.0070 C.3    15  ARG15       0.2205
     32  NE        14.9950    2.2450   56.9780 N.pl3  15  ARG15      -0.0865
     33  CZ        16.0000    1.3740   57.0720 C.cat  15  ARG15       0.5346
     34  NH1       16.8190    1.3630   58.1120 N.pl3  15  ARG15       0.1354
     35  NH2       16.2280    0.5320   56.0790 N.pl3  15  ARG15       0.1354
     36  N          6.3370    6.9250   55.8360 N.3    67  GLN67      -0.1245
     37  CA         7.6800    6.7000   56.3280 C.3    67  GLN67       0.1566
     38  C          8.2140    8.0930   56.7060 C.2    67  GLN67       0.2260
     39  O          8.3230    8.9930   55.8640 O.2    67  GLN67      -0.2867
     40  CB         8.5310    5.9790   55.2940 C.3    67  GLN67       0.0367
     41  CG         8.1530    4.5240   55.0980 C.3    67  GLN67       0.0905
     42  CD         9.0300    3.8080   54.0830 C.2    67  GLN67       0.2608
     43  OE1       10.1840    3.4600   54.3860 O.2    67  GLN67      -0.2717
     44  NE2        8.4990    3.5890   52.8670 N.am   67  GLN67      -0.0878
     45  N         11.0640    9.5380   57.4560 N.3    69  GLN69      -0.1245
     46  CA        12.2970   10.0850   56.9250 C.3    69  GLN69       0.1566
     47  C         12.0580   10.9840   55.7080 C.2    69  GLN69       0.2260
     48  O         12.8520   11.8770   55.4220 O.2    69  GLN69      -0.2867
     49  CB        13.3130    8.9820   56.5930 C.3    69  GLN69       0.0367
     50  CG        12.8930    8.0130   55.5360 C.3    69  GLN69       0.0905
     51  CD        12.2260    6.7530   56.0300 C.2    69  GLN69       0.2608
     52  OE1       11.5860    6.7350   57.0810 O.2    69  GLN69      -0.2717
     53  NE2       12.3360    5.6800   55.2270 N.am   69  GLN69      -0.0878
     54  N         18.7950    7.1900   52.9700 N.3   150  VAL150     -0.1231
     55  CA        18.1680    5.8430   52.9240 C.3   150  VAL150      0.1678
     56  C         17.5560    5.6510   51.5310 C.2   150  VAL150      0.2434
     57  O         16.7030    6.4350   51.1240 O.2   150  VAL150     -0.2733
     58  CB        17.1420    5.5710   54.0720 C.3   150  VAL150      0.0265
     59  CG1       16.0680    6.6890   54.2280 C.3   150  VAL150      0.0020
     60  CG2       16.4980    4.1730   53.9030 C.3   150  VAL150      0.0020
     61  N         17.9750    4.6270   50.7960 N.am  151  PRO151     -0.2729
     62  CA        17.3400    4.4410   49.4990 C.3   151  PRO151      0.1401
     63  C         15.9540    3.8270   49.6350 C.2   151  PRO151      0.2269
     64  O         15.7480    2.9510   50.4950 O.2   151  PRO151     -0.2865
     65  CB        18.2550    3.4700   48.7930 C.3   151  PRO151      0.0296
     66  CG        18.9700    2.7110   49.8950 C.3   151  PRO151      0.0237
     67  CD        19.0010    3.6040   51.0940 C.3   151  PRO151      0.0939
     68  N         12.2000    2.3780   47.5380 N.3   152  ARG152     -0.1231
     69  CA        11.1620    2.0820   46.5310 C.3   152  ARG152      0.1694
     70  C          9.7830    1.7710   47.1620 C.2   152  ARG152      0.2593
     71  O          8.8150    1.6190   46.4120 O.2   152  ARG152     -0.2718
     72  CB        11.5740    0.9340   45.5890 C.3   152  ARG152      0.0321
     73  CG        12.7000    1.3430   44.6430 C.3   152  ARG152      0.0489
     74  CD        12.8900    0.3720   43.4640 C.3   152  ARG152      0.2205
     75  NE        11.6210    0.1150   42.7850 N.pl3 152  ARG152     -0.0865
     76  CZ        11.1210    0.8340   41.7910 C.cat 152  ARG152      0.5346
     77  NH1       11.7470    1.8980   41.3240 N.pl3 152  ARG152      0.1354
     78  NH2        9.9710    0.4960   41.2570 N.pl3 152  ARG152      0.1354
     79  N          9.6670    1.6990   48.5040 N.am  153  GLY153     -0.1942
     80  CA         8.3490    1.4150   49.1710 C.3   153  GLY153      0.2014
     81  C          7.4280    2.6430   49.2180 C.2   153  GLY153      0.2638
     82  O          6.9420    3.0710   50.2810 O.2   153  GLY153     -0.2714
     83  N          7.1610    3.1740   48.0280 N.am  154  VAL154     -0.1977
     84  CA         6.4330    4.4110   47.8490 C.3   154  VAL154      0.1596
     85  C          5.5620    4.2780   46.5950 C.2   154  VAL154      0.2287
     86  O          5.7250    3.3330   45.8100 O.2   154  VAL154     -0.2864
     87  CB         7.4230    5.5620   47.6610 C.3   154  VAL154      0.0276
     88  CG1        8.5280    5.5090   48.7360 C.3   154  VAL154      0.0022
     89  CG2        8.0460    5.5020   46.2820 C.3   154  VAL154      0.0022
     90  N         14.6730    5.3880   42.2370 N.3   172  LEU172     -0.1245
     91  CA        14.8660    5.3660   43.6710 C.3   172  LEU172      0.1561
     92  C         14.5790    6.7590   44.2420 C.2   172  LEU172      0.2260
     93  O         14.8630    7.7800   43.5760 O.2   172  LEU172     -0.2867
     94  CB        16.3210    4.9560   43.9460 C.3   172  LEU172      0.0270
     95  CG        16.7230    4.0690   45.0930 C.3   172  LEU172      0.0019
     96  CD1       15.9600    2.7870   45.1160 C.3   172  LEU172      0.0001
     97  CD2       18.2060    3.8130   44.9570 C.3   172  LEU172      0.0001
     98  N         22.5780    0.9510   61.5790 N.3   183  ASN183     -0.1240
     99  CA        23.0160   -0.3020   62.1710 C.3   183  ASN183      0.1653
    100  C         24.2220   -0.9230   61.5070 C.2   183  ASN183      0.2266
    101  O         24.4690   -0.6920   60.3310 O.2   183  ASN183     -0.2867
    102  CB        21.8760   -1.2870   62.1160 C.3   183  ASN183      0.1155
    103  CG        20.7410   -0.8720   62.9670 C.2   183  ASN183      0.2627
    104  OD1       20.9340   -0.3440   64.0780 O.2   183  ASN183     -0.2716
    105  ND2       19.5260   -1.0990   62.4750 N.am  183  ASN183     -0.0877
    106  N         26.0190   -3.5200   59.3370 N.3   185  HIS185     -0.1241
    107  CA        25.4490   -4.1970   58.2030 C.3   185  HIS185      0.1621
    108  C         25.3310   -5.6660   58.5200 C.2   185  HIS185      0.2264
    109  O         26.3100   -6.2650   59.0400 O.2   185  HIS185     -0.2867
    110  CB        26.3300   -4.0410   56.9820 C.3   185  HIS185      0.0745
    111  CG        26.5920   -2.6350   56.5710 C.ar  185  HIS185      0.0817
    112  ND1       25.6450   -1.8570   55.9400 N.ar  185  HIS185     -0.2268
    113  CD2       27.7220   -1.8820   56.6320 C.ar  185  HIS185      0.1154
    114  CE1       26.1790   -0.6890   55.6230 C.ar  185  HIS185      0.1986
    115  NE2       27.4330   -0.6690   56.0500 N.ar  185  HIS185     -0.2212
    116  N         24.7320   -9.2160   56.7620 N.3   187  ARG187     -0.1245
    117  CA        24.8150   -9.7230   55.4040 C.3   187  ARG187      0.1563
    118  C         25.1650  -11.2200   55.4220 C.2   187  ARG187      0.2260
    119  O         25.7300  -11.7460   56.3790 O.2   187  ARG187     -0.2867
    120  CB        25.9300   -8.9780   54.6660 C.3   187  ARG187      0.0307
    121  CG        25.6600   -7.5070   54.3320 C.3   187  ARG187      0.0489
    122  CD        24.4590   -7.3100   53.4770 C.3   187  ARG187      0.2205
    123  NE        24.3690   -5.8870   53.1060 N.pl3 187  ARG187     -0.0865
    124  CZ        23.7900   -4.9670   53.8540 C.cat 187  ARG187      0.5346
    125  NH1       23.2030   -5.2570   55.0030 N.pl3 187  ARG187      0.1354
    126  NH2       23.8170   -3.7180   53.4490 N.pl3 187  ARG187      0.1354
@<TRIPOS>BOND
     1    78    76    1
     2    77    76    1
     3    76    75    2
     4    90    91    1
     5    75    74    1
     6    74    73    1
     7    93    92    2
     8    91    94    1
     9    91    92    1
    10    94    95    1
    11    73    72    1
    12    97    95    1
    13    95    96    1
    14    72    69    1
    15    86    85    2
    16    89    87    1
    17    71    70    2
    18    69    70    1
    19    69    68    1
    20    85    84    1
    21    70    79   am
    22    87    84    1
    23    87    88    1
    24    84    83    1
    25    83    81   am
    26    79    80    1
    27    65    62    1
    28    65    66    1
    29    80    81    1
    30    81    82    2
    31    62    63    1
    32    62    61    1
    33    63    64    2
    34    66    67    1
    35    61    67    1
    36    61    56   am
    37    57    56    2
    38    56    55    1
    39     6     7    1
    40     6     5    1
    41     7     8    1
    42     8     9    2
    43     9    11    1
    44     9    10    1
    45     5     2    1
    46    44    42   am
    47    55    54    1
    48    55    58    1
    49   123   122    1
    50   123   124    2
    51   126   124    1
    52   122   121    1
    53   124   125    1
    54    60    58    1
    55    58    59    1
    56    42    43    2
    57    42    41    1
    58     2     3    1
    59     2     1    1
    60    24    23    1
    61   121   120    1
    62   120   117    1
    63     3     4    2
    64     3    12   am
    65    41    40    1
    66    53    51   am
    67    40    37    1
    68    12    13    1
    69   117   118    1
    70   117   116    1
    71    48    47    2
    72   118   119    2
    73    50    51    1
    74    50    49    1
    75    15    14    2
    76    23    20    1
    77   114   112   ar
    78   114   115   ar
    79    47    46    1
    80    36    37    1
    81    39    38    2
    82    14    13    1
    83    14    19   am
    84    20    19    1
    85    20    21    1
    86   112   111   ar
    87    13    16    1
    88    51    52    2
    89   115   113   ar
    90    35    33    1
    91    37    38    1
    92   111   113   ar
    93   111   110    1
    94    49    46    1
    95    46    45    1
    96    32    33    2
    97    32    31    1
    98   110   107    1
    99    33    34    1
   100    21    22    2
   101    16    17    1
   102    16    18    1
   103    30    31    1
   104    30    29    1
   105   107   108    1
   106   107   106    1
   107   108   109    2
   108    26    29    1
   109    26    25    1
   110    26    27    1
   111    28    27    2
   112   101   100    2
   113   100    99    1
   114    98    99    1
   115   102    99    1
   116   102   103    1
   117   105   103   am
   118   103   104    2
