@<TRIPOS>MOLECULE
tmp/3gahA01.pdb
 143 137 0 0 0
SMALL
GASTEIGER

@<TRIPOS>ATOM
      1  N         25.2750  -13.7510  -29.1900 N.3     1  LYS1       -0.1231
      2  CA        25.1210  -12.2920  -29.4780 C.3     1  LYS1        0.1693
      3  C         23.8830  -12.1240  -30.3690 C.2     1  LYS1        0.2591
      4  O         23.8390  -12.5930  -31.5100 O.2     1  LYS1       -0.2718
      5  CB        26.3640  -11.7910  -30.1390 C.3     1  LYS1        0.0285
      6  CG        26.2900  -10.4400  -30.6220 C.3     1  LYS1        0.0035
      7  CD        27.6570   -9.9310  -31.0490 C.3     1  LYS1        0.0206
      8  CE        28.4870   -9.6900  -29.8520 C.3     1  LYS1        0.1093
      9  NZ        29.6770   -8.8650  -30.1860 N.3     1  LYS1       -0.1314
     10  N         22.8430  -11.4730  -29.8210 N.am    2  ILE2       -0.1980
     11  CA        21.5720  -11.4230  -30.5190 C.3     2  ILE2        0.1595
     12  C         21.5880  -10.4820  -31.6960 C.2     2  ILE2        0.2287
     13  O         20.7340  -10.5940  -32.5970 O.2     2  ILE2       -0.2864
     14  CB        20.4370  -11.0920  -29.5620 C.3     2  ILE2        0.0276
     15  CG1       20.6040   -9.6830  -28.9410 C.3     2  ILE2        0.0022
     16  CG2       20.2620  -12.1890  -28.5110 C.3     2  ILE2        0.0022
     17  CD1       19.4330   -9.2840  -28.0560 C.3     2  ILE2        0.0001
     18  N         23.1160   -9.4700  -35.0460 N.3     4  THR4       -0.1218
     19  CA        23.9480   -9.9770  -36.1340 C.3     4  THR4        0.1862
     20  C         24.3400   -8.8560  -37.0740 C.2     4  THR4        0.2287
     21  O         25.3400   -8.9670  -37.8280 O.2     4  THR4       -0.2866
     22  CB        23.2320  -11.0890  -36.9320 C.3     4  THR4        0.1770
     23  OG1       22.2340  -10.5120  -37.7700 O.3     4  THR4       -0.2211
     24  CG2       22.7090  -12.1800  -36.0360 C.3     4  THR4        0.0375
     25  N         22.8620   -8.1930  -39.7150 N.3     6  ASN6       -0.1240
     26  CA        22.4200   -8.5620  -41.0720 C.3     6  ASN6        0.1653
     27  C         21.1960   -7.7990  -41.4910 C.2     6  ASN6        0.2266
     28  O         20.9290   -7.6620  -42.6750 O.2     6  ASN6       -0.2867
     29  CB        22.2150  -10.0460  -41.2140 C.3     6  ASN6        0.1155
     30  CG        23.5240  -10.8060  -41.1180 C.2     6  ASN6        0.2627
     31  OD1       24.5410  -10.3440  -41.6040 O.2     6  ASN6       -0.2716
     32  ND2       23.5140  -11.8830  -40.3470 N.am    6  ASN6       -0.0877
     33  N         15.6320   -9.0300  -44.1480 N.3    12  THR12      -0.1203
     34  CA        15.6590  -10.0460  -43.1230 C.3    12  THR12       0.1994
     35  C         15.2330  -11.3720  -43.7210 C.2    12  THR12       0.2618
     36  O         14.8610  -11.3870  -44.8950 O.2    12  THR12      -0.2717
     37  CB        14.7220   -9.5950  -41.9550 C.3    12  THR12       0.1784
     38  OG1       14.9780  -10.3640  -40.8190 O.3    12  THR12      -0.2211
     39  CG2       13.2030   -9.6670  -42.3080 C.3    12  THR12       0.0376
     40  N         15.2540  -12.4030  -42.9530 N.am   13  ARG13      -0.1965
     41  CA        14.9240  -13.7500  -43.4600 C.3    13  ARG13       0.1729
     42  C         13.6820  -14.3370  -42.8420 C.2    13  ARG13       0.2616
     43  O         13.4550  -14.1110  -41.6250 O.2    13  ARG13      -0.2715
     44  CB        16.0250  -14.7720  -43.2360 C.3    13  ARG13       0.0348
     45  CG        17.4010  -14.4270  -43.7710 C.3    13  ARG13       0.0492
     46  CD        18.3280  -15.6470  -43.5380 C.3    13  ARG13       0.2205
     47  NE        19.7200  -15.3710  -43.9080 N.pl3  13  ARG13      -0.0865
     48  CZ        20.2360  -15.4690  -45.1550 C.cat  13  ARG13       0.5346
     49  NH1       19.5400  -15.8080  -46.2710 N.pl3  13  ARG13       0.1354
     50  NH2       21.5310  -15.1590  -45.2690 N.pl3  13  ARG13       0.1354
     51  N         12.9370  -15.1110  -43.6060 N.am   14  ILE14      -0.1963
     52  CA        11.8010  -15.8280  -43.1250 C.3    14  ILE14       0.1727
     53  C         12.1820  -17.2910  -42.9240 C.2    14  ILE14       0.2616
     54  O         13.3840  -17.6700  -43.0810 O.2    14  ILE14      -0.2715
     55  CB        10.6080  -15.6630  -44.0200 C.3    14  ILE14       0.0290
     56  CG1       10.8260  -16.2660  -45.4220 C.3    14  ILE14       0.0022
     57  CG2       10.2380  -14.1850  -44.0520 C.3    14  ILE14       0.0023
     58  CD1        9.5640  -16.2940  -46.2300 C.3    14  ILE14       0.0001
     59  N         11.2360  -18.1510  -42.5510 N.am   15  ILE15      -0.1963
     60  CA        11.5370  -19.5750  -42.4540 C.3    15  ILE15       0.1727
     61  C         11.8950  -20.1260  -43.8610 C.2    15  ILE15       0.2617
     62  O         11.2600  -19.8310  -44.8270 O.2    15  ILE15      -0.2715
     63  CB        10.3900  -20.3170  -41.7690 C.3    15  ILE15       0.0290
     64  CG1       10.4110  -19.8950  -40.2590 C.3    15  ILE15       0.0022
     65  CG2       10.4680  -21.8590  -42.0010 C.3    15  ILE15       0.0023
     66  CD1        9.2460  -20.4850  -39.4540 C.3    15  ILE15       0.0001
     67  N         12.9730  -20.9290  -43.9000 N.am   16  GLY16      -0.1940
     68  CA        13.5720  -21.3370  -45.1790 C.3    16  GLY16       0.2014
     69  C         14.6580  -20.4180  -45.6200 C.2    16  GLY16       0.2638
     70  O         15.3600  -20.7190  -46.6340 O.2    16  GLY16      -0.2714
     71  N         14.8570  -19.2890  -44.9710 N.am   17  LYS17      -0.1977
     72  CA        15.9560  -18.3390  -45.1890 C.3    17  LYS17       0.1596
     73  C         15.8500  -17.4110  -46.3360 C.2    17  LYS17       0.2287
     74  O         16.7850  -16.6180  -46.4940 O.2    17  LYS17      -0.2864
     75  CB        17.3630  -19.0300  -45.1320 C.3    17  LYS17       0.0298
     76  CG        17.4560  -19.8530  -43.8530 C.3    17  LYS17       0.0038
     77  CD        18.8440  -20.2140  -43.3430 C.3    17  LYS17       0.0206
     78  CE        18.6860  -20.7610  -41.9150 C.3    17  LYS17       0.1093
     79  NZ        17.9400  -22.0280  -41.8810 N.3    17  LYS17      -0.1314
     80  N          3.5360  -11.3680  -39.3360 N.3    30  TYR30      -0.1227
     81  CA         3.9780  -12.0120  -38.1030 C.3    30  TYR30       0.1736
     82  C          4.5980  -10.9970  -37.1390 C.2    30  TYR30       0.2596
     83  O          4.5890  -11.2550  -35.9340 O.2    30  TYR30      -0.2718
     84  CB         4.8280  -13.2800  -38.3260 C.3    30  TYR30       0.0548
     85  CG         6.1260  -13.1070  -39.0540 C.ar   30  TYR30      -0.0200
     86  CD1        7.2880  -12.8360  -38.3210 C.ar   30  TYR30      -0.0009
     87  CD2        6.2850  -13.4030  -40.4010 C.ar   30  TYR30      -0.0009
     88  CE1        8.5300  -12.7680  -38.9630 C.ar   30  TYR30       0.0417
     89  CE2        7.5100  -13.3240  -41.0350 C.ar   30  TYR30       0.0417
     90  CZ         8.6270  -12.9840  -40.3150 C.ar   30  TYR30       0.1957
     91  OH         9.8540  -12.9410  -40.9520 O.3    30  TYR30      -0.2866
     92  N          5.0410   -9.8570  -37.6290 N.am   31  GLY31      -0.1957
     93  CA         5.4470   -8.7810  -36.7340 C.3    31  GLY31       0.1869
     94  C          4.2830   -8.2940  -35.9120 C.2    31  GLY31       0.2309
     95  O          4.4530   -8.0170  -34.6750 O.2    31  GLY31      -0.2863
     96  N          3.6350  -10.7140  -33.2120 N.3    34  ASP34      -0.1239
     97  CA         4.5880  -10.5590  -32.0970 C.3    34  ASP34       0.1674
     98  C          4.2090   -9.4010  -31.2060 C.2    34  ASP34       0.2266
     99  O          4.3040   -9.4940  -29.9660 O.2    34  ASP34      -0.2867
    100  CB         5.9850  -10.3850  -32.7400 C.3    34  ASP34       0.1410
    101  CG         7.1320  -10.3490  -31.7570 C.2    34  ASP34       0.3668
    102  OD1        7.0190  -10.9040  -30.6170 O.co2  34  ASP34      -0.2456
    103  OD2        8.1960   -9.8030  -32.1010 O.co2  34  ASP34      -0.2456
    104  N          2.8190  -17.8730  -30.7940 N.3    66  PHE66      -0.1241
    105  CA         4.0700  -18.2840  -31.3940 C.3    66  PHE66       0.1605
    106  C          3.8280  -19.3120  -32.4780 C.2    66  PHE66       0.2264
    107  O          4.4890  -19.2520  -33.5460 O.2    66  PHE66      -0.2867
    108  CB         5.0300  -18.8670  -30.3400 C.3    66  PHE66       0.0534
    109  CG         5.9680  -17.8990  -29.7700 C.ar   66  PHE66      -0.0203
    110  CD1        5.8870  -17.5540  -28.4560 C.ar   66  PHE66      -0.0042
    111  CD2        7.0330  -17.4360  -30.5130 C.ar   66  PHE66      -0.0042
    112  CE1        6.8060  -16.6750  -27.8690 C.ar   66  PHE66      -0.0003
    113  CE2        8.0030  -16.5210  -29.8970 C.ar   66  PHE66      -0.0003
    114  CZ         7.8370  -16.1450  -28.5690 C.ar   66  PHE66      -0.0000
    115  N          2.5280  -17.3430  -35.4830 N.3    69  GLY69      -0.1210
    116  CA         3.5750  -16.5690  -36.1480 C.3    69  GLY69       0.1956
    117  C          4.5370  -17.4620  -36.9310 C.2    69  GLY69       0.2611
    118  O          4.9750  -17.0850  -38.0390 O.2    69  GLY69      -0.2717
    119  N          4.8600  -18.6060  -36.3860 N.am   70  HIS70      -0.1975
    120  CA         5.7300  -19.5710  -37.1110 C.3    70  HIS70       0.1656
    121  C          5.1250  -19.8830  -38.4410 C.2    70  HIS70       0.2291
    122  O          5.8300  -19.8800  -39.4700 O.2    70  HIS70      -0.2864
    123  CB         5.8820  -20.8310  -36.2490 C.3    70  HIS70       0.0771
    124  CG         6.3260  -22.0800  -37.0180 C.ar   70  HIS70       0.0820
    125  ND1        7.5790  -22.6430  -36.9500 N.ar   70  HIS70      -0.2267
    126  CD2        5.6130  -22.8800  -37.8500 C.ar   70  HIS70       0.1154
    127  CE1        7.6190  -23.6980  -37.7550 C.ar   70  HIS70       0.1986
    128  NE2        6.4340  -23.8770  -38.2880 N.ar   70  HIS70      -0.2212
    129  N          5.3170  -17.1040  -40.9550 N.3    73  ALA73      -0.1245
    130  CA         6.6970  -16.9480  -41.4300 C.3    73  ALA73       0.1562
    131  C          7.0970  -18.0650  -42.4030 C.2    73  ALA73       0.2260
    132  O          8.2230  -18.0150  -42.9530 O.2    73  ALA73      -0.2867
    133  CB         7.6430  -16.8690  -40.2850 C.3    73  ALA73       0.0290
    134  N          9.3780  -27.0780  -45.1440 N.3    81  HIS81      -0.1241
    135  CA         8.8640  -26.3920  -43.9350 C.3    81  HIS81       0.1621
    136  C          7.3670  -26.4610  -43.9400 C.2    81  HIS81       0.2264
    137  O          6.7430  -25.8310  -44.7500 O.2    81  HIS81      -0.2867
    138  CB         9.3600  -24.9450  -43.9160 C.3    81  HIS81       0.0745
    139  CG        10.8330  -24.8610  -43.8290 C.ar   81  HIS81       0.0817
    140  ND1       11.5030  -25.1320  -42.6700 N.ar   81  HIS81      -0.2268
    141  CD2       11.7650  -24.5800  -44.7800 C.ar   81  HIS81       0.1154
    142  CE1       12.8040  -25.0120  -42.9020 C.ar   81  HIS81       0.1986
    143  NE2       12.9810  -24.6560  -44.1650 N.ar   81  HIS81      -0.2212
@<TRIPOS>BOND
     1    70    69    2
     2    74    73    2
     3    73    72    1
     4    49    48    1
     5    58    56    1
     6    69    68    1
     7    69    71   am
     8    56    55    1
     9    50    48    1
    10    72    75    1
    11    72    71    1
    12    68    67    1
    13    48    47    2
    14   134   135    1
    15    75    76    1
    16    36    35    2
    17    62    61    2
    18   141   143   ar
    19   141   139   ar
    20   137   136    2
    21   143   142   ar
    22    33    34    1
    23    57    55    1
    24    55    52    1
    25   136   135    1
    26   135   138    1
    27   138   139    1
    28    47    46    1
    29    67    61   am
    30    61    60    1
    31    76    77    1
    32   139   140   ar
    33    45    46    1
    34    45    44    1
    35    35    34    1
    36    35    40   am
    37    51    52    1
    38    51    42   am
    39    41    44    1
    40    41    40    1
    41    41    42    1
    42    77    78    1
    43    52    53    1
    44    34    37    1
    45    54    53    2
    46   132   131    2
    47    53    59   am
    48   142   140   ar
    49    42    43    2
    50    28    27    2
    51    59    60    1
    52    60    63    1
    53   131   130    1
    54    39    37    1
    55    65    63    1
    56    37    38    1
    57    78    79    1
    58    63    64    1
    59    31    30    2
    60    27    26    1
    61   130   129    1
    62   130   133    1
    63    29    30    1
    64    29    26    1
    65    30    32   am
    66    26    25    1
    67    89    87   ar
    68    89    90   ar
    69    91    90    1
    70    87    85   ar
    71    90    88   ar
    72    64    66    1
    73   122   121    2
    74    80    81    1
    75    85    84    1
    76    85    86   ar
    77    88    86   ar
    78   121   120    1
    79    84    81    1
    80   128   126   ar
    81   128   127   ar
    82    81    82    1
    83   118   117    2
    84   126   124   ar
    85    21    20    2
    86    23    22    1
    87   127   125   ar
    88    92    82   am
    89    92    93    1
    90    82    83    2
    91   120   119    1
    92   120   123    1
    93    20    19    1
    94   124   125   ar
    95   124   123    1
    96    22    19    1
    97    22    24    1
    98   117   119   am
    99   117   116    1
   100    93    94    1
   101   116   115    1
   102    19    18    1
   103    94    95    2
   104   107   106    2
   105    96    97    1
   106   100    97    1
   107   100   101    1
   108    13    12    2
   109   106   105    1
   110   103   101   ar
   111    97    98    1
   112   101   102   ar
   113    12    11    1
   114     4     3    2
   115   105   104    1
   116   105   108    1
   117    98    99    2
   118     7     6    1
   119     7     8    1
   120     6     5    1
   121    11    10    1
   122    11    14    1
   123   111   113   ar
   124   111   109   ar
   125     3    10   am
   126     3     2    1
   127   108   109    1
   128     9     8    1
   129     5     2    1
   130   113   114   ar
   131   109   110   ar
   132    14    15    1
   133    14    16    1
   134     2     1    1
   135    15    17    1
   136   114   112   ar
   137   110   112   ar
