@<TRIPOS>MOLECULE
tmp/3gaiA01.pdb
 122 117 0 0 0
SMALL
GASTEIGER

@<TRIPOS>ATOM
      1  N         19.6420   18.6330   22.4130 N.3   108  VAL108     -0.1231
      2  CA        18.6380   19.4720   23.0500 C.3   108  VAL108      0.1692
      3  C         19.0740   19.8570   24.4570 C.2   108  VAL108      0.2592
      4  O         19.8420   19.1250   25.1090 O.2   108  VAL108     -0.2718
      5  CB        17.2120   18.7970   23.0730 C.3   108  VAL108      0.0266
      6  CG1       16.7140   18.4710   21.6740 C.3   108  VAL108      0.0020
      7  CG2       17.1780   17.5480   23.9600 C.3   108  VAL108      0.0020
      8  N         18.5660   21.0020   24.9040 N.am  109  LYS109     -0.1966
      9  CA        18.7730   21.5290   26.2280 C.3   109  LYS109      0.1728
     10  C         17.4520   21.6680   26.9890 C.2   109  LYS109      0.2616
     11  O         17.4420   22.1740   28.1090 O.2   109  LYS109     -0.2715
     12  CB        19.4620   22.9070   26.1420 C.3   109  LYS109      0.0311
     13  CG        20.9130   22.8230   25.6700 C.3   109  LYS109      0.0038
     14  CD        21.4450   24.1740   25.2920 C.3   109  LYS109      0.0206
     15  CE        20.7320   24.7200   24.0730 C.3   109  LYS109      0.1093
     16  NZ        20.9510   23.8840   22.8710 N.3   109  LYS109     -0.1314
     17  N         16.3510   21.2310   26.3840 N.am  110  LYS110     -0.1963
     18  CA        15.0160   21.3320   26.9540 C.3   110  LYS110      0.1728
     19  C         14.4260   19.9290   26.9520 C.2   110  LYS110      0.2616
     20  O         14.8900   19.0700   26.2070 O.2   110  LYS110     -0.2715
     21  CB        14.1180   22.2630   26.1280 C.3   110  LYS110      0.0311
     22  CG        14.5060   23.7500   26.2930 C.3   110  LYS110      0.0038
     23  CD        13.6170   24.6330   25.4150 C.3   110  LYS110      0.0206
     24  CE        13.5790   26.0770   25.8990 C.3   110  LYS110      0.1093
     25  NZ        14.8950   26.5610   26.4430 N.3   110  LYS110     -0.1314
     26  N         13.4170   19.7100   27.7790 N.am  111  ALA111     -0.1963
     27  CA        12.6600   18.4480   27.6830 C.3   111  ALA111      0.1728
     28  C         11.9670   18.3130   26.3550 C.2   111  ALA111      0.2616
     29  O         11.5270   19.3200   25.7590 O.2   111  ALA111     -0.2715
     30  CB        11.6530   18.3760   28.7950 C.3   111  ALA111      0.0334
     31  N         11.8690   17.0940   25.8590 N.am  112  ILE112     -0.1977
     32  CA        11.1090   16.7990   24.6360 C.3   112  ILE112      0.1596
     33  C          9.7510   16.1750   24.9530 C.2   112  ILE112      0.2287
     34  O          9.6000   15.4790   25.9900 O.2   112  ILE112     -0.2864
     35  CB        11.8760   15.8870   23.6490 C.3   112  ILE112      0.0276
     36  CG1       12.1930   14.5240   24.2500 C.3   112  ILE112      0.0022
     37  CG2       13.1730   16.5610   23.1800 C.3   112  ILE112      0.0022
     38  CD1       12.6750   13.4880   23.2260 C.3   112  ILE112      0.0001
     39  N          7.2500   13.2670   24.5190 N.3   114  PRO114     -0.2116
     40  CA         7.4550   11.8840   24.1400 C.3   114  PRO114      0.1372
     41  C          6.5130   11.5130   22.9920 C.2   114  PRO114      0.2244
     42  O          5.3140   11.3170   23.1940 O.2   114  PRO114     -0.2868
     43  CB         7.0990   11.1270   25.4250 C.3   114  PRO114      0.0268
     44  CG         6.0870   11.9780   26.0910 C.3   114  PRO114      0.0207
     45  CD         6.5060   13.4230   25.7770 C.3   114  PRO114      0.0892
     46  N          9.2050    5.4820   23.8430 N.3   124  HIS124     -0.1241
     47  CA         8.8170    6.2610   25.0280 C.3   124  HIS124      0.1621
     48  C          7.8340    5.5350   25.9190 C.2   124  HIS124      0.2264
     49  O          7.9400    5.6330   27.1620 O.2   124  HIS124     -0.2867
     50  CB         8.2330    7.6160   24.6340 C.3   124  HIS124      0.0745
     51  CG         9.2730    8.6020   24.2410 C.ar  124  HIS124      0.0817
     52  ND1       10.2220    9.0790   25.1240 N.ar  124  HIS124     -0.2268
     53  CD2        9.5200    9.1970   23.0470 C.ar  124  HIS124      0.1154
     54  CE1       11.0140    9.9330   24.4860 C.ar  124  HIS124      0.1986
     55  NE2       10.5900   10.0380   23.2300 N.ar  124  HIS124     -0.2212
     56  N          9.9880    3.3040   27.7840 N.3   127  ARG127     -0.1245
     57  CA        10.7070    4.0510   28.7880 C.3   127  ARG127      0.1563
     58  C          9.8710    4.1900   30.0620 C.2   127  ARG127      0.2260
     59  O         10.3710    3.9370   31.1670 O.2   127  ARG127     -0.2867
     60  CB        10.9910    5.4330   28.1950 C.3   127  ARG127      0.0307
     61  CG        11.7300    6.4110   29.1060 C.3   127  ARG127      0.0489
     62  CD        11.8770    7.8200   28.4150 C.3   127  ARG127      0.2205
     63  NE        10.6070    8.4620   28.1070 N.pl3 127  ARG127     -0.0865
     64  CZ         9.8730    9.1160   29.0160 C.cat 127  ARG127      0.5346
     65  NH1       10.2980    9.2790   30.2820 N.pl3 127  ARG127      0.1354
     66  NH2        8.6820    9.6060   28.6820 N.pl3 127  ARG127      0.1354
     67  N         10.1570    2.3980   33.8910 N.3   131  ARG131     -0.1245
     68  CA        10.1960    3.1870   35.1240 C.3   131  ARG131      0.1563
     69  C          9.1160    2.7540   36.1110 C.2   131  ARG131      0.2260
     70  O          9.3590    2.7690   37.3360 O.2   131  ARG131     -0.2867
     71  CB        10.1150    4.6690   34.7740 C.3   131  ARG131      0.0307
     72  CG        11.3860    5.1070   34.0630 C.3   131  ARG131      0.0489
     73  CD        11.2160    6.3460   33.1990 C.3   131  ARG131      0.2205
     74  NE        11.1840    7.5550   34.0100 N.pl3 131  ARG131     -0.0865
     75  CZ        12.3070    8.1020   34.5480 C.cat 131  ARG131      0.5346
     76  NH1       13.5150    7.5390   34.3580 N.pl3 131  ARG131      0.1354
     77  NH2       12.1840    9.1910   35.2600 N.pl3 131  ARG131      0.1354
     78  N         15.8080    2.5990   31.2210 N.3   158  SER158     -0.1202
     79  CA        14.8830    3.6490   30.7980 C.3   158  SER158      0.2020
     80  C         15.6320    4.8380   30.1760 C.2   158  SER158      0.2618
     81  O         15.0310    5.5200   29.3270 O.2   158  SER158     -0.2717
     82  CB        13.9060    4.0840   31.8890 C.3   158  SER158      0.2103
     83  OG        14.5560    4.8070   32.9440 O.3   158  SER158     -0.2182
     84  N         16.9110    5.0350   30.5340 N.am  159  ASP159     -0.1973
     85  CA        17.7070    6.0120   29.8070 C.3   159  ASP159      0.1709
     86  C         17.9960    5.4730   28.3870 C.2   159  ASP159      0.2293
     87  O         17.9600    6.2410   27.4080 O.2   159  ASP159     -0.2864
     88  CB        19.0150    6.2730   30.5210 C.3   159  ASP159      0.1436
     89  CG        18.8580    7.1060   31.7720 C.2   159  ASP159      0.3671
     90  OD1       17.7770    7.7010   32.0650 O.co2 159  ASP159     -0.2456
     91  OD2       19.8760    7.1680   32.4840 O.co2 159  ASP159     -0.2456
     92  N         14.9040    6.1620   26.3000 N.3   162  PHE162     -0.1241
     93  CA        14.8130    7.5720   25.9280 C.3   162  PHE162      0.1605
     94  C         15.7360    7.8690   24.7200 C.2   162  PHE162      0.2264
     95  O         15.3090    8.4890   23.7160 O.2   162  PHE162     -0.2867
     96  CB        15.2390    8.4430   27.1020 C.3   162  PHE162      0.0534
     97  CG        15.2030    9.9090   26.7810 C.ar  162  PHE162     -0.0203
     98  CD1       13.9870   10.5800   26.7810 C.ar  162  PHE162     -0.0042
     99  CD2       16.3630   10.5910   26.4610 C.ar  162  PHE162     -0.0042
    100  CE1       13.9360   11.9600   26.4760 C.ar  162  PHE162     -0.0003
    101  CE2       16.3150   11.9740   26.1260 C.ar  162  PHE162     -0.0003
    102  CZ        15.0880   12.6360   26.1470 C.ar  162  PHE162     -0.0000
    103  N          9.2050   20.8290   24.9330 N.3   179  TYR179     -0.1241
    104  CA         8.2680   21.3660   25.9150 C.3   179  TYR179      0.1605
    105  C          8.2780   22.8980   25.7960 C.2   179  TYR179      0.2264
    106  O          9.3590   23.5120   25.7120 O.2   179  TYR179     -0.2867
    107  CB         8.7350   20.9320   27.3250 C.3   179  TYR179      0.0534
    108  CG         7.9560   21.5240   28.4800 C.ar  179  TYR179     -0.0201
    109  CD1        6.5520   21.5570   28.4670 C.ar  179  TYR179     -0.0009
    110  CD2        8.6060   22.0170   29.5850 C.ar  179  TYR179     -0.0009
    111  CE1        5.8440   22.0910   29.5130 C.ar  179  TYR179      0.0417
    112  CE2        7.8910   22.5290   30.6630 C.ar  179  TYR179      0.0417
    113  CZ         6.5120   22.5550   30.6160 C.ar  179  TYR179      0.1957
    114  OH         5.8510   23.0610   31.7210 O.3   179  TYR179     -0.2866
    115  N          7.2750   25.2280   28.0600 N.3   181  ASN181     -0.1240
    116  CA         7.8150   26.0680   29.1720 C.3   181  ASN181      0.1653
    117  C          8.4600   25.5140   30.4300 C.2   181  ASN181      0.2266
    118  O          8.4010   26.1200   31.5030 O.2   181  ASN181     -0.2867
    119  CB         6.9310   27.2870   29.4900 C.3   181  ASN181      0.1155
    120  CG         5.4710   26.9540   29.5280 C.2   181  ASN181      0.2627
    121  OD1        5.0720   25.9370   30.0950 O.2   181  ASN181     -0.2716
    122  ND2        4.6540   27.8090   28.9290 N.am  181  ASN181     -0.0877
@<TRIPOS>BOND
     1     6     5    1
     2     1     2    1
     3    16    15    1
     4    41    42    2
     5    41    40    1
     6    53    55   ar
     7    53    51   ar
     8     2     5    1
     9     2     3    1
    10     5     7    1
    11    37    35    1
    12    38    36    1
    13    55    54   ar
    14    35    36    1
    15    35    32    1
    16    95    94    2
    17    46    47    1
    18    15    14    1
    19    40    39    1
    20    40    43    1
    21    51    50    1
    22    51    52   ar
    23     3     8   am
    24     3     4    2
    25    54    52   ar
    26    39    45    1
    27    50    47    1
    28    32    33    1
    29    32    31    1
    30    94    93    1
    31     8     9    1
    32   103   104    1
    33    33    34    2
    34    47    48    1
    35    14    13    1
    36    23    24    1
    37    23    22    1
    38    43    44    1
    39    13    12    1
    40   106   105    2
    41    29    28    2
    42    45    44    1
    43   105   104    1
    44    31    28   am
    45    24    25    1
    46   104   107    1
    47    48    49    2
    48    93    92    1
    49    93    96    1
    50   101   102   ar
    51   101    99   ar
    52    21    22    1
    53    21    18    1
    54    12     9    1
    55   102   100   ar
    56    20    19    2
    57     9    10    1
    58    28    27    1
    59    17    18    1
    60    17    10   am
    61    99    97   ar
    62   100    98   ar
    63    98    97   ar
    64    97    96    1
    65    19    18    1
    66    19    26   am
    67    10    11    2
    68   107   108    1
    69    87    86    2
    70    27    26    1
    71    27    30    1
    72    56    57    1
    73   115   116    1
    74    63    62    1
    75    63    64    2
    76    60    57    1
    77    60    61    1
    78    86    85    1
    79    62    61    1
    80   109   108   ar
    81   109   111   ar
    82   108   110   ar
    83    66    64    1
    84    57    58    1
    85   122   120   am
    86    64    65    1
    87   116   119    1
    88   116   117    1
    89    81    80    2
    90   119   120    1
    91   111   113   ar
    92   120   121    2
    93   110   112   ar
    94    85    88    1
    95    85    84    1
    96    58    59    2
    97    80    84   am
    98    80    79    1
    99   117   118    2
   100    88    89    1
   101   113   112   ar
   102   113   114    1
   103    79    78    1
   104    79    82    1
   105    89    90   ar
   106    89    91   ar
   107    82    83    1
   108    73    74    1
   109    73    72    1
   110    67    68    1
   111    74    75    2
   112    72    71    1
   113    76    75    1
   114    75    77    1
   115    71    68    1
   116    68    69    1
   117    69    70    2
