@<TRIPOS>MOLECULE
tmp/3gajA01.pdb
 138 132 0 0 0
SMALL
GASTEIGER

@<TRIPOS>ATOM
      1  N        -23.0690   46.7800    0.3100 N.3     1  LYS1       -0.1231
      2  CA       -24.3090   45.9580    0.2050 C.3     1  LYS1        0.1693
      3  C        -24.0490   44.6360   -0.5100 C.2     1  LYS1        0.2591
      4  O        -23.4640   44.6010   -1.5950 O.2     1  LYS1       -0.2718
      5  CB       -25.4100   46.7370   -0.5220 C.3     1  LYS1        0.0285
      6  CG       -25.8660   48.0270    0.1790 C.3     1  LYS1        0.0035
      7  CD       -26.8460   48.8160   -0.6930 C.3     1  LYS1        0.0206
      8  CE       -27.5220   49.9510    0.0800 C.3     1  LYS1        0.1093
      9  NZ       -26.5540   50.9440    0.6380 N.3     1  LYS1       -0.1314
     10  N        -24.4800   43.5370    0.1080 N.am    2  ILE2       -0.1980
     11  CA       -24.3900   42.2250   -0.5390 C.3     2  ILE2        0.1595
     12  C        -25.3460   42.0820   -1.7330 C.2     2  ILE2        0.2287
     13  O        -25.1170   41.2340   -2.5860 O.2     2  ILE2       -0.2864
     14  CB       -24.5750   41.0410    0.4580 C.3     2  ILE2        0.0276
     15  CG1      -25.9960   40.9860    1.0400 C.3     2  ILE2        0.0022
     16  CG2      -23.4830   41.0870    1.5590 C.3     2  ILE2        0.0022
     17  CD1      -26.2170   39.7670    1.9690 C.3     2  ILE2        0.0001
     18  N        -26.4270   43.4590   -5.0820 N.3     4  THR4       -0.1218
     19  CA       -26.0110   44.3400   -6.1640 C.3     4  THR4        0.1862
     20  C        -27.1230   44.6060   -7.1640 C.2     4  THR4        0.2287
     21  O        -27.0490   45.5690   -7.9270 O.2     4  THR4       -0.2866
     22  CB       -24.8490   43.7310   -6.9440 C.3     4  THR4        0.1770
     23  OG1      -25.3180   42.6090   -7.7310 O.3     4  THR4       -0.2211
     24  CG2      -23.7240   43.3030   -5.9910 C.3     4  THR4        0.0375
     25  N        -27.6320   43.0480   -9.7460 N.3     6  ASN6       -0.1240
     26  CA       -27.2080   42.6480  -11.0830 C.3     6  ASN6        0.1653
     27  C        -27.8140   41.3380  -11.5460 C.2     6  ASN6        0.2266
     28  O        -27.8990   41.0820  -12.7600 O.2     6  ASN6       -0.2867
     29  CB       -25.6840   42.6440  -11.1870 C.3     6  ASN6        0.1155
     30  CG       -25.1010   44.0450  -11.0560 C.2     6  ASN6        0.2627
     31  OD1      -25.6840   45.0140  -11.5440 O.2     6  ASN6       -0.2716
     32  ND2      -23.9690   44.1580  -10.3960 N.am    6  ASN6       -0.0877
     33  N        -22.6770   36.1370  -12.8920 N.3    13  ARG13      -0.1231
     34  CA       -21.2740   35.9230  -13.2300 C.3    13  ARG13       0.1694
     35  C        -20.7550   34.6230  -12.6540 C.2    13  ARG13       0.2592
     36  O        -21.0790   34.2720  -11.5180 O.2    13  ARG13      -0.2718
     37  CB       -20.4050   37.0600  -12.6780 C.3    13  ARG13       0.0321
     38  CG       -20.2660   38.2860  -13.5670 C.3    13  ARG13       0.0489
     39  CD       -19.3090   38.0420  -14.7620 C.3    13  ARG13       0.2205
     40  NE       -17.8780   38.1050  -14.4470 N.pl3  13  ARG13      -0.0865
     41  CZ       -17.1860   39.2320  -14.2910 C.cat  13  ARG13       0.5346
     42  NH1      -15.8910   39.1750  -14.0200 N.pl3  13  ARG13       0.1354
     43  NH2      -17.7810   40.4140  -14.3970 N.pl3  13  ARG13       0.1354
     44  N        -19.9440   33.9110  -13.4250 N.am   14  ILE14      -0.1966
     45  CA       -19.1900   32.7650  -12.9020 C.3    14  ILE14       0.1727
     46  C        -17.7630   33.2390  -12.6220 C.2    14  ILE14       0.2616
     47  O        -17.5060   34.4470  -12.5940 O.2    14  ILE14      -0.2715
     48  CB       -19.2640   31.5270  -13.8370 C.3    14  ILE14       0.0290
     49  CG1      -18.6100   31.8200  -15.1900 C.3    14  ILE14       0.0022
     50  CG2      -20.7060   31.0630  -14.0290 C.3    14  ILE14       0.0023
     51  CD1      -18.5580   30.6510  -16.1160 C.3    14  ILE14       0.0001
     52  N        -16.8370   32.3170  -12.3830 N.am   15  ILE15      -0.1977
     53  CA       -15.4380   32.7250  -12.2320 C.3    15  ILE15       0.1596
     54  C        -14.9050   33.0790  -13.6180 C.2    15  ILE15       0.2287
     55  O        -15.1580   32.3740  -14.5960 O.2    15  ILE15      -0.2864
     56  CB       -14.5900   31.6620  -11.5030 C.3    15  ILE15       0.0276
     57  CG1      -14.9650   31.6770  -10.0140 C.3    15  ILE15       0.0022
     58  CG2      -13.1030   31.9800  -11.6490 C.3    15  ILE15       0.0022
     59  CD1      -14.4780   30.4870   -9.2080 C.3    15  ILE15       0.0001
     60  N        -22.7430   24.0400   -9.3100 N.3    30  TYR30      -0.1227
     61  CA       -22.1340   24.5690   -8.0960 C.3    30  TYR30       0.1736
     62  C        -23.1860   25.0940   -7.1290 C.2    30  TYR30       0.2596
     63  O        -22.9440   25.1180   -5.9260 O.2    30  TYR30      -0.2718
     64  CB       -20.9310   25.4860   -8.3320 C.3    30  TYR30       0.0548
     65  CG       -21.2180   26.7920   -9.0110 C.ar   30  TYR30      -0.0200
     66  CD1      -21.5920   27.9110   -8.2560 C.ar   30  TYR30      -0.0009
     67  CD2      -21.0280   26.9480  -10.3750 C.ar   30  TYR30      -0.0009
     68  CE1      -21.8130   29.1560   -8.8780 C.ar   30  TYR30       0.0417
     69  CE2      -21.2500   28.1810  -11.0040 C.ar   30  TYR30       0.0417
     70  CZ       -21.6420   29.2680  -10.2550 C.ar   30  TYR30       0.1957
     71  OH       -21.8650   30.4860  -10.8580 O.3    30  TYR30      -0.2866
     72  N        -24.3800   25.4240   -7.6080 N.am   31  GLY31      -0.1957
     73  CA       -25.4720   25.7500   -6.7040 C.3    31  GLY31       0.1869
     74  C        -25.8690   24.5490   -5.8520 C.2    31  GLY31       0.2309
     75  O        -26.1400   24.7020   -4.6560 O.2    31  GLY31      -0.2863
     76  N        -23.8860   22.0790   -5.0410 N.3    33  VAL33      -0.1231
     77  CA       -22.8080   21.8840   -4.0870 C.3    33  VAL33       0.1692
     78  C        -22.9460   22.8540   -2.9000 C.2    33  VAL33       0.2592
     79  O        -22.6830   22.4880   -1.7540 O.2    33  VAL33      -0.2718
     80  CB       -21.4350   21.9900   -4.7850 C.3    33  VAL33       0.0266
     81  CG1      -20.3070   21.9550   -3.7640 C.3    33  VAL33       0.0020
     82  CG2      -21.2850   20.8400   -5.7700 C.3    33  VAL33       0.0020
     83  N        -23.3920   24.0830   -3.1580 N.am   34  ASP34      -0.1974
     84  CA       -23.6460   25.0520   -2.0970 C.3    34  ASP34       0.1709
     85  C        -24.7930   24.5660   -1.2100 C.2    34  ASP34       0.2293
     86  O        -24.7010   24.6690    0.0220 O.2    34  ASP34      -0.2864
     87  CB       -23.9530   26.4170   -2.7320 C.3    34  ASP34       0.1436
     88  CG       -24.0250   27.5550   -1.7210 C.2    34  ASP34       0.3671
     89  OD1      -23.4450   27.4680   -0.6050 O.co2  34  ASP34      -0.2456
     90  OD2      -24.6800   28.5680   -2.0310 O.co2  34  ASP34      -0.2456
     91  N        -15.7940   21.2660    0.0060 N.3    65  LEU65      -0.1231
     92  CA       -16.8990   21.5300   -0.9130 C.3    65  LEU65       0.1693
     93  C        -16.8040   22.9150   -1.5180 C.2    65  LEU65       0.2592
     94  O        -17.2060   23.1130   -2.6680 O.2    65  LEU65      -0.2718
     95  CB       -18.2320   21.3200   -0.2070 C.3    65  LEU65       0.0284
     96  CG       -18.6060   19.8670    0.1040 C.3    65  LEU65       0.0019
     97  CD1      -19.8930   19.8650    0.9270 C.3    65  LEU65       0.0001
     98  CD2      -18.7530   19.0390   -1.1580 C.3    65  LEU65       0.0001
     99  N        -16.2660   23.8690   -0.7670 N.am   66  PHE66      -0.1976
    100  CA       -15.9620   25.1730   -1.3340 C.3    66  PHE66       0.1639
    101  C        -14.9430   25.0370   -2.4640 C.2    66  PHE66       0.2290
    102  O        -15.1090   25.6530   -3.5170 O.2    66  PHE66      -0.2864
    103  CB       -15.4390   26.1300   -0.2530 C.3    66  PHE66       0.0560
    104  CG       -15.7770   27.5800   -0.5130 C.ar   66  PHE66      -0.0200
    105  CD1      -17.0210   28.0960   -0.1640 C.ar   66  PHE66      -0.0042
    106  CD2      -14.8540   28.4190   -1.1140 C.ar   66  PHE66      -0.0042
    107  CE1      -17.3380   29.4290   -0.3940 C.ar   66  PHE66      -0.0003
    108  CE2      -15.1620   29.7640   -1.3650 C.ar   66  PHE66      -0.0003
    109  CZ       -16.4020   30.2650   -0.9980 C.ar   66  PHE66      -0.0000
    110  N        -16.7680   23.5980   -5.4700 N.3    69  GLY69      -0.1210
    111  CA       -17.6140   24.6240   -6.0800 C.3    69  GLY69       0.1956
    112  C        -16.7840   25.5730   -6.9300 C.2    69  GLY69       0.2611
    113  O        -17.1880   25.9450   -8.0300 O.2    69  GLY69      -0.2717
    114  N        -15.6480   26.0050   -6.4050 N.am   70  HIS70      -0.1975
    115  CA       -14.7660   26.9200   -7.1260 C.3    70  HIS70       0.1656
    116  C        -14.4360   26.3470   -8.4880 C.2    70  HIS70       0.2291
    117  O        -14.5420   27.0430   -9.5150 O.2    70  HIS70      -0.2864
    118  CB       -13.4690   27.1260   -6.3360 C.3    70  HIS70       0.0771
    119  CG       -12.3800   27.7860   -7.1310 C.ar   70  HIS70       0.0820
    120  ND1      -11.5500   27.0910   -7.9860 N.ar   70  HIS70      -0.2267
    121  CD2      -12.0090   29.0850   -7.2190 C.ar   70  HIS70       0.1154
    122  CE1      -10.7040   27.9320   -8.5560 C.ar   70  HIS70       0.1986
    123  NE2      -10.9640   29.1470   -8.1100 N.ar   70  HIS70      -0.2212
    124  N        -17.2710   26.2980  -10.9640 N.3    73  ALA73      -0.1245
    125  CA       -17.5670   27.6610  -11.4410 C.3    73  ALA73       0.1562
    126  C        -16.5310   28.1880  -12.4410 C.2    73  ALA73       0.2260
    127  O        -16.6940   29.3090  -12.9690 O.2    73  ALA73      -0.2867
    128  CB       -17.6860   28.6060  -10.2490 C.3    73  ALA73       0.0290
    129  N         -7.7690   31.8690  -14.5370 N.3    81  HIS81      -0.1241
    130  CA        -8.1220   31.0670  -13.3680 C.3    81  HIS81       0.1621
    131  C         -7.9400   29.5840  -13.6450 C.2    81  HIS81       0.2264
    132  O         -8.4130   29.0690  -14.6630 O.2    81  HIS81      -0.2867
    133  CB        -9.5650   31.3430  -12.9390 C.3    81  HIS81       0.0745
    134  CG        -9.8430   32.7860  -12.6610 C.ar   81  HIS81       0.0817
    135  ND1      -10.2610   33.6610  -13.6390 N.ar   81  HIS81      -0.2268
    136  CD2       -9.7630   33.5060  -11.5180 C.ar   81  HIS81       0.1154
    137  CE1      -10.4250   34.8620  -13.1110 C.ar   81  HIS81       0.1986
    138  NE2      -10.1300   34.7960  -11.8250 N.ar   81  HIS81      -0.2212
@<TRIPOS>BOND
     1    51    49    1
     2    49    48    1
     3    39    40    1
     4    39    38    1
     5   132   131    2
     6    55    54    2
     7   129   130    1
     8    40    41    2
     9    43    41    1
    10    41    42    1
    11    50    48    1
    12    48    45    1
    13   131   130    1
    14   135   137   ar
    15   135   134   ar
    16    54    53    1
    17    38    37    1
    18    44    45    1
    19    44    35   am
    20   130   133    1
    21    34    33    1
    22    34    37    1
    23    34    35    1
    24   137   138   ar
    25   127   126    2
    26   133   134    1
    27    45    46    1
    28    28    27    2
    29   134   136   ar
    30    35    36    2
    31    46    47    2
    32    46    52   am
    33   126   125    1
    34    52    53    1
    35    53    56    1
    36   138   136   ar
    37    58    56    1
    38    27    26    1
    39    31    30    2
    40    56    57    1
    41   125   124    1
    42   125   128    1
    43    29    26    1
    44    29    30    1
    45    26    25    1
    46    30    32   am
    47    69    67   ar
    48    69    70   ar
    49    71    70    1
    50    67    65   ar
    51    70    68   ar
    52    57    59    1
    53   117   116    2
    54    60    61    1
    55    65    64    1
    56    65    66   ar
    57    68    66   ar
    58   122   123   ar
    59   122   120   ar
    60   116   115    1
    61    64    61    1
    62   123   121   ar
    63    61    62    1
    64   113   112    2
    65   120   119   ar
    66    21    20    2
    67    23    22    1
    68    72    62   am
    69    72    73    1
    70   121   119   ar
    71    20    19    1
    72   119   118    1
    73    62    63    2
    74   115   114    1
    75   115   118    1
    76    22    19    1
    77    22    24    1
    78   112   114   am
    79   112   111    1
    80    73    74    1
    81    19    18    1
    82   111   110    1
    83    74    75    2
    84    82    80    1
    85    76    77    1
    86    80    77    1
    87    80    81    1
    88    77    78    1
    89   102   101    2
    90    83    78   am
    91    83    84    1
    92    78    79    2
    93    87    84    1
    94    87    88    1
    95    94    93    2
    96    13    12    2
    97   101   100    1
    98    84    85    1
    99    90    88   ar
   100    12    11    1
   101    88    89   ar
   102     4     3    2
   103    93    92    1
   104    93    99   am
   105   108   106   ar
   106   108   109   ar
   107   100    99    1
   108   100   103    1
   109    85    86    2
   110    98    96    1
   111   106   104   ar
   112   109   107   ar
   113    92    95    1
   114    92    91    1
   115     7     8    1
   116     7     6    1
   117    11    10    1
   118    11    14    1
   119     5     6    1
   120     5     2    1
   121   104   103    1
   122   104   105   ar
   123     3    10   am
   124     3     2    1
   125   107   105   ar
   126    95    96    1
   127     8     9    1
   128    96    97    1
   129     2     1    1
   130    14    15    1
   131    14    16    1
   132    15    17    1
