@<TRIPOS>MOLECULE
tmp/3gamA03.pdb
 79 74 0 0 0
SMALL
GASTEIGER

@<TRIPOS>ATOM
      1  N         35.1650   -3.2930  -25.6760 N.3    64  VAL64      -0.1245
      2  CA        33.8820   -3.9740  -25.7060 C.3    64  VAL64       0.1561
      3  C         33.3350   -3.9110  -24.2630 C.2    64  VAL64       0.2260
      4  O         34.0060   -4.3740  -23.3330 O.2    64  VAL64      -0.2867
      5  CB        34.0970   -5.4390  -26.1030 C.3    64  VAL64       0.0252
      6  CG1       32.8070   -6.2920  -25.9920 C.3    64  VAL64       0.0019
      7  CG2       34.7110   -5.5230  -27.4920 C.3    64  VAL64       0.0019
      8  N         31.0680   -5.2150  -21.3880 N.3    66  ASN66      -0.1225
      9  CA        30.3480   -6.4100  -20.9930 C.3    66  ASN66       0.1785
     10  C         29.8920   -6.1650  -19.5560 C.2    66  ASN66       0.2597
     11  O         30.7240   -6.1380  -18.6490 O.2    66  ASN66      -0.2718
     12  CB        31.3110   -7.5970  -21.0350 C.3    66  ASN66       0.1169
     13  CG        30.6640   -8.8940  -20.7110 C.2    66  ASN66       0.2627
     14  OD1       30.0160   -9.1020  -19.6660 O.2    66  ASN66      -0.2716
     15  ND2       30.8700   -9.8400  -21.6100 N.am   66  ASN66      -0.0877
     16  N         28.5930   -5.9760  -19.3460 N.am   67  TYR67      -0.1962
     17  CA        28.0870   -5.5610  -18.0390 C.3    67  TYR67       0.1771
     18  C         28.4610   -6.5250  -16.8950 C.2    67  TYR67       0.2620
     19  O         29.0210   -6.1060  -15.8750 O.2    67  TYR67      -0.2715
     20  CB        26.5550   -5.3030  -18.0960 C.3    67  TYR67       0.0574
     21  CG        26.0560   -4.6750  -16.8340 C.ar   67  TYR67      -0.0198
     22  CD1       26.2120   -3.3000  -16.5950 C.ar   67  TYR67      -0.0009
     23  CD2       25.4780   -5.4580  -15.8470 C.ar   67  TYR67      -0.0009
     24  CE1       25.7730   -2.7550  -15.3790 C.ar   67  TYR67       0.0417
     25  CE2       25.0350   -4.9070  -14.6600 C.ar   67  TYR67       0.0417
     26  CZ        25.1810   -3.5720  -14.4360 C.ar   67  TYR67       0.1957
     27  OH        24.7710   -3.0720  -13.2190 O.3    67  TYR67      -0.2866
     28  N         28.2030   -7.8130  -17.0850 N.am   68  GLY68      -0.1954
     29  CA        28.4280   -8.8120  -16.0750 C.3    68  GLY68       0.1869
     30  C         29.8870   -8.9280  -15.6400 C.2    68  GLY68       0.2309
     31  O         30.1990   -9.1570  -14.4510 O.2    68  GLY68      -0.2863
     32  N         12.8990   -4.3080  -11.0010 N.3   113  LYS113     -0.1245
     33  CA        13.7370   -5.2200  -11.8470 C.3   113  LYS113      0.1561
     34  C         15.1900   -4.7220  -11.9320 C.2   113  LYS113      0.2260
     35  O         16.1240   -5.5060  -11.8370 O.2   113  LYS113     -0.2867
     36  CB        13.1180   -5.4220  -13.2610 C.3   113  LYS113      0.0271
     37  CG        13.8800   -6.4740  -14.0800 C.3   113  LYS113      0.0035
     38  CD        14.0000   -7.8910  -13.4060 C.3   113  LYS113      0.0206
     39  CE        14.3880   -8.9440  -14.4440 C.3   113  LYS113      0.1093
     40  NZ        15.6820   -8.6910  -15.1410 N.3   113  LYS113     -0.1314
     41  N         17.1900   -5.5920   -8.8520 N.3   116  MET116     -0.1230
     42  CA        17.7350   -6.9670   -8.9010 C.3   116  MET116      0.1702
     43  C         18.8640   -7.0850   -9.9240 C.2   116  MET116      0.2592
     44  O         19.8930   -7.7650   -9.6470 O.2   116  MET116     -0.2718
     45  CB        16.6180   -7.9640   -9.2430 C.3   116  MET116      0.0401
     46  CG        15.3710   -7.5790   -8.6490 C.3   116  MET116      0.0596
     47  SD        13.9110   -8.6110   -9.0490 S.3   116  MET116     -0.1393
     48  CE        13.3550   -8.7840   -7.3660 C.3   116  MET116      0.0692
     49  N         18.7120   -6.4150  -11.0800 N.am  117  ASP117     -0.1974
     50  CA        19.7140   -6.5060  -12.0950 C.3   117  ASP117      0.1709
     51  C         21.0360   -5.9360  -11.5980 C.2   117  ASP117      0.2293
     52  O         22.1070   -6.4840  -11.8950 O.2   117  ASP117     -0.2864
     53  CB        19.3090   -5.6890  -13.3420 C.3   117  ASP117      0.1436
     54  CG        18.1900   -6.3310  -14.1640 C.2   117  ASP117      0.3671
     55  OD1       17.7210   -7.4550  -13.8720 O.co2 117  ASP117     -0.2456
     56  OD2       17.7240   -5.6320  -15.0940 O.co2 117  ASP117     -0.2456
     57  N         22.2000   -7.3440   -7.2980 N.3   120  LEU120     -0.1245
     58  CA        22.4600   -8.7370   -7.0760 C.3   120  LEU120      0.1561
     59  C         23.5360   -9.1560   -8.0580 C.2   120  LEU120      0.2260
     60  O         23.2910   -9.9340   -8.9920 O.2   120  LEU120     -0.2867
     61  CB        21.1850   -9.5670   -7.2520 C.3   120  LEU120      0.0270
     62  CG        20.0690   -9.2390   -6.2430 C.3   120  LEU120      0.0019
     63  CD1       18.8020  -10.0230   -6.5230 C.3   120  LEU120      0.0001
     64  CD2       20.4930   -9.4450   -4.7930 C.3   120  LEU120      0.0001
     65  N         26.1630  -14.1100   -6.0800 N.3   126  PHE126     -0.1241
     66  CA        26.4010  -15.4490   -6.6210 C.3   126  PHE126      0.1605
     67  C         27.7440  -15.4500   -7.3090 C.2   126  PHE126      0.2264
     68  O         28.3360  -14.4170   -7.5780 O.2   126  PHE126     -0.2867
     69  CB        25.3250  -15.8020   -7.6860 C.3   126  PHE126      0.0534
     70  CG        25.4330  -14.9470   -8.9060 C.ar  126  PHE126     -0.0203
     71  CD1       24.7780  -13.7220   -8.9770 C.ar  126  PHE126     -0.0042
     72  CD2       26.2660  -15.3240   -9.9640 C.ar  126  PHE126     -0.0042
     73  CE1       24.9310  -12.8840  -10.1160 C.ar  126  PHE126     -0.0003
     74  CE2       26.4220  -14.5170  -11.0720 C.ar  126  PHE126     -0.0003
     75  CZ        25.7390  -13.2810  -11.1470 C.ar  126  PHE126     -0.0000
     76  N         14.2910  -18.3450  -10.1300 N.3   174  GLY174     -0.1225
     77  CA        15.3360  -17.8250  -10.9890 C.3   174  GLY174      0.1811
     78  C         16.1530  -16.7290  -10.2780 C.2   174  GLY174      0.2280
     79  O         17.2900  -16.4570  -10.6380 O.2   174  GLY174     -0.2866
@<TRIPOS>BOND
     1     7     5    1
     2     5     6    1
     3     5     2    1
     4     2     1    1
     5     2     3    1
     6     3     4    2
     7    15    13   am
     8     8     9    1
     9    12     9    1
    10    12    13    1
    11     9    10    1
    12    13    14    2
    13    10    16   am
    14    10    11    2
    15    16    17    1
    16    20    17    1
    17    20    21    1
    18    17    18    1
    19    28    18   am
    20    28    29    1
    21    18    19    2
    22    21    22   ar
    23    21    23   ar
    24    22    24   ar
    25    29    30    1
    26    23    25   ar
    27    30    31    2
    28    24    26   ar
    29    40    39    1
    30    56    54   ar
    31    25    26   ar
    32    39    38    1
    33    26    27    1
    34    54    55   ar
    35    54    53    1
    36    37    38    1
    37    37    36    1
    38    53    50    1
    39    36    33    1
    40    50    51    1
    41    50    49    1
    42    34    33    1
    43    34    35    2
    44    52    51    2
    45    33    32    1
    46    75    74   ar
    47    75    73   ar
    48    49    43   am
    49    74    72   ar
    50    77    78    1
    51    77    76    1
    52    79    78    2
    53    73    71   ar
    54    72    70   ar
    55    43    44    2
    56    43    42    1
    57    45    42    1
    58    45    46    1
    59    47    46    1
    60    47    48    1
    61    60    59    2
    62    71    70   ar
    63    70    69    1
    64    42    41    1
    65    59    58    1
    66    69    66    1
    67    68    67    2
    68    67    66    1
    69    57    58    1
    70    61    58    1
    71    61    62    1
    72    66    65    1
    73    63    62    1
    74    62    64    1
