@<TRIPOS>MOLECULE
tmp/3gamB03.pdb
 196 194 0 0 0
SMALL
GASTEIGER

@<TRIPOS>ATOM
      1  N         20.6850   -4.0390  -25.4740 N.3    11  HIS11      -0.1241
      2  CA        22.0650   -4.4190  -25.1310 C.3    11  HIS11       0.1621
      3  C         22.9120   -3.1430  -25.2380 C.2    11  HIS11       0.2264
      4  O         22.7200   -2.2980  -26.1580 O.2    11  HIS11      -0.2867
      5  CB        22.6460   -5.5300  -26.0610 C.3    11  HIS11       0.0745
      6  CG        23.7910   -6.2850  -25.4290 C.ar   11  HIS11       0.0817
      7  ND1       25.0580   -5.7320  -25.2870 N.ar   11  HIS11      -0.2268
      8  CD2       23.8590   -7.5290  -24.8870 C.ar   11  HIS11       0.1154
      9  CE1       25.8490   -6.6020  -24.6920 C.ar   11  HIS11       0.1986
     10  NE2       25.1390   -7.6860  -24.3990 N.ar   11  HIS11      -0.2212
     11  N         29.0380   -4.3380  -30.3210 N.3    15  LYS15      -0.1231
     12  CA        29.8540   -5.4600  -30.8400 C.3    15  LYS15       0.1693
     13  C         29.5020   -6.7260  -30.1540 C.2    15  LYS15       0.2593
     14  O         30.2210   -7.7120  -30.3090 O.2    15  LYS15      -0.2718
     15  CB        31.3570   -5.2480  -30.5800 C.3    15  LYS15       0.0285
     16  CG        32.0180   -4.1450  -31.3700 C.3    15  LYS15       0.0035
     17  CD        33.2880   -3.6850  -30.6130 C.3    15  LYS15       0.0206
     18  CE        34.1630   -2.7510  -31.4670 C.3    15  LYS15       0.1093
     19  NZ        34.4860   -1.5040  -30.6960 N.3    15  LYS15      -0.1314
     20  N         28.3990   -6.7370  -29.3940 N.am   16  SER16      -0.1938
     21  CA        28.0300   -7.9180  -28.6360 C.3    16  SER16       0.2055
     22  C         27.3720   -8.9320  -29.5480 C.2    16  SER16       0.2643
     23  O         27.0440   -8.6140  -30.6570 O.2    16  SER16      -0.2714
     24  CB        27.0230   -7.5090  -27.5420 C.3    16  SER16       0.2130
     25  OG        25.8180   -6.9310  -28.1090 O.3    16  SER16      -0.2179
     26  N         27.1510  -10.1410  -29.0510 N.am   17  PHE17      -0.1959
     27  CA        26.4110  -11.1700  -29.7550 C.3    17  PHE17       0.1771
     28  C         24.9370  -10.7050  -29.9740 C.2    17  PHE17       0.2619
     29  O         24.3700  -10.9150  -31.0590 O.2    17  PHE17      -0.2715
     30  CB        26.4350  -12.4240  -28.9120 C.3    17  PHE17       0.0574
     31  CG        25.8090  -13.6380  -29.5640 C.ar   17  PHE17      -0.0200
     32  CD1       26.4050  -14.2530  -30.6470 C.ar   17  PHE17      -0.0042
     33  CD2       24.6770  -14.1980  -29.0450 C.ar   17  PHE17      -0.0042
     34  CE1       25.8290  -15.3790  -31.2250 C.ar   17  PHE17      -0.0003
     35  CE2       24.1010  -15.3310  -29.6110 C.ar   17  PHE17      -0.0003
     36  CZ        24.6630  -15.9000  -30.7160 C.ar   17  PHE17      -0.0000
     37  N         24.3280  -10.0620  -28.9740 N.am   18  ASN18      -0.1972
     38  CA        22.9810   -9.4390  -29.2130 C.3    18  ASN18       0.1688
     39  C         23.0320   -8.4370  -30.3560 C.2    18  ASN18       0.2292
     40  O         22.1150   -8.3610  -31.1700 O.2    18  ASN18      -0.2864
     41  CB        22.4480   -8.7720  -27.9260 C.3    18  ASN18       0.1181
     42  CG        21.6920   -9.7570  -27.0520 C.2    18  ASN18       0.2629
     43  OD1       20.4780   -9.9350  -27.2130 O.2    18  ASN18      -0.2716
     44  ND2       22.4130  -10.5030  -26.2240 N.am   18  ASN18      -0.0877
     45  N         25.0650   -8.3170  -32.8670 N.3    20  SER20      -0.1217
     46  CA        25.1550   -9.1370  -34.1120 C.3    20  SER20       0.1889
     47  C         23.7950   -9.7630  -34.5560 C.2    20  SER20       0.2288
     48  O         23.4050   -9.7370  -35.7490 O.2    20  SER20      -0.2866
     49  CB        26.2130  -10.2560  -33.9180 C.3    20  SER20       0.2089
     50  OG        27.4840   -9.6420  -33.8160 O.3    20  SER20      -0.2183
     51  N         19.5090  -10.0350  -23.9440 N.3   102  PRO102     -0.2102
     52  CA        20.0420  -11.0740  -23.0430 C.3   102  PRO102      0.1504
     53  C         19.1120  -11.3130  -21.8950 C.2   102  PRO102      0.2576
     54  O         18.4960  -10.3900  -21.3830 O.2   102  PRO102     -0.2718
     55  CB        21.3830  -10.4760  -22.5480 C.3   102  PRO102      0.0282
     56  CG        21.0880   -8.8980  -22.5120 C.3   102  PRO102      0.0208
     57  CD        20.1520   -8.7100  -23.7740 C.3   102  PRO102      0.0893
     58  N         19.0060  -12.5640  -21.4790 N.am  103  LEU103     -0.1966
     59  CA        18.1920  -12.9120  -20.3640 C.3   103  LEU103      0.1728
     60  C         18.8460  -12.3260  -19.1170 C.2   103  LEU103      0.2616
     61  O         20.0910  -12.4940  -18.9020 O.2   103  LEU103     -0.2715
     62  CB        18.0800  -14.4310  -20.2520 C.3   103  LEU103      0.0311
     63  CG        16.9630  -15.0330  -19.3790 C.3   103  LEU103      0.0022
     64  CD1       15.5790  -14.7360  -19.9130 C.3   103  LEU103      0.0001
     65  CD2       17.0820  -16.6000  -19.2110 C.3   103  LEU103      0.0001
     66  N         18.0260  -11.6390  -18.3150 N.am  104  TYR104     -0.1960
     67  CA        18.4640  -11.0120  -17.0240 C.3   104  TYR104      0.1771
     68  C         17.5070  -11.4840  -15.9710 C.2   104  TYR104      0.2620
     69  O         16.3090  -11.0970  -15.9750 O.2   104  TYR104     -0.2715
     70  CB        18.3970   -9.4530  -17.0470 C.3   104  TYR104      0.0574
     71  CG        19.6340   -8.7080  -17.5620 C.ar  104  TYR104     -0.0198
     72  CD1       20.6050   -9.3470  -18.3460 C.ar  104  TYR104     -0.0009
     73  CD2       19.8160   -7.3490  -17.2790 C.ar  104  TYR104     -0.0009
     74  CE1       21.6950   -8.6420  -18.8510 C.ar  104  TYR104      0.0417
     75  CE2       20.8720   -6.6460  -17.7750 C.ar  104  TYR104      0.0417
     76  CZ        21.7880   -7.2750  -18.5540 C.ar  104  TYR104      0.1957
     77  OH        22.8390   -6.5200  -18.9650 O.3   104  TYR104     -0.2866
     78  N         18.0080  -12.3030  -15.0580 N.am  105  TRP105     -0.1960
     79  CA        17.1990  -12.8590  -14.0070 C.3   105  TRP105      0.1771
     80  C         15.9490  -13.5210  -14.5680 C.2   105  TRP105      0.2619
     81  O         14.7860  -13.2690  -14.1110 O.2   105  TRP105     -0.2715
     82  CB        16.8580  -11.8060  -12.9430 C.3   105  TRP105      0.0590
     83  CG        18.0720  -11.4140  -12.1900 C.ar  105  TRP105      0.0006
     84  CD1       18.6440  -10.1550  -12.1370 C.ar  105  TRP105      0.0946
     85  CD2       18.9160  -12.2810  -11.4070 C.ar  105  TRP105      0.0152
     86  NE1       19.7890  -10.2000  -11.3540 N.ar  105  TRP105     -0.2442
     87  CE2       19.9660  -11.4810  -10.8810 C.ar  105  TRP105      0.0810
     88  CE3       18.8790  -13.6630  -11.0980 C.ar  105  TRP105      0.0012
     89  CZ2       21.0160  -12.0220  -10.1090 C.ar  105  TRP105      0.0191
     90  CZ3       19.8800  -14.1920  -10.2800 C.ar  105  TRP105      0.0001
     91  CH2       20.9510  -13.3590   -9.8010 C.ar  105  TRP105      0.0015
     92  N         16.1470  -14.4140  -15.5400 N.am  106  PHE106     -0.1974
     93  CA        15.0210  -15.1990  -16.0880 C.3   106  PHE106      0.1639
     94  C         13.9870  -14.3380  -16.8000 C.2   106  PHE106      0.2290
     95  O         12.8530  -14.7760  -16.9990 O.2   106  PHE106     -0.2864
     96  CB        14.2690  -16.0020  -15.0140 C.3   106  PHE106      0.0560
     97  CG        14.8820  -17.3720  -14.7110 C.ar  106  PHE106     -0.0200
     98  CD1       16.2810  -17.5400  -14.7180 C.ar  106  PHE106     -0.0042
     99  CD2       14.0550  -18.4820  -14.4440 C.ar  106  PHE106     -0.0042
    100  CE1       16.8660  -18.8020  -14.4040 C.ar  106  PHE106     -0.0003
    101  CE2       14.6060  -19.7280  -14.1450 C.ar  106  PHE106     -0.0003
    102  CZ        16.0190  -19.9020  -14.1110 C.ar  106  PHE106     -0.0000
    103  N         19.1370  -14.2730  -25.6230 N.3   147  THR147     -0.1203
    104  CA        20.3870  -15.0260  -25.5010 C.3   147  THR147      0.1994
    105  C         20.5490  -15.3430  -23.9780 C.2   147  THR147      0.2619
    106  O         20.0370  -14.5730  -23.1000 O.2   147  THR147     -0.2717
    107  CB        21.5730  -14.2500  -26.0310 C.3   147  THR147      0.1784
    108  OG1       21.8230  -13.1380  -25.1730 O.3   147  THR147     -0.2211
    109  CG2       21.3000  -13.6870  -27.3900 C.3   147  THR147      0.0376
    110  N         21.1960  -16.4670  -23.6550 N.am  148  THR148     -0.1938
    111  CA        21.4390  -16.8300  -22.2610 C.3   148  THR148      0.2028
    112  C         22.9200  -16.9910  -21.8750 C.2   148  THR148      0.2643
    113  O         23.8120  -17.1700  -22.7270 O.2   148  THR148     -0.2714
    114  CB        20.7480  -18.1480  -21.9240 C.3   148  THR148      0.1808
    115  OG1       21.3580  -19.1720  -22.7160 O.3   148  THR148     -0.2208
    116  CG2       19.2640  -18.0710  -22.2460 C.3   148  THR148      0.0379
    117  N         23.1980  -16.8640  -20.5830 N.am  149  GLY149     -0.1939
    118  CA        24.4750  -17.3750  -20.0550 C.3   149  GLY149      0.2014
    119  C         24.4270  -18.8900  -19.8890 C.2   149  GLY149      0.2639
    120  O         25.4520  -19.5470  -20.1200 O.2   149  GLY149     -0.2714
    121  N         23.2630  -19.4450  -19.5160 N.am  150  GLY150     -0.1954
    122  CA        23.0880  -20.8920  -19.2940 C.3   150  GLY150      0.1869
    123  C         23.0200  -21.7120  -20.6030 C.2   150  GLY150      0.2309
    124  O         22.5890  -21.1940  -21.6760 O.2   150  GLY150     -0.2863
    125  N         18.9110  -25.4600  -19.1880 N.3   155  TYR155     -0.1241
    126  CA        17.4890  -25.0710  -19.3180 C.3   155  TYR155      0.1605
    127  C         16.6040  -26.2100  -19.8010 C.2   155  TYR155      0.2264
    128  O         15.8300  -26.0320  -20.7450 O.2   155  TYR155     -0.2867
    129  CB        17.2930  -23.8520  -20.2650 C.3   155  TYR155      0.0534
    130  CG        17.6890  -22.5550  -19.6050 C.ar  155  TYR155     -0.0201
    131  CD1       16.8880  -21.9730  -18.6390 C.ar  155  TYR155     -0.0009
    132  CD2       18.8900  -21.9620  -19.8910 C.ar  155  TYR155     -0.0009
    133  CE1       17.2860  -20.7920  -17.9820 C.ar  155  TYR155      0.0417
    134  CE2       19.2800  -20.8090  -19.2550 C.ar  155  TYR155      0.0417
    135  CZ        18.4710  -20.2320  -18.3160 C.ar  155  TYR155      0.1957
    136  OH        18.9150  -19.0800  -17.7100 O.3   155  TYR155     -0.2866
    137  N         18.2720  -25.0300  -14.1270 N.3   161  ASN161     -0.1240
    138  CA        17.4060  -23.8950  -14.3840 C.3   161  ASN161      0.1653
    139  C         15.9180  -24.1570  -14.6620 C.2   161  ASN161      0.2266
    140  O         15.1460  -23.2080  -14.8160 O.2   161  ASN161     -0.2867
    141  CB        18.0040  -23.1560  -15.5630 C.3   161  ASN161      0.1155
    142  CG        19.2590  -22.4720  -15.1900 C.2   161  ASN161      0.2627
    143  OD1       19.5490  -22.3250  -13.9970 O.2   161  ASN161     -0.2716
    144  ND2       20.0340  -22.0640  -16.1800 N.am  161  ASN161     -0.0877
    145  N         26.3210  -18.1460  -25.6620 N.3   192  PRO192     -0.2102
    146  CA        27.2860  -17.8010  -26.6730 C.3   192  PRO192      0.1504
    147  C         28.6960  -17.5330  -26.1080 C.2   192  PRO192      0.2575
    148  O         29.6900  -17.6440  -26.8510 O.2   192  PRO192     -0.2718
    149  CB        26.6850  -16.5530  -27.3160 C.3   192  PRO192      0.0282
    150  CG        25.6370  -16.0740  -26.2880 C.3   192  PRO192      0.0208
    151  CD        25.0990  -17.3200  -25.7490 C.3   192  PRO192      0.0893
    152  N         28.7910  -17.1890  -24.8190 N.am  193  GLU193     -0.1980
    153  CA        30.1010  -16.9120  -24.1940 C.3   193  GLU193      0.1602
    154  C         30.9170  -18.2240  -24.1170 C.2   193  GLU193      0.2287
    155  O         32.1200  -18.2350  -24.3340 O.2   193  GLU193     -0.2864
    156  CB        29.9050  -16.2330  -22.8150 C.3   193  GLU193      0.0415
    157  CG        29.6760  -14.7130  -22.9790 C.3   193  GLU193      0.1163
    158  CD        28.7830  -13.9910  -21.9170 C.2   193  GLU193      0.3649
    159  OE1       27.7470  -14.5270  -21.4370 O.co2 193  GLU193     -0.2457
    160  OE2       29.1300  -12.8250  -21.5990 O.co2 193  GLU193     -0.2457
    161  N         33.7980  -20.1480  -31.4310 N.3   197  GLU197     -0.1245
    162  CA        33.6560  -19.0780  -32.4230 C.3   197  GLU197      0.1567
    163  C         32.8350  -19.4580  -33.6540 C.2   197  GLU197      0.2260
    164  O         32.1540  -18.6080  -34.2630 O.2   197  GLU197     -0.2867
    165  CB        35.0370  -18.6340  -32.9090 C.3   197  GLU197      0.0388
    166  CG        34.9810  -17.6870  -34.1040 C.3   197  GLU197      0.1160
    167  CD        34.8030  -16.2290  -33.6840 C.2   197  GLU197      0.3649
    168  OE1       34.5380  -15.9890  -32.4850 O.co2 197  GLU197     -0.2457
    169  OE2       34.9310  -15.3250  -34.5450 O.co2 197  GLU197     -0.2457
    170  N         29.1180  -19.7730  -32.5430 N.3   200  ARG200     -0.1231
    171  CA        28.5360  -18.4260  -32.5330 C.3   200  ARG200      0.1694
    172  C         28.1160  -17.9810  -33.9370 C.2   200  ARG200      0.2591
    173  O         26.9760  -17.5090  -34.1440 O.2   200  ARG200     -0.2718
    174  CB        29.5370  -17.4110  -31.9920 C.3   200  ARG200      0.0321
    175  CG        29.7240  -17.4880  -30.5130 C.3   200  ARG200      0.0489
    176  CD        30.2540  -16.1780  -29.9610 C.3   200  ARG200      0.2205
    177  NE        31.6890  -16.0050  -30.1360 N.pl3 200  ARG200     -0.0865
    178  CZ        32.5910  -16.4620  -29.2770 C.cat 200  ARG200      0.5346
    179  NH1       32.1970  -17.1420  -28.2060 N.pl3 200  ARG200      0.1354
    180  NH2       33.8890  -16.2500  -29.4940 N.pl3 200  ARG200      0.1354
    181  N         29.0530  -18.1190  -34.8930 N.am  201  LYS201     -0.1980
    182  CA        28.8140  -17.7410  -36.2870 C.3   201  LYS201      0.1596
    183  C         27.6240  -18.5370  -36.7780 C.2   201  LYS201      0.2287
    184  O         26.7790  -18.0260  -37.5370 O.2   201  LYS201     -0.2864
    185  CB        30.0410  -18.0380  -37.1700 C.3   201  LYS201      0.0298
    186  CG        31.0150  -16.8930  -37.3540 C.3   201  LYS201      0.0038
    187  CD        32.1300  -17.3320  -38.3210 C.3   201  LYS201      0.0206
    188  CE        31.5070  -17.9750  -39.6070 C.3   201  LYS201      0.1093
    189  NZ        32.2820  -17.8220  -40.9060 N.3   201  LYS201     -0.1314
    190  N         24.3050  -17.1670  -35.3040 N.3   204  VAL204     -0.1245
    191  CA        23.9360  -15.9780  -36.0510 C.3   204  VAL204      0.1561
    192  C         23.2930  -16.3590  -37.3900 C.2   204  VAL204      0.2260
    193  O         22.2440  -15.8080  -37.7660 O.2   204  VAL204     -0.2867
    194  CB        25.1410  -15.0020  -36.2120 C.3   204  VAL204      0.0252
    195  CG1       24.8120  -13.8430  -37.0710 C.3   204  VAL204      0.0019
    196  CG2       25.6420  -14.5320  -34.8650 C.3   204  VAL204      0.0019
@<TRIPOS>BOND
     1   189   188    1
     2   188   187    1
     3   187   186    1
     4   193   192    2
     5   184   183    2
     6   192   191    1
     7   186   185    1
     8   185   182    1
     9   195   194    1
    10   183   182    1
    11   182   181    1
    12   194   191    1
    13   194   196    1
    14   191   190    1
    15    48    47    2
    16   181   172   am
    17    47    46    1
    18   169   167   ar
    19   164   163    2
    20   173   172    2
    21    46    49    1
    22    46    45    1
    23   166   167    1
    24   166   165    1
    25   172   171    1
    26    49    50    1
    27   167   168   ar
    28   163   162    1
    29   165   162    1
    30   170   171    1
    31   171   174    1
    32   162   161    1
    33   174   175    1
    34    18    19    1
    35    18    17    1
    36    16    17    1
    37    16    15    1
    38    34    36   ar
    39    34    32   ar
    40    40    39    2
    41    29    28    2
    42    12    15    1
    43    12    11    1
    44    12    13    1
    45    36    35   ar
    46    23    22    2
    47    32    31   ar
    48   175   176    1
    49    39    38    1
    50    14    13    2
    51    13    20   am
    52   177   176    1
    53   177   178    2
    54    28    27    1
    55    28    37   am
    56    27    26    1
    57    27    30    1
    58    35    33   ar
    59    31    33   ar
    60    31    30    1
    61    22    26   am
    62    22    21    1
    63   180   178    1
    64    20    21    1
    65   178   179    1
    66    38    37    1
    67    38    41    1
    68    21    24    1
    69    25    24    1
    70    41    42    1
    71   109   107    1
    72   149   146    1
    73   149   150    1
    74    43    42    2
    75    42    44   am
    76   148   147    2
    77   146   147    1
    78   146   145    1
    79   150   151    1
    80     4     3    2
    81   147   152   am
    82     5     6    1
    83     5     2    1
    84   107   104    1
    85   107   108    1
    86   151   145    1
    87   103   104    1
    88   104   105    1
    89     1     2    1
    90     6     7   ar
    91     6     8   ar
    92     7     9   ar
    93     3     2    1
    94     8    10   ar
    95   152   153    1
    96     9    10   ar
    97   155   154    2
    98   153   154    1
    99   153   156    1
   100   105   110   am
   101   105   106    2
   102    51    57    1
   103    51    52    1
   104    57    56    1
   105   110   111    1
   106    52    55    1
   107    52    53    1
   108   157   156    1
   109   157   158    1
   110   113   112    2
   111   115   114    1
   112    55    56    1
   113   111   114    1
   114   111   112    1
   115   116   114    1
   116   158   160   ar
   117   158   159   ar
   118    53    58   am
   119    53    54    2
   120   112   117   am
   121   124   123    2
   122    58    59    1
   123   128   127    2
   124   123   122    1
   125   117   118    1
   126    59    62    1
   127    59    60    1
   128   129   130    1
   129   129   126    1
   130    62    63    1
   131   120   119    2
   132   118   119    1
   133    64    63    1
   134   132   130   ar
   135   132   134   ar
   136   119   121   am
   137   127   126    1
   138   130   131   ar
   139   121   122    1
   140    63    65    1
   141   126   125    1
   142   134   135   ar
   143    60    61    2
   144    60    66   am
   145    77    76    1
   146    74    76   ar
   147    74    72   ar
   148   131   133   ar
   149    76    75   ar
   150    72    71   ar
   151   135   133   ar
   152   135   136    1
   153    66    67    1
   154    75    73   ar
   155    71    73   ar
   156    71    70    1
   157    70    67    1
   158    67    68    1
   159    95    94    2
   160    94    93    1
   161   144   142   am
   162    93    92    1
   163    93    96    1
   164    69    68    2
   165    68    78   am
   166   141   142    1
   167   141   138    1
   168    92    80   am
   169   142   143    2
   170    78    79    1
   171    96    97    1
   172   140   139    2
   173    98    97   ar
   174    98   100   ar
   175    97    99   ar
   176   139   138    1
   177    80    81    2
   178    80    79    1
   179    99   101   ar
   180   100   102   ar
   181   138   137    1
   182   101   102   ar
   183    79    82    1
   184    82    83    1
   185    83    84   ar
   186    83    85   ar
   187    84    86   ar
   188    85    88   ar
   189    85    87   ar
   190    86    87   ar
   191    88    90   ar
   192    87    89   ar
   193    90    91   ar
   194    89    91   ar
