@<TRIPOS>MOLECULE
tmp/3gamA00.pdb
 89 89 0 0 0
SMALL
GASTEIGER

@<TRIPOS>ATOM
      1  N          3.4470   -6.0930  -12.2250 N.3   104  TYR104     -0.1227
      2  CA         3.4000   -5.3760  -13.5300 C.3   104  TYR104      0.1736
      3  C          3.8170   -6.4080  -14.5670 C.2   104  TYR104      0.2595
      4  O          4.9850   -6.8830  -14.5490 O.2   104  TYR104     -0.2718
      5  CB         4.4150   -4.2110  -13.5950 C.3   104  TYR104      0.0548
      6  CG         3.9940   -2.8720  -13.0550 C.ar  104  TYR104     -0.0200
      7  CD1        2.8870   -2.7330  -12.1830 C.ar  104  TYR104     -0.0009
      8  CD2        4.7630   -1.7320  -13.3530 C.ar  104  TYR104     -0.0009
      9  CE1        2.5670   -1.4820  -11.6570 C.ar  104  TYR104      0.0417
     10  CE2        4.4540   -0.4970  -12.8460 C.ar  104  TYR104      0.0417
     11  CZ         3.3630   -0.3780  -11.9710 C.ar  104  TYR104      0.1957
     12  OH         3.0860    0.8870  -11.5060 O.3   104  TYR104     -0.2866
     13  N          2.8500   -6.7900  -15.4310 N.am  105  TRP105     -0.1962
     14  CA         3.1570   -7.7400  -16.4970 C.3   105  TRP105      0.1771
     15  C          3.7410   -9.0450  -15.9770 C.2   105  TRP105      0.2619
     16  O          4.7930   -9.4950  -16.4490 O.2   105  TRP105     -0.2715
     17  CB         4.1100   -7.0970  -17.5000 C.3   105  TRP105      0.0590
     18  CG         3.4470   -6.0460  -18.3000 C.ar  105  TRP105      0.0006
     19  CD1        3.8710   -4.7350  -18.4350 C.ar  105  TRP105      0.0946
     20  CD2        2.2400   -6.1640  -19.0790 C.ar  105  TRP105      0.0152
     21  NE1        3.0140   -4.0390  -19.2710 N.ar  105  TRP105     -0.2442
     22  CE2        1.9970   -4.8850  -19.6710 C.ar  105  TRP105      0.0810
     23  CE3        1.3570   -7.2290  -19.3690 C.ar  105  TRP105      0.0012
     24  CZ2        0.8840   -4.6360  -20.5320 C.ar  105  TRP105      0.0191
     25  CZ3        0.2400   -6.9730  -20.1740 C.ar  105  TRP105      0.0001
     26  CH2        0.0180   -5.6820  -20.7640 C.ar  105  TRP105      0.0015
     27  N          3.0270   -9.6690  -15.0210 N.am  106  PHE106     -0.1974
     28  CA         3.3960  -10.9780  -14.3760 C.3   106  PHE106      0.1639
     29  C          4.7610  -10.9060  -13.7270 C.2   106  PHE106      0.2290
     30  O          5.4040  -11.9410  -13.5580 O.2   106  PHE106     -0.2864
     31  CB         3.4210  -12.1880  -15.3530 C.3   106  PHE106      0.0560
     32  CG         2.0680  -12.8700  -15.5670 C.ar  106  PHE106     -0.0200
     33  CD1        0.8850  -12.1690  -15.4210 C.ar  106  PHE106     -0.0042
     34  CD2        2.0060  -14.2400  -15.9340 C.ar  106  PHE106     -0.0042
     35  CE1       -0.3410  -12.7870  -15.6110 C.ar  106  PHE106     -0.0003
     36  CE2        0.7870  -14.8690  -16.1300 C.ar  106  PHE106     -0.0003
     37  CZ        -0.4020  -14.1400  -15.9980 C.ar  106  PHE106     -0.0000
     38  N         -3.8420   -6.9380   -9.9970 N.3   149  GLY149     -0.1210
     39  CA        -5.1170   -6.4530  -10.4990 C.3   149  GLY149      0.1956
     40  C         -6.1200   -7.5970  -10.7530 C.2   149  GLY149      0.2612
     41  O         -7.2850   -7.3960  -10.6530 O.2   149  GLY149     -0.2717
     42  N         -5.6550   -8.7920  -11.0890 N.am  150  GLY150     -0.1956
     43  CA        -6.5290   -9.9540  -11.3440 C.3   150  GLY150      0.1869
     44  C         -6.9500  -10.7220  -10.0810 C.2   150  GLY150      0.2309
     45  O         -6.2500  -10.7370   -9.0750 O.2   150  GLY150     -0.2863
     46  N         -8.8470  -15.8050  -11.4220 N.3   154  MET154     -0.1230
     47  CA        -8.1180  -15.6620  -12.7000 C.3   154  MET154      0.1702
     48  C         -6.7630  -16.3030  -12.5790 C.2   154  MET154      0.2592
     49  O         -6.2060  -16.8250  -13.5880 O.2   154  MET154     -0.2718
     50  CB        -8.0190  -14.1960  -13.0710 C.3   154  MET154      0.0401
     51  CG        -9.3210  -13.4590  -12.7300 C.3   154  MET154      0.0596
     52  SD        -9.3870  -11.8350  -13.4380 S.3   154  MET154     -0.1393
     53  CE       -10.5560  -10.9050  -12.4520 C.3   154  MET154      0.0692
     54  N         -6.2440  -16.3250  -11.3380 N.am  155  TYR155     -0.1976
     55  CA        -4.9220  -16.9240  -11.0800 C.3   155  TYR155      0.1639
     56  C         -4.9350  -18.4190  -10.6890 C.2   155  TYR155      0.2290
     57  O         -4.1100  -18.8790   -9.8930 O.2   155  TYR155     -0.2864
     58  CB        -4.0210  -16.0580  -10.1370 C.3   155  TYR155      0.0560
     59  CG        -3.4590  -14.8090  -10.8380 C.ar  155  TYR155     -0.0198
     60  CD1       -2.3330  -14.8900  -11.6830 C.ar  155  TYR155     -0.0009
     61  CD2       -4.0750  -13.5820  -10.6780 C.ar  155  TYR155     -0.0009
     62  CE1       -1.8500  -13.7320  -12.3470 C.ar  155  TYR155      0.0417
     63  CE2       -3.6070  -12.4370  -11.3020 C.ar  155  TYR155      0.0417
     64  CZ        -2.4890  -12.5210  -12.1330 C.ar  155  TYR155      0.1957
     65  OH        -2.0820  -11.3660  -12.7720 O.3   155  TYR155     -0.2866
     66  N         -7.7050  -17.6680  -16.6740 N.3   160  VAL160     -0.1231
     67  CA        -7.1040  -16.9990  -17.8590 C.3   160  VAL160      0.1692
     68  C         -5.5830  -16.6940  -17.7570 C.2   160  VAL160      0.2592
     69  O         -4.8490  -16.7350  -18.7790 O.2   160  VAL160     -0.2718
     70  CB        -7.9190  -15.7460  -18.2850 C.3   160  VAL160      0.0266
     71  CG1       -9.2160  -16.1780  -19.0250 C.3   160  VAL160      0.0020
     72  CG2       -8.2420  -14.8300  -17.0790 C.3   160  VAL160      0.0020
     73  N         -5.1270  -16.4020  -16.5270 N.am  161  ASN161     -0.1974
     74  CA        -3.6990  -16.0580  -16.2110 C.3   161  ASN161      0.1688
     75  C         -2.8430  -17.2270  -15.8350 C.2   161  ASN161      0.2292
     76  O         -1.6150  -17.0930  -15.6530 O.2   161  ASN161     -0.2864
     77  CB        -3.6270  -15.0690  -15.0470 C.3   161  ASN161      0.1181
     78  CG        -4.2430  -13.7610  -15.3900 C.2   161  ASN161      0.2629
     79  OD1       -4.3230  -13.4040  -16.5760 O.2   161  ASN161     -0.2716
     80  ND2       -4.7170  -13.0260  -14.3730 N.am  161  ASN161     -0.0877
     81  N         -8.1570   -3.1730   -5.6440 N.3   193  GLU193     -0.1245
     82  CA        -8.7570   -1.9270   -6.1480 C.3   193  GLU193      0.1567
     83  C        -10.2720   -2.0220   -6.2800 C.2   193  GLU193      0.2260
     84  O        -10.9670   -1.0040   -6.2650 O.2   193  GLU193     -0.2867
     85  CB        -8.1890   -1.5280   -7.5110 C.3   193  GLU193      0.0388
     86  CG        -6.9070   -0.6580   -7.4860 C.3   193  GLU193      0.1160
     87  CD        -6.1890   -0.6390   -8.8600 C.2   193  GLU193      0.3649
     88  OE1       -5.8360   -1.7400   -9.4040 O.co2 193  GLU193     -0.2457
     89  OE2       -6.0070    0.4750   -9.3980 O.co2 193  GLU193     -0.2457
@<TRIPOS>BOND
     1    26    24   ar
     2    26    25   ar
     3    24    22   ar
     4    25    23   ar
     5    22    21   ar
     6    22    20   ar
     7    23    20   ar
     8    21    19   ar
     9    20    18   ar
    10    71    70    1
    11    69    68    2
    12    19    18   ar
    13    18    17    1
    14    70    67    1
    15    70    72    1
    16    67    68    1
    17    67    66    1
    18    68    73   am
    19    17    14    1
    20    79    78    2
    21    73    74    1
    22    14    15    1
    23    14    13    1
    24    16    15    2
    25    74    75    1
    26    74    77    1
    27    36    37   ar
    28    36    34   ar
    29    37    35   ar
    30    15    27   am
    31    34    32   ar
    32    75    76    2
    33    35    33   ar
    34    32    33   ar
    35    32    31    1
    36    13     3   am
    37    78    77    1
    38    78    80   am
    39    31    28    1
    40    27    28    1
    41     3     4    2
    42     3     2    1
    43    28    29    1
    44    29    30    2
    45     5     2    1
    46     5     6    1
    47    49    48    2
    48     2     1    1
    49    52    51    1
    50    52    53    1
    51     8     6   ar
    52     8    10   ar
    53    50    51    1
    54    50    47    1
    55     6     7   ar
    56    10    11   ar
    57    65    64    1
    58    47    48    1
    59    47    46    1
    60    48    54   am
    61    62    64   ar
    62    62    60   ar
    63     7     9   ar
    64    64    63   ar
    65    11     9   ar
    66    11    12    1
    67    60    59   ar
    68    43    42    1
    69    43    44    1
    70    54    55    1
    71    63    61   ar
    72    42    40   am
    73    55    56    1
    74    55    58    1
    75    59    61   ar
    76    59    58    1
    77    40    41    2
    78    40    39    1
    79    56    57    2
    80    39    38    1
    81    44    45    2
    82    88    87   ar
    83    89    87   ar
    84    87    86    1
    85    85    86    1
    86    85    82    1
    87    83    84    2
    88    83    82    1
    89    82    81    1
