@<TRIPOS>MOLECULE
tmp/3ganA00.pdb
 161 161 0 0 0
SMALL
GASTEIGER

@<TRIPOS>ATOM
      1  N         50.1510   19.5450    4.5040 N.3     5  ARG5       -0.1245
      2  CA        49.4550   18.4700    3.8140 C.3     5  ARG5        0.1563
      3  C         48.5390   17.7690    4.7940 C.2     5  ARG5        0.2260
      4  O         47.3880   17.5050    4.5020 O.2     5  ARG5       -0.2867
      5  CB        50.4840   17.4970    3.2460 C.3     5  ARG5        0.0307
      6  CG        51.0590   18.0600    1.9570 C.3     5  ARG5        0.0489
      7  CD        52.1390   17.1510    1.3470 C.3     5  ARG5        0.2205
      8  NE        52.3950   17.4940   -0.0620 N.pl3   5  ARG5       -0.0865
      9  CZ        53.4640   18.1780   -0.4810 C.cat   5  ARG5        0.5346
     10  NH1       54.3630   18.5930    0.4010 N.pl3   5  ARG5        0.1354
     11  NH2       53.6330   18.4470   -1.7680 N.pl3   5  ARG5        0.1354
     12  N         44.5660   17.8120    4.5190 N.3     8  TYR8       -0.1241
     13  CA        43.9310   16.4490    4.4730 C.3     8  TYR8        0.1605
     14  C         42.8570   16.2950    5.5720 C.2     8  TYR8        0.2264
     15  O         41.6950   15.9150    5.3190 O.2     8  TYR8       -0.2867
     16  CB        45.0240   15.4030    4.6770 C.3     8  TYR8        0.0534
     17  CG        44.5180   13.9660    4.6190 C.ar    8  TYR8       -0.0201
     18  CD1       44.0610   13.4210    3.4270 C.ar    8  TYR8       -0.0009
     19  CD2       44.4550   13.1800    5.7960 C.ar    8  TYR8       -0.0009
     20  CE1       43.6070   12.0850    3.3520 C.ar    8  TYR8        0.0417
     21  CE2       44.0080   11.8620    5.7550 C.ar    8  TYR8        0.0417
     22  CZ        43.5680   11.3320    4.5380 C.ar    8  TYR8        0.1957
     23  OH        43.1470   10.0420    4.5180 O.3     8  TYR8       -0.2866
     24  N         39.7890   18.5180    5.4450 N.3    11  TYR11      -0.1241
     25  CA        38.8970   18.0280    4.4150 C.3    11  TYR11       0.1605
     26  C         38.1690   16.7740    4.9550 C.2    11  TYR11       0.2264
     27  O         36.9160   16.7480    4.9950 O.2    11  TYR11      -0.2867
     28  CB        39.7100   17.6730    3.1440 C.3    11  TYR11       0.0534
     29  CG        39.0970   16.5710    2.2730 C.ar   11  TYR11      -0.0201
     30  CD1       37.7820   16.6710    1.7260 C.ar   11  TYR11      -0.0009
     31  CD2       39.8380   15.4460    1.9900 C.ar   11  TYR11      -0.0009
     32  CE1       37.2620   15.5920    0.9050 C.ar   11  TYR11       0.0417
     33  CE2       39.3380   14.3950    1.1970 C.ar   11  TYR11       0.0417
     34  CZ        38.0590   14.4750    0.6700 C.ar   11  TYR11       0.1957
     35  OH        37.6720   13.4140   -0.1270 O.3    11  TYR11      -0.2866
     36  N         35.1800   17.0680    7.3620 N.3    13  GLN13      -0.1231
     37  CA        33.8380   17.4310    6.8880 C.3    13  GLN13       0.1698
     38  C         33.1250   16.4150    5.9680 C.2    13  GLN13       0.2592
     39  O         31.9220   16.5190    5.7410 O.2    13  GLN13      -0.2718
     40  CB        33.7770   18.8650    6.2900 C.3    13  GLN13       0.0381
     41  CG        34.9630   19.3350    5.4770 C.3    13  GLN13       0.0905
     42  CD        34.5350   20.4810    4.5400 C.2    13  GLN13       0.2608
     43  OE1       34.0230   21.4830    4.9870 O.2    13  GLN13      -0.2717
     44  NE2       34.6610   20.2800    3.2740 N.am   13  GLN13      -0.0878
     45  N         33.8180   15.4070    5.4570 N.am   14  VAL14      -0.1966
     46  CA        33.1070   14.4740    4.5430 C.3    14  VAL14       0.1712
     47  C         32.0060   13.7150    5.3310 C.2    14  VAL14       0.2458
     48  O         32.3430   13.0670    6.3720 O.2    14  VAL14      -0.2730
     49  CB        34.0590   13.4380    3.9510 C.3    14  VAL14       0.0289
     50  CG1       33.3050   12.5060    2.9720 C.3    14  VAL14       0.0023
     51  CG2       35.2470   14.1420    3.1740 C.3    14  VAL14       0.0023
     52  N         30.7480   13.7690    4.8590 N.am   15  PRO15      -0.2727
     53  CA        29.6490   13.0940    5.5760 C.3    15  PRO15       0.1402
     54  C         29.8020   11.5890    5.5330 C.2    15  PRO15       0.2269
     55  O         30.2730   11.0420    4.5410 O.2    15  PRO15      -0.2865
     56  CB        28.3890   13.4360    4.7670 C.3    15  PRO15       0.0296
     57  CG        28.7860   14.7740    3.9780 C.3    15  PRO15       0.0237
     58  CD        30.2900   14.6010    3.7180 C.3    15  PRO15       0.0939
     59  N         34.2820    1.9160   -1.0280 N.3    36  LYS36      -0.1245
     60  CA        34.7540    3.1500   -1.6370 C.3    36  LYS36       0.1561
     61  C         34.1230    3.3200   -3.0380 C.2    36  LYS36       0.2260
     62  O         33.6490    4.4070   -3.3580 O.2    36  LYS36      -0.2867
     63  CB        36.2650    3.1280   -1.7550 C.3    36  LYS36       0.0271
     64  CG        36.9580    3.2840   -0.4030 C.3    36  LYS36       0.0035
     65  CD        38.4610    2.8000   -0.5700 C.3    36  LYS36       0.0206
     66  CE        39.1370    2.7580    0.7830 C.3    36  LYS36       0.1093
     67  NZ        40.6380    2.6950    0.5910 N.3    36  LYS36      -0.1314
     68  N         31.2480    5.9320   -3.5310 N.3    40  GLY40      -0.1210
     69  CA        32.0510    7.0640   -4.0370 C.3    40  GLY40       0.1956
     70  C         32.6290    7.9040   -2.8960 C.2    40  GLY40       0.2612
     71  O         32.5380    9.1310   -2.8920 O.2    40  GLY40      -0.2717
     72  N         33.2210    7.2320   -1.9130 N.am   41  GLN41      -0.1966
     73  CA        33.8220    7.9110   -0.7300 C.3    41  GLN41       0.1718
     74  C         35.2550    7.5090   -0.5360 C.2    41  GLN41       0.2458
     75  O         35.6730    6.3720   -0.9230 O.2    41  GLN41      -0.2730
     76  CB        33.0670    7.4720    0.5520 C.3    41  GLN41       0.0407
     77  CG        31.7040    8.1060    0.7320 C.3    41  GLN41       0.0908
     78  CD        31.6060    9.0710    1.9230 C.2    41  GLN41       0.2608
     79  OE1       32.3390    8.9700    2.8710 O.2    41  GLN41      -0.2717
     80  NE2       30.6550    9.9930    1.8580 N.am   41  GLN41      -0.0878
     81  N         36.0580    8.4060    0.0710 N.am   42  PRO42      -0.2727
     82  CA        37.3750    7.9760    0.5300 C.3    42  PRO42       0.1402
     83  C         37.2780    7.3300    1.9200 C.2    42  PRO42       0.2269
     84  O         36.3420    7.5680    2.6110 O.2    42  PRO42      -0.2865
     85  CB        38.1120    9.3120    0.7320 C.3    42  PRO42       0.0296
     86  CG        37.0000   10.2660    1.1970 C.3    42  PRO42       0.0237
     87  CD        35.6830    9.7440    0.5680 C.3    42  PRO42       0.0939
     88  N         53.0290   10.3110    9.5310 N.3    94  TRP94      -0.1241
     89  CA        53.5240   10.2190    8.1530 C.3    94  TRP94       0.1605
     90  C         55.0390   10.3790    8.0860 C.2    94  TRP94       0.2264
     91  O         55.6780    9.7410    7.2660 O.2    94  TRP94      -0.2867
     92  CB        52.8470   11.2470    7.2700 C.3    94  TRP94       0.0550
     93  CG        51.3700   11.0380    7.1720 C.ar   94  TRP94       0.0003
     94  CD1       50.6620    9.8830    7.4800 C.ar   94  TRP94       0.0946
     95  CD2       50.4110   11.9730    6.6640 C.ar   94  TRP94       0.0152
     96  NE1       49.3250   10.0830    7.2170 N.ar   94  TRP94      -0.2442
     97  CE2       49.1430   11.3560    6.7340 C.ar   94  TRP94       0.0810
     98  CE3       50.4970   13.3030    6.2180 C.ar   94  TRP94       0.0012
     99  CZ2       47.9800   11.9890    6.2920 C.ar   94  TRP94       0.0191
    100  CZ3       49.3420   13.9420    5.8020 C.ar   94  TRP94       0.0001
    101  CH2       48.0950   13.2780    5.8350 C.ar   94  TRP94       0.0015
    102  N         53.6150    5.8520    3.6100 N.3    99  TYR99      -0.1227
    103  CA        52.3210    6.3050    4.1320 C.3    99  TYR99       0.1736
    104  C         51.3110    6.6890    3.0480 C.2    99  TYR99       0.2595
    105  O         50.1180    6.4850    3.2290 O.2    99  TYR99      -0.2718
    106  CB        52.4760    7.4500    5.1310 C.3    99  TYR99       0.0548
    107  CG        52.6910    8.7720    4.4760 C.ar   99  TYR99      -0.0200
    108  CD1       51.6270    9.5660    4.1110 C.ar   99  TYR99      -0.0009
    109  CD2       53.9840    9.2340    4.2030 C.ar   99  TYR99      -0.0009
    110  CE1       51.8390   10.7890    3.4890 C.ar   99  TYR99       0.0417
    111  CE2       54.1960   10.4460    3.6130 C.ar   99  TYR99       0.0417
    112  CZ        53.1270   11.2120    3.2620 C.ar   99  TYR99       0.1957
    113  OH        53.3440   12.4080    2.6590 O.3    99  TYR99      -0.2866
    114  N         51.7700    7.2680    1.9320 N.am  100  HIS100     -0.1975
    115  CA        50.8400    7.6350    0.8500 C.3   100  HIS100      0.1656
    116  C         50.1320    6.3970    0.2510 C.2   100  HIS100      0.2291
    117  O         49.0860    6.5460   -0.3330 O.2   100  HIS100     -0.2864
    118  CB        51.5680    8.3740   -0.2770 C.3   100  HIS100      0.0771
    119  CG        52.7620    7.6160   -0.7510 C.ar  100  HIS100      0.0820
    120  ND1       54.0270    8.1630   -0.8050 N.ar  100  HIS100     -0.2267
    121  CD2       52.8990    6.3090   -1.0970 C.ar  100  HIS100      0.1154
    122  CE1       54.8830    7.2380   -1.2130 C.ar  100  HIS100      0.1986
    123  NE2       54.2270    6.1000   -1.3810 N.ar  100  HIS100     -0.2212
    124  N         46.6460    6.3740    1.5720 N.3   103  ILE103     -0.1231
    125  CA        45.7980    7.5400    1.3180 C.3   103  ILE103      0.1692
    126  C         45.1010    7.2860    0.0030 C.2   103  ILE103      0.2592
    127  O         45.7780    6.9120   -0.9740 O.2   103  ILE103     -0.2718
    128  CB        46.6130    8.8170    1.2670 C.3   103  ILE103      0.0266
    129  CG1       47.2490    9.0610    2.6530 C.3   103  ILE103      0.0019
    130  CG2       45.7310   10.0050    0.8490 C.3   103  ILE103      0.0020
    131  CD1       47.7970   10.4370    2.7840 C.3   103  ILE103      0.0001
    132  N         43.7720    7.3880   -0.0480 N.am  104  ASP104     -0.1960
    133  CA        43.0870    7.1470   -1.3350 C.3   104  ASP104      0.1825
    134  C         43.4960    8.2000   -2.3900 C.2   104  ASP104      0.2464
    135  O         43.5060    9.3930   -2.0670 O.2   104  ASP104     -0.2730
    136  CB        41.5690    7.3000   -1.2210 C.3   104  ASP104      0.1450
    137  CG        40.9210    6.2200   -0.3370 C.2   104  ASP104      0.3671
    138  OD1       41.6280    5.3250    0.1260 O.co2 104  ASP104     -0.2456
    139  OD2       39.6980    6.2800   -0.1340 O.co2 104  ASP104     -0.2456
    140  N         43.7000    7.7800   -3.6520 N.am  105  PRO105     -0.2715
    141  CA        43.9010    8.7930   -4.7120 C.3   105  PRO105      0.1536
    142  C         42.6830    9.6870   -4.8090 C.2   105  PRO105      0.2598
    143  O         41.5360    9.2790   -4.5410 O.2   105  PRO105     -0.2715
    144  CB        44.0090    8.0020   -6.0280 C.3   105  PRO105      0.0310
    145  CG        43.5630    6.5500   -5.6920 C.3   105  PRO105      0.0237
    146  CD        43.5650    6.3890   -4.1580 C.3   105  PRO105      0.0939
    147  N         42.9050   10.8790   -5.3160 N.am  106  ILE106     -0.1978
    148  CA        41.7890   11.8000   -5.6060 C.3   106  ILE106      0.1596
    149  C         40.8660   11.2320   -6.6870 C.2   106  ILE106      0.2287
    150  O         39.6460   11.3900   -6.6340 O.2   106  ILE106     -0.2864
    151  CB        42.3180   13.1760   -6.0520 C.3   106  ILE106      0.0276
    152  CG1       43.1040   13.7910   -4.8740 C.3   106  ILE106      0.0022
    153  CG2       41.1210   14.0950   -6.5440 C.3   106  ILE106      0.0022
    154  CD1       43.6940   15.2440   -5.1610 C.3   106  ILE106      0.0001
    155  N         40.2260    7.7290   -7.9890 N.3   108  PRO108     -0.2116
    156  CA        40.3730    6.2420   -7.9140 C.3   108  PRO108      0.1372
    157  C         40.1300    5.5510   -9.2500 C.2   108  PRO108      0.2244
    158  O         39.2330    5.9960   -9.9620 O.2   108  PRO108     -0.2868
    159  CB        39.2820    5.8180   -6.8940 C.3   108  PRO108      0.0268
    160  CG        39.0210    7.0790   -6.0310 C.3   108  PRO108      0.0207
    161  CD        39.2200    8.2410   -7.0120 C.3   108  PRO108      0.0892
@<TRIPOS>BOND
     1   158   157    2
     2   157   156    1
     3   155   156    1
     4   155   161    1
     5   156   159    1
     6   161   160    1
     7   159   160    1
     8   149   150    2
     9   149   148    1
    10   153   151    1
    11   151   148    1
    12   151   152    1
    13   144   145    1
    14   144   141    1
    15   145   146    1
    16   148   147    1
    17   147   142   am
    18   154   152    1
    19   142   141    1
    20   142   143    2
    21   141   140    1
    22   146   140    1
    23    69    68    1
    24    69    70    1
    25   140   134   am
    26    62    61    2
    27    61    60    1
    28    70    71    2
    29    70    72   am
    30   134   135    2
    31   134   133    1
    32    72    73    1
    33    11     9    1
    34    63    60    1
    35    63    64    1
    36    60    59    1
    37   123   122   ar
    38   123   121   ar
    39   133   136    1
    40   133   132    1
    41   136   137    1
    42   122   120   ar
    43   121   119   ar
    44   127   126    2
    45    75    74    2
    46   120   119   ar
    47   119   118    1
    48    73    74    1
    49    73    76    1
    50    65    64    1
    51    65    66    1
    52    74    81   am
    53     9     8    2
    54     9    10    1
    55   137   139   ar
    56   137   138   ar
    57   117   116    2
    58   118   115    1
    59    35    34    1
    60     8     7    1
    61   132   126   am
    62   126   125    1
    63    81    82    1
    64    81    87    1
    65   116   115    1
    66    82    85    1
    67    82    83    1
    68    76    77    1
    69    87    86    1
    70    67    66    1
    71    34    32   ar
    72    34    33   ar
    73    77    78    1
    74    85    86    1
    75   130   128    1
    76   115   114    1
    77    32    30   ar
    78    33    31   ar
    79   128   125    1
    80   128   129    1
    81   125   124    1
    82     7     6    1
    83    30    29   ar
    84    80    78   am
    85    83    84    2
    86    78    79    2
    87   114   104   am
    88     6     5    1
    89    31    29   ar
    90    29    28    1
    91   129   131    1
    92   113   112    1
    93    50    49    1
    94   104   105    2
    95   104   103    1
    96    28    25    1
    97    51    49    1
    98     5     2    1
    99   112   110   ar
   100   112   111   ar
   101    44    42   am
   102    20    18   ar
   103    20    22   ar
   104    18    17   ar
   105   110   108   ar
   106   102   103    1
   107   111   109   ar
   108    58    57    1
   109    58    52    1
   110     2     1    1
   111     2     3    1
   112    49    46    1
   113    57    56    1
   114   108   107   ar
   115   103   106    1
   116   109   107   ar
   117    25    26    1
   118    25    24    1
   119    13    12    1
   120    13    16    1
   121    13    14    1
   122   107   106    1
   123     4     3    2
   124    23    22    1
   125    22    21   ar
   126    42    43    2
   127    42    41    1
   128    55    54    2
   129    46    47    1
   130    46    45    1
   131    17    16    1
   132    17    19   ar
   133    56    53    1
   134    52    47   am
   135    52    53    1
   136    26    27    2
   137    15    14    2
   138    47    48    2
   139    45    38   am
   140    41    40    1
   141    54    53    1
   142    39    38    2
   143    21    19   ar
   144   100   101   ar
   145   100    98   ar
   146   101    99   ar
   147    38    37    1
   148    98    95   ar
   149    40    37    1
   150    99    97   ar
   151    95    97   ar
   152    95    93   ar
   153    97    96   ar
   154    37    36    1
   155    93    92    1
   156    93    94   ar
   157    96    94   ar
   158    91    90    2
   159    92    89    1
   160    90    89    1
   161    89    88    1
