@<TRIPOS>MOLECULE
tmp/3gasF01.pdb
 157 151 0 0 0
SMALL
GASTEIGER

@<TRIPOS>ATOM
      1  N         40.2330   10.0920    5.6450 N.3    20  LYS20      -0.1231
      2  CA        41.1450   11.2350    5.6810 C.3    20  LYS20       0.1693
      3  C         42.5240   10.9200    6.2430 C.2    20  LYS20       0.2592
      4  O         43.5410   11.1670    5.5910 O.2    20  LYS20      -0.2718
      5  CB        40.5170   12.3650    6.4930 C.3    20  LYS20       0.0285
      6  CG        41.3880   13.6250    6.5790 C.3    20  LYS20       0.0035
      7  CD        40.6360   14.7700    7.2460 C.3    20  LYS20       0.0206
      8  CE        41.4340   16.0740    7.1900 C.3    20  LYS20       0.1093
      9  NZ        40.5790   17.2560    7.5280 N.3    20  LYS20      -0.1314
     10  N         42.5600   10.3640    7.4490 N.am   21  PHE21      -0.1976
     11  CA        43.8260   10.0810    8.1150 C.3    21  PHE21       0.1639
     12  C         44.4530    8.7300    7.8500 C.2    21  PHE21       0.2290
     13  O         45.6600    8.5770    8.0160 O.2    21  PHE21      -0.2864
     14  CB        43.6620   10.2980    9.6190 C.3    21  PHE21       0.0560
     15  CG        43.3460   11.7250    9.9780 C.ar   21  PHE21      -0.0200
     16  CD1       44.3260   12.7090    9.8930 C.ar   21  PHE21      -0.0042
     17  CD2       42.0600   12.1000   10.3240 C.ar   21  PHE21      -0.0042
     18  CE1       44.0100   14.0390   10.1440 C.ar   21  PHE21      -0.0003
     19  CE2       41.7360   13.4270   10.5770 C.ar   21  PHE21      -0.0003
     20  CZ        42.7150   14.3990   10.4860 C.ar   21  PHE21      -0.0000
     21  N         44.3140    7.3950   15.7040 N.3    52  ILE52      -0.1231
     22  CA        44.4540    8.7820   15.2670 C.3    52  ILE52       0.1692
     23  C         44.7830    9.5940   16.5110 C.2    52  ILE52       0.2591
     24  O         44.0250    9.5990   17.4740 O.2    52  ILE52      -0.2718
     25  CB        43.1670    9.3300   14.6490 C.3    52  ILE52       0.0266
     26  CG1       42.7920    8.5190   13.4110 C.3    52  ILE52       0.0019
     27  CG2       43.3740   10.7820   14.2610 C.3    52  ILE52       0.0020
     28  CD1       41.4840    8.9840   12.7650 C.3    52  ILE52       0.0001
     29  N         45.9240   10.2680   16.5070 N.am   53  GLU53      -0.1979
     30  CA        46.2950   11.0490   17.6800 C.3    53  GLU53       0.1602
     31  C         45.6350   12.4010   17.7700 C.2    53  GLU53       0.2287
     32  O         45.3830   13.0630   16.7560 O.2    53  GLU53      -0.2864
     33  CB        47.8150   11.2370   17.7280 C.3    53  GLU53       0.0415
     34  CG        48.5790    9.9410   17.9190 C.3    53  GLU53       0.1163
     35  CD        50.0690   10.1770   18.0950 C.2    53  GLU53       0.3649
     36  OE1       50.7330   10.5330   17.1070 O.co2  53  GLU53      -0.2457
     37  OE2       50.5750   10.0150   19.2290 O.co2  53  GLU53      -0.2457
     38  N         54.9320   20.6250   16.8400 N.3   157  ILE157     -0.1245
     39  CA        54.7440   20.2720   15.4310 C.3   157  ILE157      0.1561
     40  C         53.4940   20.8570   14.8150 C.2   157  ILE157      0.2260
     41  O         53.2220   20.6600   13.6250 O.2   157  ILE157     -0.2867
     42  CB        54.7350   18.7400   15.1840 C.3   157  ILE157      0.0252
     43  CG1       53.4700   18.0870   15.7790 C.3   157  ILE157      0.0019
     44  CG2       55.9760   18.1160   15.7530 C.3   157  ILE157      0.0019
     45  CD1       53.3400   16.6380   15.3280 C.3   157  ILE157      0.0001
     46  N         50.0700   28.7600   11.4920 N.3   161  ARG161     -0.1245
     47  CA        50.8430   29.7560   10.7480 C.3   161  ARG161      0.1563
     48  C         50.1540   30.1870    9.4730 C.2   161  ARG161      0.2260
     49  O         49.3720   29.4280    8.8640 O.2   161  ARG161     -0.2867
     50  CB        52.2640   29.2380   10.4470 C.3   161  ARG161      0.0307
     51  CG        52.3670   28.0900    9.4360 C.3   161  ARG161      0.0489
     52  CD        52.3430   26.7630   10.1660 C.3   161  ARG161      0.2205
     53  NE        52.6460   25.5800    9.3460 N.pl3 161  ARG161     -0.0865
     54  CZ        52.4470   24.3410    9.8010 C.cat 161  ARG161      0.5346
     55  NH1       51.9750   24.1860   11.0250 N.pl3 161  ARG161      0.1354
     56  NH2       52.6730   23.2660    9.0480 N.pl3 161  ARG161      0.1354
     57  N         51.3290   32.2370    5.9570 N.3   163  ARG163     -0.1245
     58  CA        52.4770   32.7320    5.1910 C.3   163  ARG163      0.1563
     59  C         52.0180   33.3190    3.8730 C.2   163  ARG163      0.2260
     60  O         51.2020   32.7000    3.1740 O.2   163  ARG163     -0.2867
     61  CB        53.4340   31.5660    4.8870 C.3   163  ARG163      0.0307
     62  CG        54.0890   30.9770    6.1570 C.3   163  ARG163      0.0489
     63  CD        54.6560   29.5760    5.9160 C.3   163  ARG163      0.2205
     64  NE        55.3790   29.5810    4.6680 N.pl3 163  ARG163     -0.0865
     65  CZ        55.0730   28.8190    3.6330 C.cat 163  ARG163      0.5346
     66  NH1       54.0710   27.9560    3.7130 N.pl3 163  ARG163      0.1354
     67  NH2       55.7020   29.0000    2.4910 N.pl3 163  ARG163      0.1354
     68  N         49.3570   30.7510    2.4670 N.3   213  ARG213     -0.1245
     69  CA        49.1360   29.3780    2.9150 C.3   213  ARG213      0.1563
     70  C         48.8040   29.4660    4.4070 C.2   213  ARG213      0.2260
     71  O         49.5620   30.0340    5.1710 O.2   213  ARG213     -0.2867
     72  CB        50.4050   28.5270    2.7030 C.3   213  ARG213      0.0307
     73  CG        50.4380   27.1810    3.4890 C.3   213  ARG213      0.0489
     74  CD        49.2710   26.2160    3.1580 C.3   213  ARG213      0.2205
     75  NE        49.1950   25.8180    1.7500 N.pl3 213  ARG213     -0.0865
     76  CZ        49.9370   24.8680    1.1840 C.cat 213  ARG213      0.5346
     77  NH1       50.8340   24.1930    1.9100 N.pl3 213  ARG213      0.1354
     78  NH2       49.7730   24.5700   -0.1160 N.pl3 213  ARG213      0.1354
     79  N         47.8020   27.1850    7.8400 N.3   215  VAL215     -0.1245
     80  CA        47.7070   25.8490    8.4240 C.3   215  VAL215      0.1561
     81  C         47.2010   26.0110    9.8440 C.2   215  VAL215      0.2260
     82  O         47.8510   26.6630   10.6740 O.2   215  VAL215     -0.2867
     83  CB        49.0590   25.0960    8.4980 C.3   215  VAL215      0.0252
     84  CG1       48.8260   23.6920    9.0760 C.3   215  VAL215      0.0019
     85  CG2       49.6750   24.9890    7.1510 C.3   215  VAL215      0.0019
     86  N         45.9950   19.4830   11.6970 N.3   218  PHE218     -0.1227
     87  CA        46.4830   18.4040   10.8460 C.3   218  PHE218      0.1736
     88  C         45.4400   18.1790    9.7530 C.2   218  PHE218      0.2596
     89  O         44.2410   18.0140   10.0330 O.2   218  PHE218     -0.2718
     90  CB        46.7070   17.1440   11.6620 C.3   218  PHE218      0.0547
     91  CG        47.7860   17.2940   12.7090 C.ar  218  PHE218     -0.0202
     92  CD1       49.0560   17.7650   12.3550 C.ar  218  PHE218     -0.0042
     93  CD2       47.5560   16.9160   14.0240 C.ar  218  PHE218     -0.0042
     94  CE1       50.0850   17.8470   13.3120 C.ar  218  PHE218     -0.0003
     95  CE2       48.5790   16.9920   14.9870 C.ar  218  PHE218     -0.0003
     96  CZ        49.8430   17.4580   14.6210 C.ar  218  PHE218     -0.0000
     97  N         45.8930   18.1830    8.5090 N.am  219  GLY219     -0.1957
     98  CA        44.9550   18.0230    7.4090 C.3   219  GLY219      0.1869
     99  C         44.0360   19.2300    7.2900 C.2   219  GLY219      0.2309
    100  O         42.9130   19.1130    6.7700 O.2   219  GLY219     -0.2863
    101  N         45.0280   22.5990    5.9520 N.3   221  ALA221     -0.1245
    102  CA        45.8720   23.5840    5.2730 C.3   221  ALA221      0.1562
    103  C         45.0250   24.1840    4.1530 C.2   221  ALA221      0.2260
    104  O         44.2460   23.4770    3.5080 O.2   221  ALA221     -0.2867
    105  CB        47.0970   22.9030    4.6740 C.3   221  ALA221      0.0290
    106  N         40.6550   24.6790    0.3450 N.3   231  TYR231     -0.1227
    107  CA        41.2410   23.5980    1.1340 C.3   231  TYR231      0.1736
    108  C         42.2730   22.8700    0.2700 C.2   231  TYR231      0.2595
    109  O         42.0380   22.5970   -0.9180 O.2   231  TYR231     -0.2718
    110  CB        40.1420   22.6320    1.5830 C.3   231  TYR231      0.0548
    111  CG        40.6440   21.4100    2.3000 C.ar  231  TYR231     -0.0200
    112  CD1       41.5120   21.5200    3.3890 C.ar  231  TYR231     -0.0009
    113  CD2       40.2380   20.1410    1.9090 C.ar  231  TYR231     -0.0009
    114  CE1       41.9570   20.3960    4.0670 C.ar  231  TYR231      0.0417
    115  CE2       40.6780   19.0090    2.5860 C.ar  231  TYR231      0.0417
    116  CZ        41.5300   19.1430    3.6590 C.ar  231  TYR231      0.1957
    117  OH        41.9280   18.0210    4.3350 O.3   231  TYR231     -0.2866
    118  N         43.4170   22.5310    0.8570 N.am  232  VAL232     -0.1966
    119  CA        44.4590   21.8770    0.0900 C.3   232  VAL232      0.1727
    120  C         44.4010   20.3500   -0.0150 C.2   232  VAL232      0.2616
    121  O         44.8840   19.7770   -0.9920 O.2   232  VAL232     -0.2715
    122  CB        45.8470   22.3260    0.6210 C.3   232  VAL232      0.0290
    123  CG1       46.9520   21.5290   -0.0230 C.3   232  VAL232      0.0023
    124  CG2       46.0290   23.8190    0.3280 C.3   232  VAL232      0.0023
    125  N         43.7920   19.6730    0.9450 N.am  233  GLY233     -0.1955
    126  CA        43.7930   18.2150    0.8610 C.3   233  GLY233      0.1869
    127  C         42.5650   17.4050    0.4800 C.2   233  GLY233      0.2309
    128  O         42.2280   16.4360    1.1780 O.2   233  GLY233     -0.2863
    129  N         42.9710   13.7090    0.6170 N.3   236  GLY236     -0.1210
    130  CA        43.3390   13.0460    1.8510 C.3   236  GLY236      0.1956
    131  C         44.8360   13.0470    2.1030 C.2   236  GLY236      0.2612
    132  O         45.6290   13.5510    1.3040 O.2   236  GLY236     -0.2717
    133  N         45.2070   12.4590    3.2310 N.am  237  ASN237     -0.1960
    134  CA        46.5880   12.3760    3.6740 C.3   237  ASN237      0.1804
    135  C         47.5710   12.2400    2.5080 C.2   237  ASN237      0.2463
    136  O         47.5200   11.2670    1.7720 O.2   237  ASN237     -0.2730
    137  CB        46.7080   11.1910    4.6310 C.3   237  ASN237      0.1195
    138  CG        47.8720   11.3230    5.5750 C.2   237  ASN237      0.2630
    139  OD1       48.8620   11.9650    5.2440 O.2   237  ASN237     -0.2716
    140  ND2       47.7720   10.6990    6.7530 N.am  237  ASN237     -0.0877
    141  N         48.4770   13.2240    2.3220 N.am  238  PRO238     -0.2716
    142  CA        49.4730   13.2070    1.2430 C.3   238  PRO238      0.1536
    143  C         50.7860   12.6470    1.7790 C.2   238  PRO238      0.2598
    144  O         51.7280   12.4170    1.0280 O.2   238  PRO238     -0.2715
    145  CB        49.6060   14.6720    0.8920 C.3   238  PRO238      0.0310
    146  CG        49.6670   15.2810    2.2940 C.3   238  PRO238      0.0237
    147  CD        48.5840   14.4830    3.0800 C.3   238  PRO238      0.0939
    148  N         50.8440   12.4570    3.0950 N.am  239  HIS239     -0.1974
    149  CA        52.0320   11.9130    3.7280 C.3   239  HIS239      0.1656
    150  C         52.2100   10.4460    3.3250 C.2   239  HIS239      0.2291
    151  O         51.3380    9.8700    2.6610 O.2   239  HIS239     -0.2864
    152  CB        51.9170   12.0710    5.2380 C.3   239  HIS239      0.0771
    153  CG        51.8200   13.5040    5.6820 C.ar  239  HIS239      0.0820
    154  ND1       52.8460   14.4100    5.5070 N.ar  239  HIS239     -0.2267
    155  CD2       50.8090   14.1920    6.2690 C.ar  239  HIS239      0.1154
    156  CE1       52.4710   15.5920    5.9650 C.ar  239  HIS239      0.1986
    157  NE2       51.2400   15.4870    6.4300 N.ar  239  HIS239     -0.2212
@<TRIPOS>BOND
     1   121   120    2
     2   109   108    2
     3    78    76    1
     4   123   122    1
     5   120   119    1
     6   120   125   am
     7   119   122    1
     8   119   118    1
     9   108   118   am
    10   108   107    1
    11   124   122    1
    12   106   107    1
    13   127   126    1
    14   127   128    2
    15   129   130    1
    16   126   125    1
    17   145   142    1
    18   145   146    1
    19   144   143    2
    20   107   110    1
    21    76    75    2
    22    76    77    1
    23   142   143    1
    24   142   141    1
    25   132   131    2
    26   110   111    1
    27    75    74    1
    28   136   135    2
    29   143   148   am
    30   130   131    1
    31   113   111   ar
    32   113   115   ar
    33   131   133   am
    34   146   147    1
    35   111   112   ar
    36   141   135   am
    37   141   147    1
    38    68    69    1
    39    67    65    1
    40   135   134    1
    41   115   116   ar
    42   151   150    2
    43    72    69    1
    44    72    73    1
    45    69    70    1
    46   148   149    1
    47    74    73    1
    48    60    59    2
    49   133   134    1
    50   150   149    1
    51   112   114   ar
    52   104   103    2
    53    65    66    1
    54    65    64    2
    55   116   114   ar
    56   116   117    1
    57   134   137    1
    58   149   152    1
    59    59    58    1
    60   103   102    1
    61    70    71    2
    62   137   138    1
    63    64    63    1
    64   105   102    1
    65    61    58    1
    66    61    62    1
    67    58    57    1
    68   152   153    1
    69   139   138    2
    70   102   101    1
    71   154   153   ar
    72   154   156   ar
    73   138   140   am
    74     4     3    2
    75     1     2    1
    76     2     3    1
    77     2     5    1
    78   153   155   ar
    79    63    62    1
    80   156   157   ar
    81     3    10   am
    82   155   157   ar
    83     5     6    1
    84     6     7    1
    85   100    99    2
    86    85    83    1
    87     8     7    1
    88     8     9    1
    89    99    98    1
    90    98    97    1
    91    10    11    1
    92    79    80    1
    93    12    13    2
    94    12    11    1
    95    11    14    1
    96    80    83    1
    97    80    81    1
    98    83    84    1
    99    97    88   am
   100    49    48    2
   101    56    54    1
   102    53    54    2
   103    53    52    1
   104    51    52    1
   105    51    50    1
   106    48    47    1
   107    14    15    1
   108    88    89    2
   109    88    87    1
   110    54    55    1
   111    81    82    2
   112    16    15   ar
   113    16    18   ar
   114    15    17   ar
   115    18    20   ar
   116    17    19   ar
   117    50    47    1
   118    20    19   ar
   119    47    46    1
   120    87    90    1
   121    87    86    1
   122    90    91    1
   123    92    91   ar
   124    92    94   ar
   125    91    93   ar
   126    28    26    1
   127    94    96   ar
   128    26    25    1
   129    41    40    2
   130    93    95   ar
   131    27    25    1
   132    96    95   ar
   133    25    22    1
   134    40    39    1
   135    42    39    1
   136    42    44    1
   137    42    43    1
   138    22    21    1
   139    22    23    1
   140    45    43    1
   141    39    38    1
   142    29    23   am
   143    29    30    1
   144    23    24    2
   145    32    31    2
   146    36    35   ar
   147    30    33    1
   148    30    31    1
   149    33    34    1
   150    34    35    1
   151    35    37   ar
