@<TRIPOS>MOLECULE
tmp/3gasF00.pdb
 114 113 0 0 0
SMALL
GASTEIGER

@<TRIPOS>ATOM
      1  N         62.6970   39.0050   11.8830 N.3   113  TYR113     -0.1227
      2  CA        61.3610   39.3770   12.2900 C.3   113  TYR113      0.1736
      3  C         61.2610   40.8870   12.3760 C.2   113  TYR113      0.2595
      4  O         62.2860   41.5920   12.5620 O.2   113  TYR113     -0.2718
      5  CB        60.9940   38.7060   13.6340 C.3   113  TYR113      0.0548
      6  CG        60.9680   39.6600   14.7890 C.ar  113  TYR113     -0.0200
      7  CD1       59.8070   40.3550   15.1170 C.ar  113  TYR113     -0.0009
      8  CD2       62.1230   39.9230   15.5150 C.ar  113  TYR113     -0.0009
      9  CE1       59.7960   41.2860   16.1360 C.ar  113  TYR113      0.0417
     10  CE2       62.1290   40.8510   16.5370 C.ar  113  TYR113      0.0417
     11  CZ        60.9710   41.5300   16.8440 C.ar  113  TYR113      0.1957
     12  OH        60.9790   42.4540   17.8550 O.3   113  TYR113     -0.2866
     13  N         60.0460   41.4110   12.2090 N.am  114  ALA114     -0.1966
     14  CA        59.8600   42.8420   12.3160 C.3   114  ALA114      0.1713
     15  C         58.5300   43.1710   12.9460 C.2   114  ALA114      0.2458
     16  O         57.5900   42.3690   12.8880 O.2   114  ALA114     -0.2730
     17  CB        59.9180   43.4980   10.9390 C.3   114  ALA114      0.0333
     18  N         58.4470   44.3450   13.5820 N.am  115  PRO115     -0.2727
     19  CA        57.2110   44.8150   14.2160 C.3   115  PRO115      0.1402
     20  C         56.2060   44.9810   13.0550 C.2   115  PRO115      0.2269
     21  O         56.5950   45.3660   11.9420 O.2   115  PRO115     -0.2865
     22  CB        57.5780   46.1910   14.7610 C.3   115  PRO115      0.0296
     23  CG        59.0480   46.1610   14.9370 C.3   115  PRO115      0.0237
     24  CD        59.5950   45.2360   13.8670 C.3   115  PRO115      0.0939
     25  N         58.0720   47.7810   10.1600 N.3   125  TYR125     -0.1227
     26  CA        58.8910   48.9500   10.4540 C.3   125  TYR125      0.1736
     27  C         60.2670   48.3750   10.7840 C.2   125  TYR125      0.2595
     28  O         60.4210   47.6610   11.7660 O.2   125  TYR125     -0.2718
     29  CB        58.3120   49.6760   11.6550 C.3   125  TYR125      0.0548
     30  CG        58.9350   51.0300   11.9180 C.ar  125  TYR125     -0.0200
     31  CD1       58.7680   52.0720   11.0110 C.ar  125  TYR125     -0.0009
     32  CD2       59.6470   51.2700   13.0920 C.ar  125  TYR125     -0.0009
     33  CE1       59.2940   53.3470   11.2610 C.ar  125  TYR125      0.0417
     34  CE2       60.1760   52.5460   13.3650 C.ar  125  TYR125      0.0417
     35  CZ        59.9870   53.5740   12.4420 C.ar  125  TYR125      0.1957
     36  OH        60.4720   54.8430   12.6970 O.3   125  TYR125     -0.2866
     37  N         61.2480   48.7170    9.9630 N.am  126  VAL126     -0.1966
     38  CA        62.5880   48.1680   10.0930 C.3   126  VAL126      0.1727
     39  C         63.6840   49.2120    9.9380 C.2   126  VAL126      0.2616
     40  O         63.4590   50.2910    9.3780 O.2   126  VAL126     -0.2715
     41  CB        62.8140   47.0730    9.0120 C.3   126  VAL126      0.0290
     42  CG1       61.8390   45.9150    9.2280 C.3   126  VAL126      0.0023
     43  CG2       62.6010   47.6600    7.5990 C.3   126  VAL126      0.0023
     44  N         64.8810   48.8560   10.4010 N.am  127  SER127     -0.1950
     45  CA        66.0360   49.7530   10.3350 C.3   127  SER127      0.1924
     46  C         67.0930   49.3650    9.3010 C.2   127  SER127      0.2314
     47  O         67.3400   48.1930    9.0760 O.2   127  SER127     -0.2863
     48  CB        66.7280   49.7890   11.6980 C.3   127  SER127      0.2116
     49  OG        67.9700   50.4790   11.6030 O.3   127  SER127     -0.2180
     50  N         70.0310   49.4440    9.7820 N.3   129  VAL129     -0.1231
     51  CA        71.0910   48.7820   10.5390 C.3   129  VAL129      0.1692
     52  C         70.9530   47.2550   10.5150 C.2   129  VAL129      0.2592
     53  O         71.9360   46.5220   10.6940 O.2   129  VAL129     -0.2718
     54  CB        71.0790   49.2750   12.0110 C.3   129  VAL129      0.0266
     55  CG1       72.0840   48.5330   12.8250 C.3   129  VAL129      0.0020
     56  CG2       71.3540   50.8020   12.0450 C.3   129  VAL129      0.0020
     57  N         69.7440   46.7720   10.2490 N.am  130  ALA130     -0.1966
     58  CA        69.4820   45.3320   10.2530 C.3   130  ALA130      0.1728
     59  C         69.6800   44.6760    8.8800 C.2   130  ALA130      0.2616
     60  O         69.4260   45.2700    7.8200 O.2   130  ALA130     -0.2715
     61  CB        68.0430   45.0640   10.7690 C.3   130  ALA130      0.0334
     62  N         70.0970   43.4230    8.9090 N.am  131  GLU131     -0.1963
     63  CA        70.3590   42.6790    7.6830 C.3   131  GLU131      0.1733
     64  C         69.1850   42.5210    6.7160 C.2   131  GLU131      0.2616
     65  O         69.3840   42.4390    5.5080 O.2   131  GLU131     -0.2715
     66  CB        70.9210   41.2980    8.0360 C.3   131  GLU131      0.0429
     67  CG        71.5570   40.5850    6.8410 C.3   131  GLU131      0.1163
     68  CD        72.1160   39.2120    7.1930 C.2   131  GLU131      0.3649
     69  OE1       72.8080   38.6050    6.3260 O.co2 131  GLU131     -0.2457
     70  OE2       71.8750   38.7430    8.3310 O.co2 131  GLU131     -0.2457
     71  N         67.9580   42.4770    7.2290 N.am  132  HIS132     -0.1973
     72  CA        66.8380   42.3140    6.3070 C.3   132  HIS132      0.1656
     73  C         66.5680   43.5570    5.4510 C.2   132  HIS132      0.2291
     74  O         65.8800   43.4760    4.4180 O.2   132  HIS132     -0.2864
     75  CB        65.5580   41.8540    7.0550 C.3   132  HIS132      0.0771
     76  CG        65.1860   42.6630    8.2730 C.ar  132  HIS132      0.0820
     77  ND1       64.3770   42.1480    9.2710 N.ar  132  HIS132     -0.2267
     78  CD2       65.4430   43.9430    8.6270 C.ar  132  HIS132      0.1154
     79  CE1       64.1490   43.0810   10.1780 C.ar  132  HIS132      0.1986
     80  NE2       64.7830   44.1820    9.8120 N.ar  132  HIS132     -0.2212
     81  N         58.0230   50.7030   25.9630 N.3   192  GLY192     -0.1210
     82  CA        59.1350   49.8470   25.5680 C.3   192  GLY192      0.1956
     83  C         60.0920   50.2580   24.4640 C.2   192  GLY192      0.2612
     84  O         60.8320   49.4160   23.9560 O.2   192  GLY192     -0.2717
     85  N         60.1100   51.5300   24.0870 N.am  193  GLY193     -0.1956
     86  CA        61.0370   51.9510   23.0470 C.3   193  GLY193      0.1869
     87  C         60.3600   52.2840   21.7280 C.2   193  GLY193      0.2309
     88  O         60.9930   52.7790   20.8080 O.2   193  GLY193     -0.2863
     89  N         60.6490   55.8600   20.9020 N.3   196  THR196     -0.1203
     90  CA        62.0180   56.1950   20.5240 C.3   196  THR196      0.1994
     91  C         62.2900   55.8330   19.0720 C.2   196  THR196      0.2617
     92  O         62.7810   56.6770   18.3000 O.2   196  THR196     -0.2717
     93  CB        63.0450   55.4580   21.4360 C.3   196  THR196      0.1784
     94  OG1       62.8880   55.9110   22.7820 O.3   196  THR196     -0.2211
     95  CG2       64.4930   55.7300   20.9680 C.3   196  THR196      0.0376
     96  N         61.9400   54.6110   18.6530 N.am  197  ILE197     -0.1979
     97  CA        62.2370   54.2620   17.2650 C.3   197  ILE197      0.1595
     98  C         61.4200   55.0450   16.2360 C.2   197  ILE197      0.2287
     99  O         61.8320   55.1580   15.0830 O.2   197  ILE197     -0.2864
    100  CB        62.1100   52.7300   16.9610 C.3   197  ILE197      0.0276
    101  CG1       60.6640   52.2740   17.0230 C.3   197  ILE197      0.0022
    102  CG2       62.9760   51.9070   17.9230 C.3   197  ILE197      0.0022
    103  CD1       60.5420   50.8240   16.5680 C.3   197  ILE197      0.0001
    104  N         65.0160   54.1070   10.4460 N.3   202  PHE202     -0.1241
    105  CA        63.8960   53.1410   10.3800 C.3   202  PHE202      0.1605
    106  C         62.9450   53.5590    9.2760 C.2   202  PHE202      0.2264
    107  O         62.7050   54.7680    9.0890 O.2   202  PHE202     -0.2867
    108  CB        63.1300   53.1120   11.7060 C.3   202  PHE202      0.0534
    109  CG        63.7820   52.2750   12.7840 C.ar  202  PHE202     -0.0203
    110  CD1       63.2970   50.9970   13.0810 C.ar  202  PHE202     -0.0042
    111  CD2       64.8430   52.7840   13.5330 C.ar  202  PHE202     -0.0042
    112  CE1       63.8650   50.2280   14.1200 C.ar  202  PHE202     -0.0003
    113  CE2       65.4180   52.0270   14.5730 C.ar  202  PHE202     -0.0003
    114  CZ        64.9210   50.7480   14.8590 C.ar  202  PHE202     -0.0000
@<TRIPOS>BOND
     1    74    73    2
     2    73    72    1
     3    65    64    2
     4    72    75    1
     5    72    71    1
     6    69    68   ar
     7    64    71   am
     8    64    63    1
     9    67    68    1
    10    67    66    1
    11    75    76    1
    12    68    70   ar
    13    43    41    1
    14    63    66    1
    15    63    62    1
    16    60    59    2
    17    76    78   ar
    18    76    77   ar
    19    78    80   ar
    20    59    62   am
    21    59    58    1
    22    41    42    1
    23    41    38    1
    24    47    46    2
    25   107   106    2
    26    77    79   ar
    27   106   105    1
    28    46    45    1
    29    40    39    2
    30    50    51    1
    31    80    79   ar
    32    39    38    1
    33    39    44   am
    34    37    38    1
    35    37    27   am
    36    25    26    1
    37    57    58    1
    38    57    52   am
    39    58    61    1
    40    45    44    1
    41    45    48    1
    42   105   104    1
    43   105   108    1
    44    26    27    1
    45    26    29    1
    46    52    51    1
    47    52    53    2
    48    51    54    1
    49    27    28    2
    50    17    14    1
    51    31    33   ar
    52    31    30   ar
    53    33    35   ar
    54    49    48    1
    55    29    30    1
    56   108   109    1
    57     1     2    1
    58    30    32   ar
    59    21    20    2
    60    54    56    1
    61    54    55    1
    62    13    14    1
    63    13     3   am
    64     2     3    1
    65     2     5    1
    66    14    15    1
    67     3     4    2
    68    35    36    1
    69    35    34   ar
    70   109   110   ar
    71   109   111   ar
    72    16    15    2
    73    15    18   am
    74    20    19    1
    75   110   112   ar
    76    32    34   ar
    77   111   113   ar
    78    18    24    1
    79    18    19    1
    80     5     6    1
    81    24    23    1
    82   112   114   ar
    83    19    22    1
    84   113   114   ar
    85    22    23    1
    86     6     7   ar
    87     6     8   ar
    88    99    98    2
    89     7     9   ar
    90     8    10   ar
    91     9    11   ar
    92    98    97    1
    93    10    11   ar
    94   103   101    1
    95    11    12    1
    96   100   101    1
    97   100    97    1
    98   100   102    1
    99    97    96    1
   100    92    91    2
   101    96    91   am
   102    91    90    1
   103    90    89    1
   104    90    93    1
   105    88    87    2
   106    95    93    1
   107    93    94    1
   108    87    86    1
   109    86    85    1
   110    84    83    2
   111    85    83   am
   112    83    82    1
   113    82    81    1
