@<TRIPOS>MOLECULE
tmp/3gayA00.pdb
 141 132 0 0 0
SMALL
GASTEIGER

@<TRIPOS>ATOM
      1  N         11.3180   -3.6980   11.9010 N.3    23  ASN23      -0.1240
      2  CA        10.8000   -2.4950   11.2800 C.3    23  ASN23       0.1653
      3  C         11.0230   -2.5860    9.7970 C.2    23  ASN23       0.2266
      4  O         12.1010   -3.0340    9.3420 O.2    23  ASN23      -0.2867
      5  CB        11.5360   -1.2510   11.8140 C.3    23  ASN23       0.1155
      6  CG        11.0790   -0.8510   13.1820 C.2    23  ASN23       0.2627
      7  OD1       11.5260   -1.4070   14.1850 O.2    23  ASN23      -0.2716
      8  ND2       10.1650    0.1300   13.2430 N.am   23  ASN23      -0.0877
      9  N         10.4830   -0.5070    5.8310 N.3    25  ASN25      -0.1240
     10  CA        10.2830    0.7920    5.1820 C.3    25  ASN25       0.1653
     11  C         10.0730    0.6450    3.6780 C.2    25  ASN25       0.2266
     12  O          9.5360    1.5480    3.0530 O.2    25  ASN25      -0.2867
     13  CB        11.4850    1.7410    5.4270 C.3    25  ASN25       0.1155
     14  CG        11.6320    2.1780    6.9150 C.2    25  ASN25       0.2627
     15  OD1       10.9600    3.0930    7.3960 O.2    25  ASN25      -0.2716
     16  ND2       12.5260    1.5250    7.6230 N.am   25  ASN25      -0.0877
     17  N          6.8020   -4.3550   11.7520 N.3    47  GLN47      -0.1245
     18  CA         6.3420   -3.1110   12.3280 C.3    47  GLN47       0.1566
     19  C          6.6980   -1.8860   11.5220 C.2    47  GLN47       0.2260
     20  O          7.7430   -1.8250   10.8720 O.2    47  GLN47      -0.2867
     21  CB         6.7760   -2.9690   13.8030 C.3    47  GLN47       0.0367
     22  CG         8.1580   -3.4100   14.2030 C.3    47  GLN47       0.0905
     23  CD         8.4200   -3.1350   15.6910 C.2    47  GLN47       0.2608
     24  OE1        7.6140   -3.4840   16.5640 O.2    47  GLN47      -0.2717
     25  NE2        9.5440   -2.5140   15.9780 N.am   47  GLN47      -0.0878
     26  N          6.7340    2.3450   11.7290 N.3    49  SER49      -0.1217
     27  CA         6.7420    3.5760   12.5290 C.3    49  SER49       0.1889
     28  C          5.9790    4.6750   11.7840 C.2    49  SER49       0.2288
     29  O          5.6820    4.5640   10.5920 O.2    49  SER49      -0.2866
     30  CB         8.1690    4.0750   12.7120 C.3    49  SER49       0.2089
     31  OG         8.7190    4.4170   11.4470 O.3    49  SER49      -0.2183
     32  N          7.2720    7.3120   10.9260 N.3    51  GLY51      -0.1210
     33  CA         8.2190    7.7240    9.8970 C.3    51  GLY51       0.1956
     34  C          8.2200    6.7960    8.6720 C.2    51  GLY51       0.2611
     35  O          8.4290    7.2420    7.5520 O.2    51  GLY51      -0.2717
     36  N          8.0110    5.4930    8.8720 N.am   52  ALA52      -0.1979
     37  CA         7.9600    4.5470    7.7520 C.3    52  ALA52       0.1597
     38  C          6.6940    4.8140    6.9090 C.2    52  ALA52       0.2287
     39  O          6.7400    4.7800    5.6870 O.2    52  ALA52      -0.2864
     40  CB         7.9070    3.0930    8.2760 C.3    52  ALA52       0.0319
     41  N          4.4800    0.9170   15.2410 N.3    82  ASP82      -0.1225
     42  CA         5.5250    1.1430   16.2720 C.3    82  ASP82       0.1805
     43  C          5.4780    2.6050   16.7470 C.2    82  ASP82       0.2597
     44  O          5.3060    3.4540   15.9180 O.2    82  ASP82      -0.2718
     45  CB         6.8940    0.8970   15.6310 C.3    82  ASP82       0.1424
     46  CG         8.0240    0.7210   16.6540 C.2    82  ASP82       0.3668
     47  OD1        9.1670    0.7710   16.1840 O.co2  82  ASP82      -0.2456
     48  OD2        7.7730    0.5240   17.8790 O.co2  82  ASP82      -0.2456
     49  N          5.6270    2.8560   18.0560 N.am   83  HIS83      -0.1975
     50  CA         5.6260    4.1970   18.6230 C.3    83  HIS83       0.1656
     51  C          4.5060    5.1240   18.2100 C.2    83  HIS83       0.2291
     52  O          4.7640    6.2670   17.8280 O.2    83  HIS83      -0.2864
     53  CB         6.9760    4.8920   18.3670 C.3    83  HIS83       0.0771
     54  CG         8.0930    4.2930   19.1520 C.ar   83  HIS83       0.0820
     55  ND1        8.1710    4.4110   20.5230 N.ar   83  HIS83      -0.2267
     56  CD2        9.0940    3.4520   18.7830 C.ar   83  HIS83       0.1154
     57  CE1        9.1700    3.6670   20.9690 C.ar   83  HIS83       0.1986
     58  NE2        9.7430    3.0770   19.9320 N.ar   83  HIS83      -0.2212
     59  N         17.6330    3.3290   21.3560 N.3   174  HIS174     -0.1226
     60  CA        17.5570    3.1400   19.8970 C.3   174  HIS174      0.1752
     61  C         18.8870    3.5230   19.2530 C.2   174  HIS174      0.2596
     62  O         19.6080    4.3760   19.8010 O.2   174  HIS174     -0.2718
     63  CB        16.4800    4.0530   19.3180 C.3   174  HIS174      0.0759
     64  CG        15.0860    3.6590   19.6990 C.ar  174  HIS174      0.0818
     65  ND1       14.0670    4.5780   19.8700 N.ar  174  HIS174     -0.2268
     66  CD2       14.5300    2.4400   19.9040 C.ar  174  HIS174      0.1154
     67  CE1       12.9460    3.9430   20.1580 C.ar  174  HIS174      0.1986
     68  NE2       13.1990    2.6440   20.1850 N.ar  174  HIS174     -0.2212
     69  N         19.2370    2.8930   18.1260 N.am  175  GLY175     -0.1957
     70  CA        20.4570    3.3340   17.4630 C.3   175  GLY175      0.1869
     71  C         21.6580    2.4250   17.5440 C.2   175  GLY175      0.2309
     72  O         21.6620    1.4360   18.2850 O.2   175  GLY175     -0.2863
     73  N         24.7750    2.1450   21.5110 N.3   178  LYS178     -0.1245
     74  CA        24.0690    1.9520   22.7800 C.3   178  LYS178      0.1561
     75  C         24.8570    2.0530   24.0710 C.2   178  LYS178      0.2260
     76  O         24.2940    2.3860   25.1310 O.2   178  LYS178     -0.2867
     77  CB        23.3170    0.6090   22.7400 C.3   178  LYS178      0.0271
     78  CG        22.4710    0.4440   21.4680 C.3   178  LYS178      0.0035
     79  CD        21.7230   -0.9210   21.4850 C.3   178  LYS178      0.0206
     80  CE        21.0330   -1.2460   20.1500 C.3   178  LYS178      0.1093
     81  NZ        19.9920   -0.2300   19.8770 N.3   178  LYS178     -0.1314
     82  N         12.7510   -2.7990   23.5590 N.3   206  HIS206     -0.1226
     83  CA        13.0390   -1.9240   22.4500 C.3   206  HIS206      0.1752
     84  C         14.5690   -1.6820   22.4050 C.2   206  HIS206      0.2596
     85  O         15.2210   -1.9970   23.3660 O.2   206  HIS206     -0.2718
     86  CB        12.3650   -0.5400   22.6480 C.3   206  HIS206      0.0759
     87  CG        10.8820   -0.5650   22.3960 C.ar  206  HIS206      0.0818
     88  ND1       10.2830    0.2210   21.4530 N.ar  206  HIS206     -0.2268
     89  CD2        9.8990   -1.3190   22.9400 C.ar  206  HIS206      0.1154
     90  CE1        8.9850   -0.0340   21.4170 C.ar  206  HIS206      0.1986
     91  NE2        8.7250   -0.9650   22.3100 N.ar  206  HIS206     -0.2212
     92  N         15.0790   -1.1300   21.2950 N.am  207  GLY207     -0.1957
     93  CA        16.5030   -0.8050   21.1520 C.3   207  GLY207      0.1869
     94  C         17.3730   -2.0400   21.3380 C.2   207  GLY207      0.2309
     95  O         18.4060   -2.0140   22.0030 O.2   207  GLY207     -0.2863
     96  N         18.7610   -4.0810   18.8660 N.3   209  SER209     -0.1217
     97  CA        19.6350   -4.5120   17.7820 C.3   209  SER209      0.1889
     98  C         20.9540   -4.9580   18.4570 C.2   209  SER209      0.2288
     99  O         21.3060   -4.4610   19.5310 O.2   209  SER209     -0.2866
    100  CB        19.9210   -3.3480   16.8460 C.3   209  SER209      0.2089
    101  OG        19.0680   -3.4140   15.7420 O.3   209  SER209     -0.2183
    102  N         12.4680   -5.8370   19.5370 N.3   249  ASN249     -0.1225
    103  CA        12.4670   -4.8620   18.4580 C.3   249  ASN249      0.1785
    104  C         13.8800   -4.7090   17.8770 C.2   249  ASN249      0.2597
    105  O         14.8510   -4.4680   18.6010 O.2   249  ASN249     -0.2718
    106  CB        11.9230   -3.4730   18.9750 C.3   249  ASN249      0.1169
    107  CG        10.3730   -3.4800   19.2590 C.2   249  ASN249      0.2627
    108  OD1        9.7470   -4.5520   19.3930 O.2   249  ASN249     -0.2716
    109  ND2        9.7570   -2.2740   19.3190 N.am  249  ASN249     -0.0877
    110  N         13.9690   -4.8480   16.5620 N.am  250  VAL250     -0.1966
    111  CA        15.2230   -4.7950   15.8140 C.3   250  VAL250      0.1727
    112  C         15.0120   -4.0300   14.5120 C.2   250  VAL250      0.2616
    113  O         14.1630   -4.3790   13.6720 O.2   250  VAL250     -0.2715
    114  CB        15.7080   -6.2360   15.4660 C.3   250  VAL250      0.0290
    115  CG1       16.9370   -6.2030   14.4980 C.3   250  VAL250      0.0023
    116  CG2       16.0030   -6.9800   16.7340 C.3   250  VAL250      0.0023
    117  N         15.8010   -2.9830   14.3540 N.am  251  ASP251     -0.1957
    118  CA        15.7440   -2.1110   13.1890 C.3   251  ASP251      0.1840
    119  C         17.1730   -1.7810   12.7100 C.2   251  ASP251      0.2622
    120  O         17.5180   -1.9740   11.5500 O.2   251  ASP251     -0.2715
    121  CB        15.0510   -0.8020   13.5960 C.3   251  ASP251      0.1450
    122  CG        14.7160    0.0780   12.4090 C.2   251  ASP251      0.3671
    123  OD1       13.9190    1.0240   12.5840 O.co2 251  ASP251     -0.2456
    124  OD2       15.2320   -0.1650   11.2950 O.co2 251  ASP251     -0.2456
    125  N         17.9900   -1.2570   13.6160 N.am  252  SER252     -0.1950
    126  CA        19.3760   -0.8820   13.2260 C.3   252  SER252      0.1924
    127  C         20.1890   -2.0070   12.5860 C.2   252  SER252      0.2314
    128  O         20.9310   -1.7490   11.6600 O.2   252  SER252     -0.2863
    129  CB        20.1580   -0.3390   14.4250 C.3   252  SER252      0.2116
    130  OG        19.5670    0.8370   14.9690 O.3   252  SER252     -0.2180
    131  N         19.1910   -2.2440    9.0150 N.3   255  ARG255     -0.1245
    132  CA        19.6520   -1.0750    8.2700 C.3   255  ARG255      0.1563
    133  C         21.1590   -1.2340    7.9630 C.2   255  ARG255      0.2260
    134  O         21.6030   -1.0030    6.8650 O.2   255  ARG255     -0.2867
    135  CB        19.5160    0.2120    9.0850 C.3   255  ARG255      0.0307
    136  CG        18.0850    0.6390    9.3850 C.3   255  ARG255      0.0489
    137  CD        18.0700    1.9570   10.1530 C.3   255  ARG255      0.2205
    138  NE        16.7650    2.1920   10.7720 N.pl3 255  ARG255     -0.0865
    139  CZ        16.4050    3.3250   11.3790 C.cat 255  ARG255      0.5346
    140  NH1       17.2470    4.3660   11.4540 N.pl3 255  ARG255      0.1354
    141  NH2       15.2040    3.4100   11.9420 N.pl3 255  ARG255      0.1354
@<TRIPOS>BOND
     1    12    11    2
     2    11    10    1
     3    10    13    1
     4    10     9    1
     5    13    14    1
     6    39    38    2
     7   134   133    2
     8    38    37    1
     9    14    15    2
    10    14    16   am
    11    35    34    2
    12    37    40    1
    13    37    36    1
    14   133   132    1
    15   132   131    1
    16   132   135    1
    17    34    36   am
    18    34    33    1
    19   135   136    1
    20     4     3    2
    21   136   137    1
    22     3     2    1
    23    33    32    1
    24   137   138    1
    25    29    28    2
    26   138   139    2
    27    20    19    2
    28     2     5    1
    29     2     1    1
    30   124   122   ar
    31   139   140    1
    32   139   141    1
    33    31    30    1
    34    19    18    1
    35   120   119    2
    36   128   127    2
    37    26    27    1
    38    17    18    1
    39    28    27    1
    40     5     6    1
    41    18    21    1
    42   122   123   ar
    43   122   121    1
    44    27    30    1
    45   127   126    1
    46   119   118    1
    47   119   125   am
    48     6     8   am
    49     6     7    2
    50   118   121    1
    51   118   117    1
    52   126   125    1
    53   126   129    1
    54   113   112    2
    55    21    22    1
    56    22    23    1
    57   117   112   am
    58   129   130    1
    59   115   114    1
    60   112   111    1
    61    41    42    1
    62   114   111    1
    63   114   116    1
    64    45    42    1
    65    45    46    1
    66    23    25   am
    67    23    24    2
    68   101   100    1
    69   111   110    1
    70    44    43    2
    71    47    46   ar
    72    42    43    1
    73   110   104   am
    74    46    48   ar
    75    43    49   am
    76   100    97    1
    77    70    71    1
    78    70    69    1
    79    71    72    2
    80    97    98    1
    81    97    96    1
    82    52    51    2
    83   104   103    1
    84   104   105    2
    85    49    50    1
    86    69    61   am
    87    51    50    1
    88    53    50    1
    89    53    54    1
    90    98    99    2
    91   103   106    1
    92   103   102    1
    93    56    54   ar
    94    56    58   ar
    95   106   107    1
    96    54    55   ar
    97    61    62    2
    98    61    60    1
    99   107   109   am
   100   107   108    2
   101    63    64    1
   102    63    60    1
   103    64    65   ar
   104    64    66   ar
   105    65    67   ar
   106    81    80    1
   107    60    59    1
   108    66    68   ar
   109    58    57   ar
   110    80    79    1
   111    67    68   ar
   112    55    57   ar
   113    93    92    1
   114    93    94    1
   115    92    84   am
   116    94    95    2
   117    90    88   ar
   118    90    91   ar
   119    88    87   ar
   120    78    79    1
   121    78    77    1
   122    73    74    1
   123    91    89   ar
   124    87    86    1
   125    87    89   ar
   126    84    83    1
   127    84    85    2
   128    83    86    1
   129    83    82    1
   130    77    74    1
   131    74    75    1
   132    75    76    2
