@<TRIPOS>MOLECULE
tmp/3gb2A00.pdb
 171 164 0 0 0
SMALL
GASTEIGER

@<TRIPOS>ATOM
      1  N         31.9610   15.6970    9.9760 N.3    28  ILE28      -0.1231
      2  CA        30.8060   15.6140    9.1140 C.3    28  ILE28       0.1696
      3  C         30.8720   14.3970    8.2230 C.2    28  ILE28       0.2631
      4  O         29.8920   14.0660    7.5840 O.2    28  ILE28      -0.2714
      5  CB        30.5570   16.8970    8.2930 C.3    28  ILE28       0.0266
      6  CG1       31.7180   17.2060    7.3650 C.3    28  ILE28       0.0019
      7  CG2       30.3200   18.0620    9.2070 C.3    28  ILE28       0.0020
      8  CD1       31.3510   18.2410    6.3150 C.3    28  ILE28       0.0001
      9  N         32.0060   13.7070    8.2130 N.am   29  GLY29      -0.1732
     10  CA        32.1040   12.4430    7.4740 C.2    29  GLY29       0.1340
     11  C         33.3860   11.6580    7.7050 C.2    29  GLY29       0.2521
     12  O         34.3330   12.1820    8.2990 O.2    29  GLY29      -0.2816
     13  N         40.4130    7.0010    3.8040 N.3    33  PHE33      -0.1241
     14  CA        41.3780    8.1110    3.8770 C.3    33  PHE33       0.1605
     15  C         41.4960    8.7230    5.2760 C.2    33  PHE33       0.2264
     16  O         42.5900    9.0240    5.7600 O.2    33  PHE33      -0.2867
     17  CB        40.9470    9.2120    2.9040 C.3    33  PHE33       0.0534
     18  CG        39.5310    9.7030    3.1370 C.ar   33  PHE33      -0.0203
     19  CD1       38.4780    9.2150    2.3690 C.ar   33  PHE33      -0.0042
     20  CD2       39.2520   10.6280    4.1460 C.ar   33  PHE33      -0.0042
     21  CE1       37.1740    9.6550    2.5900 C.ar   33  PHE33      -0.0003
     22  CE2       37.9570   11.0710    4.3740 C.ar   33  PHE33      -0.0003
     23  CZ        36.9190   10.5890    3.5970 C.ar   33  PHE33      -0.0000
     24  N         36.2670   14.0080    7.4430 N.3    36  VAL36      -0.1245
     25  CA        35.9630   15.3650    7.0080 C.3    36  VAL36       0.1561
     26  C         35.2930   16.1630    8.1170 C.2    36  VAL36       0.2260
     27  O         34.3620   15.7010    8.7560 O.2    36  VAL36      -0.2867
     28  CB        35.0800   15.4380    5.7420 C.3    36  VAL36       0.0252
     29  CG1       35.2480   16.8020    5.0850 C.3    36  VAL36       0.0019
     30  CG2       35.4680   14.3550    4.7540 C.3    36  VAL36       0.0019
     31  N         35.2210   22.9500    4.9780 N.3    49  ALA49      -0.1245
     32  CA        35.4100   21.5580    5.3090 C.3    49  ALA49       0.1562
     33  C         36.9060   21.3460    5.3970 C.2    49  ALA49       0.2260
     34  O         37.6870   22.0160    4.7210 O.2    49  ALA49      -0.2867
     35  CB        34.8050   20.6610    4.2360 C.3    49  ALA49       0.0290
     36  N         39.2450   18.0640    5.1470 N.3    51  LYS51      -0.1245
     37  CA        39.4660   16.6580    4.9170 C.3    51  LYS51       0.1561
     38  C         40.8050   16.2380    5.5240 C.2    51  LYS51       0.2260
     39  O         41.8620   16.6070    5.0300 O.2    51  LYS51      -0.2867
     40  CB        39.4370   16.4150    3.4020 C.3    51  LYS51       0.0271
     41  CG        39.6490   14.9960    2.9620 C.3    51  LYS51       0.0035
     42  CD        39.1520   14.8060    1.5080 C.3    51  LYS51       0.0206
     43  CE        39.6250   13.4830    0.9430 C.3    51  LYS51       0.1093
     44  NZ        38.7330   12.8690   -0.0930 N.3    51  LYS51      -0.1314
     45  N         34.6700   22.0160   -5.5620 N.3    76  VAL76      -0.1245
     46  CA        35.0830   22.4320   -4.2370 C.3    76  VAL76       0.1561
     47  C         36.5440   22.8090   -4.3310 C.2    76  VAL76       0.2260
     48  O         37.3780   22.0080   -4.7480 O.2    76  VAL76      -0.2867
     49  CB        34.8610   21.2820   -3.2310 C.3    76  VAL76       0.0252
     50  CG1       35.5620   21.5620   -1.9350 C.3    76  VAL76       0.0019
     51  CG2       33.3780   21.1100   -2.9930 C.3    76  VAL76       0.0019
     52  N         38.8090   23.0060    2.3380 N.3    93  LEU93      -0.1231
     53  CA        38.0050   23.0750    1.1320 C.3    93  LEU93       0.1693
     54  C         36.8080   23.9530    1.3210 C.2    93  LEU93       0.2592
     55  O         36.4300   24.2610    2.4420 O.2    93  LEU93      -0.2718
     56  CB        37.4870   21.6750    0.8120 C.3    93  LEU93       0.0284
     57  CG        38.5770   20.6210    0.6840 C.3    93  LEU93       0.0019
     58  CD1       37.9500   19.2500    0.8850 C.3    93  LEU93       0.0001
     59  CD2       39.2440   20.7580   -0.6920 C.3    93  LEU93       0.0001
     60  N         36.1820   24.3270    0.2150 N.am   94  ASP94      -0.1960
     61  CA        34.8630   24.9230    0.2790 C.3    94  ASP94       0.1840
     62  C         33.9680   23.9350    0.9760 C.2    94  ASP94       0.2622
     63  O         34.0130   22.7480    0.6710 O.2    94  ASP94      -0.2715
     64  CB        34.2780   25.0940   -1.1120 C.3    94  ASP94       0.1450
     65  CG        34.9320   26.1800   -1.8800 C.2    94  ASP94       0.3671
     66  OD1       35.6130   27.0080   -1.2350 O.co2  94  ASP94      -0.2456
     67  OD2       34.7510   26.2110   -3.1210 O.co2  94  ASP94      -0.2456
     68  N         33.1450   24.4440    1.8830 N.am   95  TYR95      -0.1960
     69  CA        32.0500   23.7140    2.4740 C.3    95  TYR95       0.1771
     70  C         30.7650   24.1570    1.7930 C.2    95  TYR95       0.2619
     71  O         30.5680   25.3370    1.5190 O.2    95  TYR95      -0.2715
     72  CB        31.9400   24.0560    3.9610 C.3    95  TYR95       0.0574
     73  CG        30.6920   23.5110    4.6120 C.ar   95  TYR95      -0.0198
     74  CD1       30.6630   22.2120    5.1090 C.ar   95  TYR95      -0.0009
     75  CD2       29.5350   24.2790    4.7110 C.ar   95  TYR95      -0.0009
     76  CE1       29.5310   21.6970    5.6990 C.ar   95  TYR95       0.0417
     77  CE2       28.4000   23.7750    5.3040 C.ar   95  TYR95       0.0417
     78  CZ        28.3990   22.4810    5.8000 C.ar   95  TYR95       0.1957
     79  OH        27.2640   21.9510    6.3960 O.3    95  TYR95      -0.2866
     80  N         29.8910   23.1930    1.5490 N.am   96  VAL96      -0.1964
     81  CA        28.6080   23.3880    0.9180 C.3    96  VAL96       0.1712
     82  C         27.7510   22.3760    1.6550 C.2    96  VAL96       0.2458
     83  O         28.2180   21.2670    1.8960 O.2    96  VAL96      -0.2730
     84  CB        28.6580   22.9830   -0.5530 C.3    96  VAL96       0.0289
     85  CG1       27.3300   23.2470   -1.1980 C.3    96  VAL96       0.0023
     86  CG2       29.7630   23.7330   -1.2720 C.3    96  VAL96       0.0023
     87  N         26.5120   22.7380    2.0220 N.am   97  PRO97      -0.2716
     88  CA        25.9220   21.9580    3.1110 C.3    97  PRO97       0.1536
     89  C         25.0700   20.7560    2.6890 C.2    97  PRO97       0.2598
     90  O         24.7390   19.9280    3.5340 O.2    97  PRO97      -0.2715
     91  CB        25.0730   23.0000    3.8560 C.3    97  PRO97       0.0310
     92  CG        24.7790   24.0940    2.8010 C.3    97  PRO97       0.0237
     93  CD        25.6120   23.8100    1.5680 C.3    97  PRO97       0.0939
     94  N         24.7430   20.6480    1.4060 N.am   98  GLU98      -0.1964
     95  CA        23.8140   19.6330    0.9310 C.3    98  GLU98       0.1733
     96  C         24.4400   18.8210   -0.1660 C.2    98  GLU98       0.2617
     97  O         25.4420   19.2230   -0.7440 O.2    98  GLU98      -0.2715
     98  CB        22.5350   20.2670    0.3670 C.3    98  GLU98       0.0429
     99  CG        21.3900   20.3640    1.3540 C.3    98  GLU98       0.1163
    100  CD        21.0170   18.9990    1.9420 C.2    98  GLU98       0.3649
    101  OE1       21.5560   17.9460    1.4750 O.co2  98  GLU98      -0.2457
    102  OE2       20.1880   18.9920    2.8930 O.co2  98  GLU98      -0.2457
    103  N         23.8460   17.6650   -0.4420 N.am   99  THR99      -0.1951
    104  CA        24.3110   16.8180   -1.4860 C.3    99  THR99       0.1897
    105  C         23.1140   16.4410   -2.2660 C.2    99  THR99       0.2313
    106  O         22.0180   16.4810   -1.7120 O.2    99  THR99      -0.2863
    107  CB        24.9570   15.5360   -1.0040 C.3    99  THR99       0.1794
    108  OG1       24.0190   14.7740   -0.2410 O.3    99  THR99      -0.2208
    109  CG2       26.2260   15.8390   -0.2060 C.3    99  THR99       0.0378
    110  N         22.6120   13.5220   -3.2070 N.3   101  TYR101     -0.1227
    111  CA        22.1190   12.2550   -2.6580 C.3   101  TYR101      0.1736
    112  C         20.9990   12.5130   -1.7160 C.2   101  TYR101      0.2595
    113  O         19.9470   11.8700   -1.7730 O.2   101  TYR101     -0.2718
    114  CB        23.1900   11.5010   -1.8940 C.3   101  TYR101      0.0548
    115  CG        22.7110   10.2100   -1.2450 C.ar  101  TYR101     -0.0200
    116  CD1       22.3970    9.0740   -2.0150 C.ar  101  TYR101     -0.0009
    117  CD2       22.5900   10.1250    0.1770 C.ar  101  TYR101     -0.0009
    118  CE1       21.9470    7.8480   -1.3890 C.ar  101  TYR101      0.0417
    119  CE2       22.1870    8.9680    0.7970 C.ar  101  TYR101      0.0417
    120  CZ        21.8780    7.8350    0.0710 C.ar  101  TYR101      0.1957
    121  OH        21.4980    6.7210    0.8270 O.3   101  TYR101     -0.2866
    122  N         21.2280   13.4580   -0.8260 N.am  102  ARG102     -0.1980
    123  CA        20.2890   13.7010    0.2530 C.3   102  ARG102      0.1597
    124  C         19.0700   14.4510   -0.2390 C.2   102  ARG102      0.2287
    125  O         17.9660   14.2510    0.2490 O.2   102  ARG102     -0.2864
    126  CB        20.9790   14.4760    1.3320 C.3   102  ARG102      0.0334
    127  CG        22.0790   13.6460    1.9280 C.3   102  ARG102      0.0492
    128  CD        22.2380   14.0030    3.3700 C.3   102  ARG102      0.2205
    129  NE        22.2340   15.4580    3.4620 N.pl3 102  ARG102     -0.0865
    130  CZ        21.9590   16.1280    4.5700 C.cat 102  ARG102      0.5346
    131  NH1       21.6880   15.4530    5.6870 N.pl3 102  ARG102      0.1354
    132  NH2       21.9630   17.4560    4.5550 N.pl3 102  ARG102      0.1354
    133  N         26.5400   11.3060   -3.8870 N.3   146  GLN146     -0.1231
    134  CA        26.9800   11.9890   -2.6990 C.3   146  GLN146      0.1698
    135  C         28.3070   12.7010   -2.8570 C.2   146  GLN146      0.2592
    136  O         28.8190   13.2700   -1.8990 O.2   146  GLN146     -0.2718
    137  CB        26.9340   11.1340   -1.4440 C.3   146  GLN146      0.0381
    138  CG        27.5590    9.8470   -1.5880 C.3   146  GLN146      0.0905
    139  CD        26.5300    8.7730   -1.7000 C.2   146  GLN146      0.2608
    140  OE1       25.9730    8.5050   -2.8040 O.2   146  GLN146     -0.2717
    141  NE2       26.2500    8.1330   -0.5530 N.am  146  GLN146     -0.0878
    142  N         28.8460   12.7250   -4.0700 N.am  147  ASN147     -0.1974
    143  CA        29.9950   13.5810   -4.2950 C.3   147  ASN147      0.1688
    144  C         29.6470   14.9010   -4.9620 C.2   147  ASN147      0.2292
    145  O         30.5310   15.7120   -5.2760 O.2   147  ASN147     -0.2864
    146  CB        31.1020   12.8080   -4.9930 C.3   147  ASN147      0.1181
    147  CG        31.7400   11.8550   -4.0810 C.2   147  ASN147      0.2629
    148  OD1       31.7550   12.0700   -2.8320 O.2   147  ASN147     -0.2716
    149  ND2       32.2940   10.7860   -4.6420 N.am  147  ASN147     -0.0877
    150  N         27.9470   18.3160   -4.2360 N.3   149  LEU149     -0.1245
    151  CA        27.5670   19.2380   -3.2010 C.3   149  LEU149      0.1561
    152  C         26.6910   20.2960   -3.8380 C.2   149  LEU149      0.2260
    153  O         26.8530   20.6450   -5.0330 O.2   149  LEU149     -0.2867
    154  CB        28.8090   19.8320   -2.5550 C.3   149  LEU149      0.0270
    155  CG        29.6720   18.8640   -1.7330 C.3   149  LEU149      0.0019
    156  CD1       30.8300   19.6050   -1.0290 C.3   149  LEU149      0.0001
    157  CD2       28.8510   18.1100   -0.6990 C.3   149  LEU149      0.0001
    158  N         32.8850   17.2170   -5.5100 N.3   160  CYS160     -0.1221
    159  CA        33.8920   17.0920   -4.4700 C.3   160  CYS160      0.1808
    160  C         34.4940   15.7090   -4.4540 C.2   160  CYS160      0.2601
    161  O         34.1930   14.8790   -5.2950 O.2   160  CYS160     -0.2717
    162  CB        33.3250   17.4320   -3.0950 C.3   160  CYS160      0.0970
    163  SG        32.1180   16.2150   -2.5210 S.3   160  CYS160     -0.0800
    164  N         35.3760   15.4880   -3.4930 N.am  161  ASP161     -0.1973
    165  CA        36.0530   14.2130   -3.3200 C.3   161  ASP161      0.1709
    166  C         36.8660   13.6970   -4.5120 C.2   161  ASP161      0.2293
    167  O         36.3400   13.0090   -5.4020 O.2   161  ASP161     -0.2864
    168  CB        35.0730   13.1410   -2.9000 C.3   161  ASP161      0.1436
    169  CG        35.7730   11.8920   -2.5110 C.2   161  ASP161      0.3671
    170  OD1       37.0160   11.9420   -2.5170 O.co2 161  ASP161     -0.2456
    171  OD2       35.0990   10.8880   -2.1970 O.co2 161  ASP161     -0.2456
@<TRIPOS>BOND
     1    45    46    1
     2   158   159    1
     3   167   166    2
     4   161   160    2
     5   145   144    2
     6   153   152    2
     7   146   143    1
     8   146   147    1
     9   144   143    1
    10    48    47    2
    11   149   147   am
    12   166   165    1
    13   159   160    1
    14   159   162    1
    15   160   164   am
    16    47    46    1
    17   143   142    1
    18    46    49    1
    19   150   151    1
    20   147   148    2
    21   142   135   am
    22   133   134    1
    23   152   151    1
    24   164   165    1
    25   165   168    1
    26    49    51    1
    27    49    50    1
    28   110   111    1
    29   151   154    1
    30    67    65   ar
    31   162   163    1
    32   168   169    1
    33   135   134    1
    34   135   136    2
    35   140   139    2
    36   134   137    1
    37   111   114    1
    38   111   112    1
    39   154   155    1
    40   170   169   ar
    41   169   171   ar
    42   105   106    2
    43   105   104    1
    44   116   118   ar
    45   116   115   ar
    46   114   115    1
    47    65    66   ar
    48    65    64    1
    49   113   112    2
    50   155   156    1
    51   155   157    1
    52   112   122   am
    53   139   138    1
    54   139   141   am
    55   138   137    1
    56   104   107    1
    57   104   103    1
    58   118   120   ar
    59    86    84    1
    60   115   117   ar
    61    85    84    1
    62    64    61    1
    63   107   108    1
    64   107   109    1
    65   122   123    1
    66    97    96    2
    67    59    57    1
    68    84    81    1
    69   103    96   am
    70   124   125    2
    71   124   123    1
    72    96    95    1
    73    44    43    1
    74   120   119   ar
    75   120   121    1
    76   117   119   ar
    77    60    61    1
    78    60    54   am
    79   123   126    1
    80    61    62    1
    81    98    95    1
    82    98    99    1
    83    63    62    2
    84    57    56    1
    85    57    58    1
    86    56    53    1
    87    81    80    1
    88    81    82    1
    89    95    94    1
    90    43    42    1
    91    62    68   am
    92    53    54    1
    93    53    52    1
    94    54    55    2
    95   126   127    1
    96    99   100    1
    97    94    89   am
    98   101   100   ar
    99    42    41    1
   100    71    70    2
   101    80    70   am
   102    93    87    1
   103    93    92    1
   104    82    83    2
   105    82    87   am
   106    70    69    1
   107    68    69    1
   108   127   128    1
   109   100   102   ar
   110    87    88    1
   111    19    21   ar
   112    19    18   ar
   113    69    72    1
   114    21    23   ar
   115    89    88    1
   116    89    90    2
   117    92    91    1
   118    17    18    1
   119    17    14    1
   120    41    40    1
   121    88    91    1
   122    18    20   ar
   123   128   129    1
   124    40    37    1
   125   129   130    2
   126    23    22   ar
   127    13    14    1
   128    14    15    1
   129    72    73    1
   130    20    22   ar
   131    35    32    1
   132   132   130    1
   133   130   131    1
   134    73    75   ar
   135    73    74   ar
   136    75    77   ar
   137    34    33    2
   138    30    28    1
   139    37    36    1
   140    37    38    1
   141    31    32    1
   142    39    38    2
   143    29    28    1
   144    74    76   ar
   145    15    16    2
   146    77    78   ar
   147    32    33    1
   148    76    78   ar
   149    28    25    1
   150    78    79    1
   151     8     6    1
   152    25    24    1
   153    25    26    1
   154     6     5    1
   155    10    11    1
   156    10     9    2
   157     4     3    2
   158    11    12    2
   159    26    27    2
   160     9     3    1
   161     3     2    1
   162     5     2    1
   163     5     7    1
   164     2     1    1
