@<TRIPOS>MOLECULE
tmp/3gb9A00.pdb
 82 77 0 0 0
SMALL
GASTEIGER

@<TRIPOS>ATOM
      1  N        -18.7510    0.6170  -50.6300 N.3   114  ALA114     -0.1231
      2  CA       -19.7540   -0.0980  -49.8430 C.3   114  ALA114      0.1694
      3  C        -20.2240    0.8160  -48.7150 C.2   114  ALA114      0.2592
      4  O        -19.4190    1.3440  -47.9690 O.2   114  ALA114     -0.2718
      5  CB       -19.1470   -1.3650  -49.2670 C.3   114  ALA114      0.0304
      6  N        -21.5240    1.0180  -48.5880 N.am  115  ALA115     -0.1966
      7  CA       -22.0260    2.0120  -47.6540 C.3   115  ALA115      0.1728
      8  C        -23.0710    1.4150  -46.7260 C.2   115  ALA115      0.2616
      9  O        -23.6920    0.4100  -47.0670 O.2   115  ALA115     -0.2715
     10  CB       -22.6120    3.1730  -48.4110 C.3   115  ALA115      0.0334
     11  N        -23.2420    2.0430  -45.5570 N.am  116  GLY116     -0.1955
     12  CA       -24.3770    1.7940  -44.6900 C.3   116  GLY116      0.1869
     13  C        -25.5390    2.7020  -45.0580 C.2   116  GLY116      0.2309
     14  O        -25.3720    3.8760  -45.2700 O.2   116  GLY116     -0.2863
     15  N        -17.3780    9.5520  -42.7740 N.3   193  VAL193     -0.1245
     16  CA       -16.8920    9.5890  -41.4050 C.3   193  VAL193      0.1561
     17  C        -15.5420    8.8680  -41.4170 C.2   193  VAL193      0.2260
     18  O        -15.2980    8.0290  -42.2800 O.2   193  VAL193     -0.2867
     19  CB       -17.8630    8.8850  -40.4570 C.3   193  VAL193      0.0252
     20  CG1      -19.2710    9.4940  -40.6040 C.3   193  VAL193      0.0019
     21  CG2      -17.9000    7.3840  -40.7460 C.3   193  VAL193      0.0019
     22  N        -18.3190    1.5360  -36.0790 N.3   198  PHE198     -0.1227
     23  CA       -19.6330    1.8410  -36.6610 C.3   198  PHE198      0.1736
     24  C        -20.4050    2.7910  -35.7380 C.2   198  PHE198      0.2595
     25  O        -20.0190    3.0190  -34.5930 O.2   198  PHE198     -0.2718
     26  CB       -20.4130    0.5500  -36.9420 C.3   198  PHE198      0.0547
     27  CG       -20.0370   -0.1350  -38.2520 C.ar  198  PHE198     -0.0202
     28  CD1      -19.0030    0.3280  -39.0530 C.ar  198  PHE198     -0.0042
     29  CD2      -20.7130   -1.2720  -38.6600 C.ar  198  PHE198     -0.0042
     30  CE1      -18.6790   -0.3170  -40.2490 C.ar  198  PHE198     -0.0003
     31  CE2      -20.3840   -1.9130  -39.8520 C.ar  198  PHE198     -0.0003
     32  CZ       -19.3660   -1.4270  -40.6400 C.ar  198  PHE198     -0.0000
     33  N        -21.4950    3.3420  -36.2480 N.am  199  GLN199     -0.1979
     34  CA       -22.1960    4.4200  -35.5700 C.3   199  GLN199      0.1601
     35  C        -23.0610    3.9390  -34.4180 C.2   199  GLN199      0.2287
     36  O        -23.6360    2.8660  -34.4640 O.2   199  GLN199     -0.2864
     37  CB       -23.0850    5.1860  -36.5580 C.3   199  GLN199      0.0394
     38  CG       -22.4120    5.5670  -37.9090 C.3   199  GLN199      0.0908
     39  CD       -20.9930    6.1230  -37.7400 C.2   199  GLN199      0.2608
     40  OE1      -20.7940    7.1570  -37.0910 O.2   199  GLN199     -0.2717
     41  NE2      -20.0010    5.4360  -38.3330 N.am  199  GLN199     -0.0878
     42  N        -23.6040    6.1950  -45.5480 N.3   215  VAL215     -0.1231
     43  CA       -22.3720    6.5220  -44.8130 C.3   215  VAL215      0.1692
     44  C        -21.2720    5.5080  -45.0850 C.2   215  VAL215      0.2593
     45  O        -21.5100    4.3090  -45.2120 O.2   215  VAL215     -0.2718
     46  CB       -22.6190    6.6140  -43.2520 C.3   215  VAL215      0.0266
     47  CG1      -23.2250    5.3210  -42.7240 C.3   215  VAL215      0.0020
     48  CG2      -21.3260    6.9170  -42.5030 C.3   215  VAL215      0.0020
     49  N        -20.0500    5.9930  -45.1700 N.am  216  GLY216     -0.1942
     50  CA       -18.8960    5.1050  -45.2920 C.3   216  GLY216      0.2014
     51  C        -17.6450    5.8840  -44.9290 C.2   216  GLY216      0.2638
     52  O        -17.7380    7.0240  -44.4890 O.2   216  GLY216     -0.2714
     53  N        -16.4860    5.2750  -45.1420 N.am  217  MET217     -0.1976
     54  CA       -15.2320    5.7920  -44.6210 C.3   217  MET217      0.1605
     55  C        -14.2270    6.0700  -45.7200 C.2   217  MET217      0.2287
     56  O        -13.0120    6.0100  -45.4860 O.2   217  MET217     -0.2864
     57  CB       -14.6450    4.7590  -43.6570 C.3   217  MET217      0.0413
     58  CG       -15.6860    4.1370  -42.7320 C.3   217  MET217      0.0598
     59  SD       -15.0400    2.9750  -41.5270 S.3   217  MET217     -0.1393
     60  CE       -16.5550    2.7320  -40.5880 C.3   217  MET217      0.0692
     61  N        -24.7250   -2.0860  -48.0480 N.3   240  THR240     -0.1203
     62  CA       -24.3620   -3.4090  -47.5220 C.3   240  THR240      0.1994
     63  C        -25.0420   -3.7390  -46.2030 C.2   240  THR240      0.2617
     64  O        -25.1310   -4.9120  -45.8240 O.2   240  THR240     -0.2717
     65  CB       -22.8580   -3.5230  -47.2930 C.3   240  THR240      0.1784
     66  OG1      -22.4050   -2.3600  -46.5920 O.3   240  THR240     -0.2211
     67  CG2      -22.1290   -3.6110  -48.6030 C.3   240  THR240      0.0376
     68  N        -25.5100   -2.7110  -45.5020 N.am  241  ASP241     -0.1973
     69  CA       -26.3010   -2.8940  -44.2860 C.3   241  ASP241      0.1709
     70  C        -27.1470   -1.6590  -44.0080 C.2   241  ASP241      0.2293
     71  O        -26.8020   -0.5610  -44.4200 O.2   241  ASP241     -0.2864
     72  CB       -25.3920   -3.1990  -43.0850 C.3   241  ASP241      0.1436
     73  CG       -24.2970   -2.1460  -42.8880 C.2   241  ASP241      0.3671
     74  OD1      -23.3540   -2.0940  -43.7200 O.co2 241  ASP241     -0.2456
     75  OD2      -24.3660   -1.3870  -41.8940 O.co2 241  ASP241     -0.2456
     76  N        -28.2470    0.9600  -41.2990 N.3   243  VAL243     -0.1245
     77  CA       -27.7000    1.4680  -40.0590 C.3   243  VAL243      0.1561
     78  C        -28.8320    1.5210  -39.0370 C.2   243  VAL243      0.2260
     79  O        -29.9340    1.9530  -39.3530 O.2   243  VAL243     -0.2867
     80  CB       -27.0660    2.8620  -40.2410 C.3   243  VAL243      0.0252
     81  CG1      -26.4790    3.3360  -38.9190 C.3   243  VAL243      0.0019
     82  CG2      -25.9940    2.8300  -41.3270 C.3   243  VAL243      0.0019
@<TRIPOS>BOND
     1     1     2    1
     2     2     5    1
     3     2     3    1
     4     3     6   am
     5     3     4    2
     6    67    65    1
     7     6     7    1
     8    10     7    1
     9    61    62    1
    10     7     8    1
    11    62    65    1
    12    62    63    1
    13    65    66    1
    14     9     8    2
    15     8    11   am
    16    63    64    2
    17    63    68   am
    18    55    56    2
    19    55    54    1
    20    11    12    1
    21    42    43    1
    22    68    69    1
    23    50    49    1
    24    50    51    1
    25    14    13    2
    26    45    44    2
    27    49    44   am
    28    53    51   am
    29    53    54    1
    30    44    43    1
    31    13    12    1
    32    51    52    2
    33    43    46    1
    34    54    57    1
    35    71    70    2
    36    69    70    1
    37    69    72    1
    38    74    73   ar
    39    57    58    1
    40    46    47    1
    41    46    48    1
    42    72    73    1
    43    73    75   ar
    44    15    16    1
    45    58    59    1
    46    18    17    2
    47    59    60    1
    48    17    16    1
    49    16    19    1
    50    82    80    1
    51    76    77    1
    52    21    19    1
    53    32    30   ar
    54    32    31   ar
    55    20    19    1
    56    30    28   ar
    57    80    77    1
    58    80    81    1
    59    77    78    1
    60    31    29   ar
    61    79    78    2
    62    28    27   ar
    63    29    27   ar
    64    41    39   am
    65    27    26    1
    66    38    39    1
    67    38    37    1
    68    39    40    2
    69    26    23    1
    70    23    22    1
    71    23    24    1
    72    37    34    1
    73    33    24   am
    74    33    34    1
    75    24    25    2
    76    34    35    1
    77    36    35    2
