@<TRIPOS>MOLECULE
tmp/3gbeA01.pdb
 136 129 0 0 0
SMALL
GASTEIGER

@<TRIPOS>ATOM
      1  N         11.3300   47.9020   42.4590 N.3    60  ASP60      -0.1239
      2  CA        11.1310   46.4620   42.7060 C.3    60  ASP60       0.1674
      3  C         10.9020   46.2090   44.2010 C.2    60  ASP60       0.2266
      4  O         11.4590   45.2810   44.7810 O.2    60  ASP60      -0.2867
      5  CB        12.3330   45.6600   42.1660 C.3    60  ASP60       0.1410
      6  CG        12.0900   44.1480   42.1440 C.2    60  ASP60       0.3668
      7  OD1       10.9150   43.7040   42.1520 O.co2  60  ASP60      -0.2456
      8  OD2       13.0880   43.3990   42.0940 O.co2  60  ASP60      -0.2456
      9  N         14.0520   45.6690   46.4120 N.3    63  TYR63      -0.1241
     10  CA        15.1690   44.9790   45.7980 C.3    63  TYR63       0.1605
     11  C         16.0380   45.8890   44.9100 C.2    63  TYR63       0.2264
     12  O         16.9490   45.4040   44.2610 O.2    63  TYR63      -0.2867
     13  CB        14.6730   43.7400   45.0330 C.3    63  TYR63       0.0534
     14  CG        14.3060   42.6130   45.9750 C.ar   63  TYR63      -0.0201
     15  CD1       12.9810   42.4120   46.3850 C.ar   63  TYR63      -0.0009
     16  CD2       15.2990   41.7780   46.5090 C.ar   63  TYR63      -0.0009
     17  CE1       12.6530   41.4230   47.3070 C.ar   63  TYR63       0.0417
     18  CE2       14.9830   40.7910   47.4270 C.ar   63  TYR63       0.0417
     19  CZ        13.6670   40.6200   47.8250 C.ar   63  TYR63       0.1957
     20  OH        13.3650   39.6330   48.7340 O.3    63  TYR63      -0.2866
     21  N         23.0030   43.6110   42.4790 N.3   103  HIS103     -0.1241
     22  CA        22.6970   44.8870   41.8320 C.3   103  HIS103      0.1621
     23  C         22.2650   45.9410   42.8590 C.2   103  HIS103      0.2264
     24  O         21.9230   45.6070   44.0120 O.2   103  HIS103     -0.2867
     25  CB        21.5370   44.6820   40.8320 C.3   103  HIS103      0.0745
     26  CG        20.3530   43.9500   41.4140 C.ar  103  HIS103      0.0817
     27  ND1       20.2240   42.5800   41.3490 N.ar  103  HIS103     -0.2268
     28  CD2       19.2790   44.3930   42.1160 C.ar  103  HIS103      0.1154
     29  CE1       19.1250   42.2070   41.9870 C.ar  103  HIS103      0.1986
     30  NE2       18.5320   43.2870   42.4620 N.ar  103  HIS103     -0.2212
     31  N         13.0270   41.0490   33.7510 N.3   144  PHE144     -0.1241
     32  CA        11.8640   41.9270   33.8500 C.3   144  PHE144      0.1605
     33  C         11.4390   42.5590   32.5330 C.2   144  PHE144      0.2264
     34  O         10.7350   43.5810   32.5050 O.2   144  PHE144     -0.2867
     35  CB        12.1030   42.9930   34.9260 C.3   144  PHE144      0.0534
     36  CG        12.1410   42.4440   36.3480 C.ar  144  PHE144     -0.0203
     37  CD1       12.6780   43.2030   37.3860 C.ar  144  PHE144     -0.0042
     38  CD2       11.6240   41.1870   36.6450 C.ar  144  PHE144     -0.0042
     39  CE1       12.6990   42.7170   38.7090 C.ar  144  PHE144     -0.0003
     40  CE2       11.6450   40.6920   37.9680 C.ar  144  PHE144     -0.0003
     41  CZ        12.1810   41.4530   38.9950 C.ar  144  PHE144     -0.0000
     42  N         18.0270   42.4170   35.9830 N.3   163  PHE163     -0.1241
     43  CA        16.6610   42.7120   36.4080 C.3   163  PHE163      0.1605
     44  C         16.1300   44.0310   35.8130 C.2   163  PHE163      0.2264
     45  O         16.2640   44.2180   34.6020 O.2   163  PHE163     -0.2867
     46  CB        16.5750   42.6190   37.9390 C.3   163  PHE163      0.0534
     47  CG        16.8050   41.2180   38.4360 C.ar  163  PHE163     -0.0203
     48  CD1       18.0860   40.7600   38.7320 C.ar  163  PHE163     -0.0042
     49  CD2       15.7490   40.3170   38.4860 C.ar  163  PHE163     -0.0042
     50  CE1       18.3040   39.4110   39.0650 C.ar  163  PHE163     -0.0003
     51  CE2       15.9680   38.9710   38.8180 C.ar  163  PHE163     -0.0003
     52  CZ        17.2420   38.5310   39.1030 C.ar  163  PHE163     -0.0000
     53  N         17.9390   48.5560   38.1310 N.3   167  GLN167     -0.1245
     54  CA        18.7330   47.6380   38.9540 C.3   167  GLN167      0.1566
     55  C         20.0420   47.2460   38.2740 C.2   167  GLN167      0.2260
     56  O         20.2650   46.0930   37.9330 O.2   167  GLN167     -0.2867
     57  CB        17.9180   46.3690   39.2680 C.3   167  GLN167      0.0367
     58  CG        16.7850   46.6720   40.2720 C.3   167  GLN167      0.0905
     59  CD        15.7650   45.5530   40.3570 C.2   167  GLN167      0.2608
     60  OE1       15.1550   45.1680   39.3520 O.2   167  GLN167     -0.2717
     61  NE2       15.5630   45.0320   41.5700 N.am  167  GLN167     -0.0878
     62  N         19.8590   36.3080   53.9350 N.3   197  ARG197     -0.1245
     63  CA        19.2670   35.5750   52.8020 C.3   197  ARG197      0.1563
     64  C         19.8450   36.3130   51.5940 C.2   197  ARG197      0.2260
     65  O         19.5550   37.4790   51.4030 O.2   197  ARG197     -0.2867
     66  CB        17.7420   35.7000   52.8330 C.3   197  ARG197      0.0307
     67  CG        16.9950   35.0760   51.6260 C.3   197  ARG197      0.0489
     68  CD        16.8680   36.0810   50.4740 C.3   197  ARG197      0.2205
     69  NE        15.8640   35.6140   49.5020 N.pl3 197  ARG197     -0.0865
     70  CZ        15.5230   36.2760   48.3980 C.cat 197  ARG197      0.5346
     71  NH1       16.1090   37.4280   48.1050 N.pl3 197  ARG197      0.1354
     72  NH2       14.5730   35.7880   47.5970 N.pl3 197  ARG197      0.1354
     73  N         19.9920   37.3650   47.9420 N.3   199  ASP199     -0.1225
     74  CA        19.1800   37.5250   46.7370 C.3   199  ASP199      0.1805
     75  C         19.9860   37.1880   45.4720 C.2   199  ASP199      0.2598
     76  O         21.0970   37.7070   45.3010 O.2   199  ASP199     -0.2718
     77  CB        18.7060   38.9830   46.6790 C.3   199  ASP199      0.1424
     78  CG        17.8170   39.2470   45.5010 C.2   199  ASP199      0.3668
     79  OD1       18.1930   40.0400   44.6070 O.co2 199  ASP199     -0.2456
     80  OD2       16.7250   38.6400   45.4810 O.co2 199  ASP199     -0.2456
     81  N         19.4190   36.3450   44.5940 N.am  200  THR200     -0.1953
     82  CA        20.0580   35.8850   43.3430 C.3   200  THR200      0.1897
     83  C         21.5650   35.7240   43.5240 C.2   200  THR200      0.2313
     84  O         22.3920   36.2690   42.7760 O.2   200  THR200     -0.2863
     85  CB        19.7060   36.8150   42.1330 C.3   200  THR200      0.1794
     86  OG1       20.2770   36.2590   40.9370 O.3   200  THR200     -0.2208
     87  CG2       20.2220   38.2490   42.3240 C.3   200  THR200      0.0378
     88  N         19.4640   32.1910   47.6490 N.3   253  GLU253     -0.1245
     89  CA        18.3800   32.1030   46.6820 C.3   253  GLU253      0.1567
     90  C         19.0600   31.7810   45.3600 C.2   253  GLU253      0.2260
     91  O         19.6190   32.6610   44.7150 O.2   253  GLU253     -0.2867
     92  CB        17.6420   33.4480   46.6070 C.3   253  GLU253      0.0388
     93  CG        16.4160   33.4040   45.7090 C.3   253  GLU253      0.1160
     94  CD        16.6830   34.0100   44.3560 C.2   253  GLU253      0.3649
     95  OE1       16.9820   35.2200   44.3020 O.co2 253  GLU253     -0.2457
     96  OE2       16.6160   33.2580   43.3510 O.co2 253  GLU253     -0.2457
     97  N          7.0180   35.6010   48.4870 N.3   326  HIS326     -0.1226
     98  CA         6.5970   36.8520   47.8510 C.3   326  HIS326      0.1752
     99  C          6.7760   36.8930   46.3320 C.2   326  HIS326      0.2596
    100  O          6.4030   37.8810   45.7110 O.2   326  HIS326     -0.2718
    101  CB         7.3720   38.0210   48.4560 C.3   326  HIS326      0.0759
    102  CG         8.8360   37.9600   48.1630 C.ar  326  HIS326      0.0818
    103  ND1        9.6130   36.8710   48.5040 N.ar  326  HIS326     -0.2268
    104  CD2        9.6400   38.7990   47.4730 C.ar  326  HIS326      0.1154
    105  CE1       10.8350   37.0450   48.0370 C.ar  326  HIS326      0.1986
    106  NE2       10.8780   38.2070   47.4020 N.ar  326  HIS326     -0.2212
    107  N          7.3470   35.8370   45.7500 N.am  327  ASP327     -0.1974
    108  CA         7.5520   35.7810   44.2950 C.3   327  ASP327      0.1709
    109  C          6.6920   34.7110   43.6380 C.2   327  ASP327      0.2293
    110  O          6.8630   34.4250   42.4500 O.2   327  ASP327     -0.2864
    111  CB         9.0010   35.4080   43.9650 C.3   327  ASP327      0.1436
    112  CG        10.0010   36.4700   44.3680 C.2   327  ASP327      0.3671
    113  OD1        9.6550   37.6740   44.3420 O.co2 327  ASP327     -0.2456
    114  OD2       11.1430   36.0760   44.7080 O.co2 327  ASP327     -0.2456
    115  N          3.4380   37.1530   41.0970 N.3   414  ARG414     -0.1245
    116  CA         4.0130   37.3880   42.4290 C.3   414  ARG414      0.1563
    117  C          3.0400   38.1940   43.2840 C.2   414  ARG414      0.2260
    118  O          3.0270   38.0990   44.5180 O.2   414  ARG414     -0.2867
    119  CB         5.3120   38.2040   42.2910 C.3   414  ARG414      0.0307
    120  CG         6.2700   37.6190   41.2610 C.3   414  ARG414      0.0489
    121  CD         7.6880   38.1380   41.4290 C.3   414  ARG414      0.2205
    122  NE         7.8280   39.5540   41.1130 N.pl3 414  ARG414     -0.0865
    123  CZ         8.9630   40.2340   41.2680 C.cat 414  ARG414      0.5346
    124  NH1       10.0530   39.6190   41.7230 N.pl3 414  ARG414      0.1354
    125  NH2        8.9850   41.5330   41.0070 N.pl3 414  ARG414      0.1354
    126  N          1.3610   39.3430   47.6310 N.3   418  ARG418     -0.1245
    127  CA         1.6790   40.6640   48.1490 C.3   418  ARG418      0.1563
    128  C          0.4890   41.4870   48.6140 C.2   418  ARG418      0.2260
    129  O          0.6520   42.6440   49.0000 O.2   418  ARG418     -0.2867
    130  CB         2.4870   41.4340   47.0850 C.3   418  ARG418      0.0307
    131  CG         3.7000   40.6210   46.6490 C.3   418  ARG418      0.0489
    132  CD         4.5210   41.3590   45.5690 C.3   418  ARG418      0.2205
    133  NE         5.7330   40.5900   45.2880 N.pl3 418  ARG418     -0.0865
    134  CZ         6.7820   41.0970   44.6450 C.cat 418  ARG418      0.5346
    135  NH1        6.7470   42.3520   44.2120 N.pl3 418  ARG418      0.1354
    136  NH2        7.8830   40.3710   44.5020 N.pl3 418  ARG418      0.1354
@<TRIPOS>BOND
     1    34    33    2
     2    33    32    1
     3    31    32    1
     4    32    35    1
     5    45    44    2
     6    35    36    1
     7    44    43    1
     8    42    43    1
     9    36    38   ar
    10    36    37   ar
    11    43    46    1
    12    38    40   ar
    13    37    39   ar
    14    56    55    2
    15    46    47    1
    16    40    41   ar
    17    53    54    1
    18    55    54    1
    19    47    49   ar
    20    47    48   ar
    21    49    51   ar
    22    39    41   ar
    23    48    50   ar
    24    51    52   ar
    25    54    57    1
    26    50    52   ar
    27    57    58    1
    28    60    59    2
    29    58    59    1
    30    59    61   am
    31    25    26    1
    32    25    22    1
    33    86    85    1
    34   125   123    1
    35   115   116    1
    36   122   123    2
    37   122   121    1
    38   120   121    1
    39   120   119    1
    40   123   124    1
    41    27    26   ar
    42    27    29   ar
    43    26    28   ar
    44    22    21    1
    45    22    23    1
    46    29    30   ar
    47     8     6   ar
    48    28    30   ar
    49    85    87    1
    50    85    82    1
    51     6     7   ar
    52     6     5    1
    53     5     2    1
    54   119   116    1
    55   116   117    1
    56   110   109    2
    57     1     2    1
    58     2     3    1
    59    84    83    2
    60    23    24    2
    61   117   118    2
    62    82    83    1
    63    82    81    1
    64    96    94   ar
    65   109   108    1
    66   111   108    1
    67   111   112    1
    68     3     4    2
    69   135   134    1
    70    12    11    2
    71   108   107    1
    72    95    94   ar
    73   113   112   ar
    74    94    93    1
    75   112   114   ar
    76   136   134    1
    77    81    75   am
    78    79    78   ar
    79   134   133    2
    80    91    90    2
    81    11    10    1
    82    13    10    1
    83    13    14    1
    84   133   132    1
    85    76    75    2
    86    90    89    1
    87    75    74    1
    88    80    78   ar
    89    78    77    1
    90   132   131    1
    91    93    92    1
    92   100    99    2
    93   107    99   am
    94    10     9    1
    95    14    15   ar
    96    14    16   ar
    97    99    98    1
    98    15    17   ar
    99    16    18   ar
   100    92    89    1
   101   131   130    1
   102    77    74    1
   103    89    88    1
   104    74    73    1
   105   130   127    1
   106    17    19   ar
   107   106   104   ar
   108   106   105   ar
   109    18    19   ar
   110   104   102   ar
   111    72    70    1
   112   126   127    1
   113    19    20    1
   114    98   101    1
   115    98    97    1
   116   105   103   ar
   117    71    70    1
   118   127   128    1
   119   102   101    1
   120   102   103   ar
   121    70    69    2
   122   128   129    2
   123    69    68    1
   124    68    67    1
   125    65    64    2
   126    64    63    1
   127    67    66    1
   128    63    66    1
   129    63    62    1
