@<TRIPOS>MOLECULE
tmp/3gbfA00.pdb
 113 106 0 0 0
SMALL
GASTEIGER

@<TRIPOS>ATOM
      1  N          8.2810   36.8420   28.6670 N.3    79  ARG79      -0.1245
      2  CA         8.3300   36.0850   27.4210 C.3    79  ARG79       0.1563
      3  C          6.9120   35.6800   27.0660 C.2    79  ARG79       0.2260
      4  O          6.1360   35.2920   27.9480 O.2    79  ARG79      -0.2867
      5  CB         9.2130   34.8300   27.5610 C.3    79  ARG79       0.0307
      6  CG         9.2450   33.9310   26.3160 C.3    79  ARG79       0.0489
      7  CD        10.0670   32.6580   26.5280 C.3    79  ARG79       0.2205
      8  NE        11.4560   32.9540   26.8820 N.pl3  79  ARG79      -0.0865
      9  CZ        12.3450   32.0450   27.2770 C.cat  79  ARG79       0.5346
     10  NH1       12.0040   30.7630   27.3590 N.pl3  79  ARG79       0.1354
     11  NH2       13.5800   32.4270   27.5960 N.pl3  79  ARG79       0.1354
     12  N          9.9220   34.0630   33.8360 N.3    85  TYR85      -0.1241
     13  CA        10.8590   33.6700   34.8940 C.3    85  TYR85       0.1605
     14  C         11.2530   34.8810   35.7260 C.2    85  TYR85       0.2264
     15  O         11.1540   36.0270   35.2610 O.2    85  TYR85      -0.2867
     16  CB        12.1840   33.1990   34.2960 C.3    85  TYR85       0.0534
     17  CG        12.1670   32.0040   33.3790 C.ar   85  TYR85      -0.0201
     18  CD1       11.5410   30.8220   33.7470 C.ar   85  TYR85      -0.0009
     19  CD2       12.8610   32.0340   32.1750 C.ar   85  TYR85      -0.0009
     20  CE1       11.5570   29.7130   32.9040 C.ar   85  TYR85       0.0417
     21  CE2       12.8970   30.9200   31.3300 C.ar   85  TYR85       0.0417
     22  CZ        12.2430   29.7620   31.7070 C.ar   85  TYR85       0.1957
     23  OH        12.2630   28.6520   30.8710 O.3    85  TYR85      -0.2866
     24  N         15.0890   35.6640   37.2850 N.3    87  TYR87      -0.1241
     25  CA        16.4970   35.2430   37.3210 C.3    87  TYR87       0.1605
     26  C         17.1750   35.7870   38.5660 C.2    87  TYR87       0.2264
     27  O         17.0600   36.9740   38.8700 O.2    87  TYR87      -0.2867
     28  CB        17.2800   35.7630   36.1050 C.3    87  TYR87       0.0534
     29  CG        17.1040   34.9780   34.8240 C.ar   87  TYR87      -0.0201
     30  CD1       17.6040   33.6800   34.6920 C.ar   87  TYR87      -0.0009
     31  CD2       16.4630   35.5460   33.7310 C.ar   87  TYR87      -0.0009
     32  CE1       17.4450   32.9670   33.4960 C.ar   87  TYR87       0.0417
     33  CE2       16.2910   34.8430   32.5390 C.ar   87  TYR87       0.0417
     34  CZ        16.7760   33.5590   32.4290 C.ar   87  TYR87       0.1957
     35  OH        16.6070   32.8860   31.2380 O.3    87  TYR87      -0.2866
     36  N         22.7450   30.4210   37.8500 N.3   100  VAL100     -0.1245
     37  CA        21.4310   31.0480   37.9250 C.3   100  VAL100      0.1561
     38  C         20.4100   30.2090   38.6620 C.2   100  VAL100      0.2260
     39  O         20.3510   28.9840   38.5060 O.2   100  VAL100     -0.2867
     40  CB        20.8870   31.4410   36.5280 C.3   100  VAL100      0.0252
     41  CG1       21.5920   32.7110   36.0320 C.3   100  VAL100      0.0019
     42  CG2       21.0850   30.3220   35.5400 C.3   100  VAL100      0.0019
     43  N         16.2410   30.2540   38.8910 N.3   102  LEU102     -0.1245
     44  CA        15.0620   30.7910   38.2170 C.3   102  LEU102      0.1561
     45  C         13.7920   30.3960   38.9460 C.2   102  LEU102      0.2260
     46  O         13.6070   29.2110   39.2820 O.2   102  LEU102     -0.2867
     47  CB        14.9690   30.2440   36.7940 C.3   102  LEU102      0.0270
     48  CG        15.9710   30.5810   35.6960 C.3   102  LEU102      0.0019
     49  CD1       17.3250   29.9120   35.9680 C.3   102  LEU102      0.0001
     50  CD2       15.3920   30.0980   34.3690 C.3   102  LEU102      0.0001
     51  N         13.3760   29.0480   24.4260 N.3   115  ASN115     -0.1240
     52  CA        14.5000   29.9470   24.1850 C.3   115  ASN115      0.1653
     53  C         15.2090   29.5780   22.8700 C.2   115  ASN115      0.2266
     54  O         14.7650   28.6820   22.1540 O.2   115  ASN115     -0.2867
     55  CB        15.4590   30.0130   25.4000 C.3   115  ASN115      0.1155
     56  CG        16.2860   28.7480   25.6010 C.2   115  ASN115      0.2627
     57  OD1       16.3530   27.8860   24.7370 O.2   115  ASN115     -0.2716
     58  ND2       16.9250   28.6450   26.7620 N.am  115  ASN115     -0.0877
     59  N         21.7190   27.5230   23.7750 N.3   118  HIS118     -0.1241
     60  CA        23.0200   28.1510   24.0350 C.3   118  HIS118      0.1621
     61  C         24.0910   27.1000   23.8790 C.2   118  HIS118      0.2264
     62  O         23.8290   25.9220   24.1160 O.2   118  HIS118     -0.2867
     63  CB        23.0790   28.7730   25.4420 C.3   118  HIS118      0.0745
     64  CG        22.4100   27.9610   26.5080 C.ar  118  HIS118      0.0817
     65  ND1       22.9770   26.8310   27.0570 N.ar  118  HIS118     -0.2268
     66  CD2       21.2350   28.1470   27.1600 C.ar  118  HIS118      0.1154
     67  CE1       22.1710   26.3410   27.9830 C.ar  118  HIS118      0.1986
     68  NE2       21.1080   27.1220   28.0690 N.ar  118  HIS118     -0.2212
     69  N         21.0500   19.8640   30.0020 N.3   165  GLU165     -0.1245
     70  CA        20.4840   20.5520   28.8400 C.3   165  GLU165      0.1567
     71  C         21.5350   20.4300   27.7380 C.2   165  GLU165      0.2260
     72  O         22.6540   20.8850   27.9220 O.2   165  GLU165     -0.2867
     73  CB        20.2240   22.0490   29.1380 C.3   165  GLU165      0.0388
     74  CG        19.4820   22.3180   30.4340 C.3   165  GLU165      0.1160
     75  CD        19.1850   23.7970   30.6400 C.2   165  GLU165      0.3649
     76  OE1       19.9140   24.6210   30.0460 O.co2 165  GLU165     -0.2457
     77  OE2       18.2270   24.1130   31.3910 O.co2 165  GLU165     -0.2457
     78  N         15.1350   25.2230   24.7600 N.3   171  HIS171     -0.1241
     79  CA        14.4200   24.5980   25.8660 C.3   171  HIS171      0.1621
     80  C         13.6780   25.6680   26.6750 C.2   171  HIS171      0.2264
     81  O         13.9510   26.8650   26.5360 O.2   171  HIS171     -0.2867
     82  CB        15.3920   23.8140   26.7570 C.3   171  HIS171      0.0745
     83  CG        16.5950   24.6070   27.1570 C.ar  171  HIS171      0.0817
     84  ND1       17.6900   24.7530   26.3330 N.ar  171  HIS171     -0.2268
     85  CD2       16.8550   25.3370   28.2660 C.ar  171  HIS171      0.1154
     86  CE1       18.5810   25.5290   26.9230 C.ar  171  HIS171      0.1986
     87  NE2       18.1020   25.8910   28.1030 N.ar  171  HIS171     -0.2212
     88  N         10.7650   25.9610   30.4850 N.3   173  TYR173     -0.1241
     89  CA        10.1110   25.3170   31.6220 C.3   173  TYR173      0.1605
     90  C          8.8030   26.0060   31.9930 C.2   173  TYR173      0.2264
     91  O          8.6670   27.2180   31.8520 O.2   173  TYR173     -0.2867
     92  CB        11.0390   25.2940   32.8560 C.3   173  TYR173      0.0534
     93  CG        12.3780   24.6540   32.5670 C.ar  173  TYR173     -0.0201
     94  CD1       12.5380   23.2760   32.6440 C.ar  173  TYR173     -0.0009
     95  CD2       13.4660   25.4250   32.1840 C.ar  173  TYR173     -0.0009
     96  CE1       13.7630   22.6780   32.3600 C.ar  173  TYR173      0.0417
     97  CE2       14.6930   24.8420   31.8780 C.ar  173  TYR173      0.0417
     98  CZ        14.8300   23.4740   31.9720 C.ar  173  TYR173      0.1957
     99  OH        16.0380   22.8910   31.6930 O.3   173  TYR173     -0.2866
    100  N         14.3770   26.4260   39.9020 N.3   183  ILE183     -0.1245
    101  CA        15.4760   25.5650   39.4350 C.3   183  ILE183      0.1561
    102  C         16.8160   26.2700   39.5990 C.2   183  ILE183      0.2260
    103  O         16.8760   27.4930   39.7230 O.2   183  ILE183     -0.2867
    104  CB        15.3160   25.1320   37.9440 C.3   183  ILE183      0.0252
    105  CG1       15.4700   26.3510   37.0020 C.3   183  ILE183      0.0019
    106  CG2       13.9800   24.4590   37.7410 C.3   183  ILE183      0.0019
    107  CD1       15.4960   26.0170   35.5050 C.3   183  ILE183      0.0001
    108  N         20.1080   26.3730   37.1910 N.3   185  SER185     -0.1217
    109  CA        20.7110   25.9340   35.9480 C.3   185  SER185      0.1889
    110  C         22.1770   26.3280   35.9720 C.2   185  SER185      0.2288
    111  O         22.5250   27.5150   36.0850 O.2   185  SER185     -0.2866
    112  CB        19.9810   26.4840   34.7180 C.3   185  SER185      0.2089
    113  OG        20.4110   25.8040   33.5420 O.3   185  SER185     -0.2183
@<TRIPOS>BOND
     1    54    53    2
     2    53    52    1
     3    59    60    1
     4    61    60    1
     5    61    62    2
     6    60    63    1
     7    52    51    1
     8    52    55    1
     9    57    56    2
    10    78    79    1
    11    55    56    1
    12    63    64    1
    13    56    58   am
    14    79    80    1
    15    79    82    1
    16     6     7    1
    17     6     5    1
    18    84    86   ar
    19    84    83   ar
    20    64    65   ar
    21    64    66   ar
    22     7     8    1
    23    81    80    2
    24    82    83    1
    25     8     9    2
    26    86    87   ar
    27    65    67   ar
    28     3     2    1
    29     3     4    2
    30    83    85   ar
    31    66    68   ar
    32     9    10    1
    33     9    11    1
    34     2     5    1
    35     2     1    1
    36    71    72    2
    37    71    70    1
    38    67    68   ar
    39    87    85   ar
    40    70    73    1
    41    70    69    1
    42    73    74    1
    43    76    75   ar
    44    74    75    1
    45    88    89    1
    46    75    77   ar
    47    23    22    1
    48    35    34    1
    49    21    22   ar
    50    21    19   ar
    51    89    90    1
    52    89    92    1
    53    99    98    1
    54    22    20   ar
    55    91    90    2
    56    97    98   ar
    57    97    95   ar
    58    98    96   ar
    59    19    17   ar
    60    95    93   ar
    61    96    94   ar
    62    34    33   ar
    63    34    32   ar
    64    33    31   ar
    65    93    94   ar
    66    93    92    1
    67    20    18   ar
    68    17    18   ar
    69    17    16    1
    70    32    30   ar
    71   113   112    1
    72    31    29   ar
    73    12    13    1
    74    16    13    1
    75    50    48    1
    76    30    29   ar
    77   112   109    1
    78    29    28    1
    79    13    14    1
    80    15    14    2
    81   107   105    1
    82    42    40    1
    83    48    49    1
    84    48    47    1
    85   109   110    1
    86   109   108    1
    87   110   111    2
    88    41    40    1
    89    28    25    1
    90    40    37    1
    91    47    44    1
    92   105   104    1
    93    24    25    1
    94    25    26    1
    95   106   104    1
    96    36    37    1
    97    37    38    1
    98   104   101    1
    99    44    43    1
   100    44    45    1
   101    39    38    2
   102    26    27    2
   103    45    46    2
   104   101   102    1
   105   101   100    1
   106   102   103    2
