@<TRIPOS>MOLECULE
tmp/3gbhB01.pdb
 118 111 0 0 0
SMALL
GASTEIGER

@<TRIPOS>ATOM
      1  N         21.8720   84.3870   25.1650 N.3    17  ARG17      -0.1231
      2  CA        21.4240   85.0470   26.3980 C.3    17  ARG17       0.1694
      3  C         22.6460   85.2140   27.3210 C.2    17  ARG17       0.2592
      4  O         23.1040   84.2580   27.9430 O.2    17  ARG17      -0.2718
      5  CB        20.3410   84.2090   27.0930 C.3    17  ARG17       0.0321
      6  CG        19.4040   84.9480   28.0640 C.3    17  ARG17       0.0489
      7  CD        20.1000   85.4650   29.3320 C.3    17  ARG17       0.2205
      8  NE        20.9210   84.4230   29.9710 N.pl3  17  ARG17      -0.0865
      9  CZ        22.0160   84.6830   30.6820 C.cat  17  ARG17       0.5346
     10  NH1       22.3960   85.9450   30.8720 N.pl3  17  ARG17       0.1354
     11  NH2       22.7630   83.6940   31.1540 N.pl3  17  ARG17       0.1354
     12  N         23.1560   86.4360   27.3870 N.am   18  LYS18      -0.1966
     13  CA        24.2950   86.8130   28.2170 C.3    18  LYS18       0.1728
     14  C         24.0370   88.2040   28.8330 C.2    18  LYS18       0.2616
     15  O         23.1770   88.9580   28.3440 O.2    18  LYS18      -0.2715
     16  CB        25.5860   86.8400   27.3670 C.3    18  LYS18       0.0311
     17  CG        25.8520   85.5330   26.5660 C.3    18  LYS18       0.0038
     18  CD        27.1070   85.6500   25.7170 C.3    18  LYS18       0.0206
     19  CE        27.3290   84.3890   24.8940 C.3    18  LYS18       0.1093
     20  NZ        28.4170   84.5690   23.9300 N.3    18  LYS18      -0.1314
     21  N         24.7550   88.5270   29.9130 N.am   19  SER19      -0.1950
     22  CA        24.5690   89.8080   30.6040 C.3    19  SER19       0.1924
     23  C         25.2730   90.9250   29.8460 C.2    19  SER19       0.2314
     24  O         26.4950   91.0690   29.8990 O.2    19  SER19      -0.2863
     25  CB        25.1060   89.7530   32.0400 C.3    19  SER19       0.2116
     26  OG        24.2610   88.9730   32.8700 O.3    19  SER19      -0.2180
     27  N         25.8570   94.8580   29.7170 N.3    21  LYS21      -0.1245
     28  CA        25.8700   95.9490   30.7050 C.3    21  LYS21       0.1561
     29  C         25.9170   97.3740   30.1220 C.2    21  LYS21       0.2260
     30  O         25.7750   98.3480   30.8610 O.2    21  LYS21      -0.2867
     31  CB        27.0370   95.7050   31.6750 C.3    21  LYS21       0.0271
     32  CG        26.9280   94.3080   32.2900 C.3    21  LYS21       0.0035
     33  CD        27.7980   94.0840   33.4790 C.3    21  LYS21       0.0206
     34  CE        27.6060   92.6520   33.9730 C.3    21  LYS21       0.1093
     35  NZ        28.2480   92.4760   35.3020 N.3    21  LYS21      -0.1314
     36  N         25.5530   99.7240   39.6690 N.3    71  ASN71      -0.1240
     37  CA        24.8710   99.3820   38.4250 C.3    71  ASN71       0.1653
     38  C         24.3250  100.6160   37.6410 C.2    71  ASN71       0.2266
     39  O         23.3070  100.5480   36.9270 O.2    71  ASN71      -0.2867
     40  CB        23.7950   98.3410   38.7390 C.3    71  ASN71       0.1155
     41  CG        24.3870   97.0390   39.2090 C.2    71  ASN71       0.2627
     42  OD1       25.1460   96.4260   38.4830 O.2    71  ASN71      -0.2716
     43  ND2       24.0480   96.6010   40.4180 N.am   71  ASN71      -0.0877
     44  N         24.0840  100.5060   33.5900 N.3    74  GLN74      -0.1245
     45  CA        22.9820   99.7210   33.0790 C.3    74  GLN74       0.1566
     46  C         21.7130  100.5530   33.1930 C.2    74  GLN74       0.2260
     47  O         20.9460  100.6230   32.2450 O.2    74  GLN74      -0.2867
     48  CB        22.7880   98.3910   33.8320 C.3    74  GLN74       0.0367
     49  CG        23.9150   97.3790   33.7100 C.3    74  GLN74       0.0905
     50  CD        24.8780   97.4770   34.8780 C.2    74  GLN74       0.2608
     51  OE1       25.3610   98.5570   35.2020 O.2    74  GLN74      -0.2717
     52  NE2       25.1330   96.3490   35.5310 N.am   74  GLN74      -0.0878
     53  N         20.3370   92.3070   31.4500 N.3   152  ASN152     -0.1226
     54  CA        21.2900   92.0950   32.5620 C.3   152  ASN152      0.1770
     55  C         20.4630   91.9700   33.8180 C.2   152  ASN152      0.2439
     56  O         19.8270   92.9590   34.2570 O.2   152  ASN152     -0.2733
     57  CB        22.2820   93.2540   32.6680 C.3   152  ASN152      0.1168
     58  CG        23.2960   93.1180   33.8320 C.2   152  ASN152      0.2627
     59  OD1       23.8200   94.1190   34.2750 O.2   152  ASN152     -0.2716
     60  ND2       23.5870   91.8970   34.2920 N.am  152  ASN152     -0.0877
     61  N         20.4020   90.7520   34.3840 N.am  153  PRO153     -0.2718
     62  CA        19.7140   90.6350   35.6800 C.3   153  PRO153      0.1535
     63  C         20.5640   91.2270   36.7690 C.2   153  PRO153      0.2598
     64  O         21.7840   91.0960   36.7350 O.2   153  PRO153     -0.2715
     65  CB        19.5050   89.1290   35.8370 C.3   153  PRO153      0.0310
     66  CG        20.6140   88.5060   35.0460 C.3   153  PRO153      0.0237
     67  CD        20.9190   89.4560   33.9120 C.3   153  PRO153      0.0939
     68  N         19.9170   91.8870   37.7290 N.am  154  ILE154     -0.1964
     69  CA        20.5900   92.7320   38.6880 C.3   154  ILE154      0.1727
     70  C         19.9510   92.5050   40.0620 C.2   154  ILE154      0.2617
     71  O         18.7240   92.5860   40.2050 O.2   154  ILE154     -0.2715
     72  CB        20.5160   94.2400   38.2520 C.3   154  ILE154      0.0290
     73  CG1       21.3970   94.4820   37.0150 C.3   154  ILE154      0.0022
     74  CG2       20.9680   95.1810   39.3680 C.3   154  ILE154      0.0023
     75  CD1       21.2480   95.8200   36.3190 C.3   154  ILE154      0.0001
     76  N         20.7950   92.1710   41.0450 N.am  155  GLY155     -0.1940
     77  CA        20.3890   91.9870   42.4290 C.3   155  GLY155      0.2014
     78  C         21.0240   93.0450   43.3000 C.2   155  GLY155      0.2639
     79  O         20.6020   93.2570   44.4220 O.2   155  GLY155     -0.2714
     80  N         22.0060   93.7560   42.7470 N.am  156  GLY156     -0.1954
     81  CA        22.7350   94.7720   43.4630 C.3   156  GLY156      0.1869
     82  C         22.0590   96.1200   43.4820 C.2   156  GLY156      0.2309
     83  O         22.6220   97.0950   42.9950 O.2   156  GLY156     -0.2863
     84  N         14.0710   90.8030   41.8430 N.3   177  LEU177     -0.1245
     85  CA        15.2560   91.1680   41.0890 C.3   177  LEU177      0.1561
     86  C         14.9000   92.2190   40.0750 C.2   177  LEU177      0.2260
     87  O         13.7160   92.4310   39.8260 O.2   177  LEU177     -0.2867
     88  CB        15.8440   89.9550   40.3770 C.3   177  LEU177      0.0270
     89  CG        15.2660   89.4840   39.0780 C.3   177  LEU177      0.0019
     90  CD1       16.2710   88.4890   38.3580 C.3   177  LEU177      0.0001
     91  CD2       13.9170   88.8490   39.3170 C.3   177  LEU177      0.0001
     92  N         30.6660   89.8990   28.0910 N.3   189  HIS189     -0.1241
     93  CA        31.7460   88.9370   28.3320 C.3   189  HIS189      0.1621
     94  C         31.1860   87.5090   28.4120 C.2   189  HIS189      0.2264
     95  O         30.1490   87.2690   29.0660 O.2   189  HIS189     -0.2867
     96  CB        32.4720   89.2400   29.6370 C.3   189  HIS189      0.0745
     97  CG        33.2380   90.5180   29.6080 C.ar  189  HIS189      0.0817
     98  ND1       34.2960   90.7280   28.7470 N.ar  189  HIS189     -0.2268
     99  CD2       33.0990   91.6590   30.3230 C.ar  189  HIS189      0.1154
    100  CE1       34.7740   91.9470   28.9350 C.ar  189  HIS189      0.1986
    101  NE2       34.0660   92.5330   29.8860 N.ar  189  HIS189     -0.2212
    102  N         31.2600   83.7180   29.8760 N.3   191  SER191     -0.1217
    103  CA        31.4720   83.2720   31.2560 C.3   191  SER191      0.1889
    104  C         31.4980   81.7650   31.3080 C.2   191  SER191      0.2288
    105  O         31.0940   81.1120   30.3550 O.2   191  SER191     -0.2866
    106  CB        30.3960   83.8240   32.1630 C.3   191  SER191      0.2089
    107  OG        29.1120   83.5310   31.6670 O.3   191  SER191     -0.2183
    108  N         30.8620   77.8760   33.1610 N.3   193  ARG193     -0.1245
    109  CA        29.9520   77.1190   34.0180 C.3   193  ARG193      0.1563
    110  C         30.6930   75.8970   34.5600 C.2   193  ARG193      0.2260
    111  O         31.6110   75.3800   33.9150 O.2   193  ARG193     -0.2867
    112  CB        28.6910   76.7170   33.2690 C.3   193  ARG193      0.0307
    113  CG        27.8250   77.8810   32.8350 C.3   193  ARG193      0.0489
    114  CD        27.2200   78.6400   34.0200 C.3   193  ARG193      0.2205
    115  NE        26.2950   79.6690   33.5890 N.pl3 193  ARG193     -0.0865
    116  CZ        26.6710   80.8570   33.1070 C.cat 193  ARG193      0.5346
    117  NH1       27.9560   81.1820   33.0000 N.pl3 193  ARG193      0.1354
    118  NH2       25.7660   81.7360   32.7260 N.pl3 193  ARG193      0.1354
@<TRIPOS>BOND
     1    20    19    1
     2    19    18    1
     3     1     2    1
     4    18    17    1
     5     2     5    1
     6     2     3    1
     7    17    16    1
     8     5     6    1
     9     3    12   am
    10     3     4    2
    11    16    13    1
    12    12    13    1
    13     6     7    1
    14    92    93    1
    15    13    14    1
    16    93    94    1
    17    93    96    1
    18    15    14    2
    19    94    95    2
    20    98   100   ar
    21    98    97   ar
    22    14    21   am
    23   100   101   ar
    24     7     8    1
    25    97    96    1
    26    97    99   ar
    27    27    28    1
    28    23    24    2
    29    23    22    1
    30   102   103    1
    31   101    99   ar
    32    21    22    1
    33     8     9    2
    34    29    28    1
    35    29    30    2
    36   105   104    2
    37    22    25    1
    38     9    10    1
    39     9    11    1
    40    28    31    1
    41   103   104    1
    42   103   106    1
    43    53    54    1
    44   107   106    1
    45    31    32    1
    46    25    26    1
    47    47    46    2
    48    32    33    1
    49    54    57    1
    50    54    55    1
    51    57    58    1
    52   118   116    1
    53   113   112    1
    54   113   114    1
    55   117   116    1
    56    45    46    1
    57    45    44    1
    58    45    48    1
    59   116   115    2
    60   108   109    1
    61   112   109    1
    62    33    34    1
    63   115   114    1
    64    49    48    1
    65    49    50    1
    66    55    56    2
    67    55    61   am
    68    58    59    2
    69    58    60   am
    70    67    61    1
    71    67    66    1
    72   111   110    2
    73    34    35    1
    74   109   110    1
    75    61    62    1
    76    50    51    2
    77    50    52   am
    78    66    65    1
    79    62    65    1
    80    62    63    1
    81    75    73    1
    82    64    63    2
    83    63    68   am
    84    39    38    2
    85    73    72    1
    86    38    37    1
    87    68    69    1
    88    72    69    1
    89    72    74    1
    90    90    89    1
    91    37    40    1
    92    37    36    1
    93    42    41    2
    94    69    70    1
    95    40    41    1
    96    89    91    1
    97    89    88    1
    98    41    43   am
    99    87    86    2
   100    70    71    2
   101    70    76   am
   102    86    85    1
   103    88    85    1
   104    76    77    1
   105    85    84    1
   106    77    78    1
   107    80    78   am
   108    80    81    1
   109    83    82    2
   110    78    79    2
   111    81    82    1
