@<TRIPOS>MOLECULE
tmp/3gbhB00.pdb
 80 77 0 0 0
SMALL
GASTEIGER

@<TRIPOS>ATOM
      1  N          3.4650   83.7070   30.6620 N.3    42  LYS42      -0.1231
      2  CA         3.0650   82.2930   30.4400 C.3    42  LYS42       0.1693
      3  C          3.8370   81.3090   31.3140 C.2    42  LYS42       0.2592
      4  O          3.5360   80.1200   31.3310 O.2    42  LYS42      -0.2718
      5  CB         3.1960   81.8880   28.9640 C.3    42  LYS42       0.0285
      6  CG         2.1950   82.5420   28.0670 C.3    42  LYS42       0.0035
      7  CD         2.3980   82.2420   26.5400 C.3    42  LYS42       0.0206
      8  CE         2.0260   80.8120   26.1860 C.3    42  LYS42       0.1093
      9  NZ         0.5850   80.5760   26.3950 N.3    42  LYS42      -0.1314
     10  N          4.8530   81.7970   32.0190 N.am   43  ALA43      -0.1966
     11  CA         5.5800   81.0320   33.0250 C.3    43  ALA43       0.1713
     12  C          4.6150   80.4120   34.0210 C.2    43  ALA43       0.2458
     13  O          3.5530   80.9770   34.2960 O.2    43  ALA43      -0.2730
     14  CB         6.5530   81.9580   33.7740 C.3    43  ALA43       0.0333
     15  N          5.0040   79.2790   34.6130 N.am   44  PRO44      -0.2716
     16  CA         4.1610   78.6770   35.6230 C.3    44  PRO44       0.1536
     17  C          4.3480   79.3780   36.9640 C.2    44  PRO44       0.2599
     18  O          5.3440   80.0580   37.1910 O.2    44  PRO44      -0.2715
     19  CB         4.6950   77.2400   35.7010 C.3    44  PRO44       0.0310
     20  CG         6.1430   77.3860   35.3860 C.3    44  PRO44       0.0237
     21  CD         6.2540   78.5230   34.4150 C.3    44  PRO44       0.0939
     22  N          3.3840   79.1920   37.8500 N.am   45  SER45      -0.1936
     23  CA         3.4870   79.7050   39.1990 C.3    45  SER45       0.2055
     24  C          2.6850   78.8220   40.1270 C.2    45  SER45       0.2644
     25  O          1.7690   78.1100   39.6970 O.2    45  SER45      -0.2714
     26  CB         2.9780   81.1430   39.2780 C.3    45  SER45       0.2130
     27  OG         1.5980   81.2000   38.9270 O.3    45  SER45      -0.2179
     28  N          3.0230   78.8820   41.4140 N.am   46  SER46      -0.1935
     29  CA         2.3730   78.0350   42.4070 C.3    46  SER46       0.2055
     30  C          0.8740   78.3650   42.3850 C.2    46  SER46       0.2643
     31  O          0.4930   79.5270   42.4150 O.2    46  SER46      -0.2714
     32  CB         3.0310   78.2680   43.7970 C.3    46  SER46       0.2130
     33  OG         2.3780   77.5420   44.8250 O.3    46  SER46      -0.2179
     34  N          0.0410   77.3290   42.2890 N.am   47  VAL47      -0.1963
     35  CA        -1.4260   77.4330   42.1170 C.3    47  VAL47       0.1727
     36  C         -1.8980   78.4800   41.1020 C.2    47  VAL47       0.2616
     37  O         -3.0060   78.9990   41.2100 O.2    47  VAL47      -0.2715
     38  CB        -2.1900   77.5300   43.4750 C.3    47  VAL47       0.0290
     39  CG1       -2.0620   76.1730   44.2040 C.3    47  VAL47       0.0023
     40  CG2       -1.6660   78.6520   44.3450 C.3    47  VAL47       0.0023
     41  N         -1.0590   78.7250   40.0920 N.am   48  ASN48      -0.1972
     42  CA        -1.3260   79.7100   39.0590 C.3    48  ASN48       0.1688
     43  C         -1.6650   81.1040   39.5930 C.2    48  ASN48       0.2292
     44  O         -2.4140   81.8530   38.9630 O.2    48  ASN48      -0.2864
     45  CB        -2.4260   79.2050   38.1280 C.3    48  ASN48       0.1181
     46  CG        -2.4230   79.9090   36.7810 C.2    48  ASN48       0.2629
     47  OD1       -1.3670   80.3170   36.2720 O.2    48  ASN48      -0.2716
     48  ND2       -3.6070   80.0650   36.2020 N.am   48  ASN48      -0.0877
     49  N          7.8090   81.7240   48.1030 N.3   131  ILE131     -0.1245
     50  CA         6.9300   81.3920   46.9730 C.3   131  ILE131      0.1561
     51  C          7.0240   82.4490   45.8890 C.2   131  ILE131      0.2260
     52  O          7.1480   82.1270   44.7060 O.2   131  ILE131     -0.2867
     53  CB         5.4500   81.2300   47.4090 C.3   131  ILE131      0.0252
     54  CG1        5.2740   79.9370   48.2300 C.3   131  ILE131      0.0019
     55  CG2        4.4960   81.2220   46.1730 C.3   131  ILE131      0.0019
     56  CD1        3.8600   79.7310   48.7880 C.3   131  ILE131      0.0001
     57  N         10.4560   82.5580   44.0390 N.3   134  ILE134     -0.1231
     58  CA        10.5450   81.4620   43.0970 C.3   134  ILE134      0.1692
     59  C          9.6890   81.7400   41.8650 C.2   134  ILE134      0.2592
     60  O         10.2020   81.6670   40.7420 O.2   134  ILE134     -0.2718
     61  CB        10.1940   80.0790   43.7350 C.3   134  ILE134      0.0266
     62  CG1       11.2430   79.6980   44.8060 C.3   134  ILE134      0.0019
     63  CG2       10.0810   79.0110   42.6650 C.3   134  ILE134      0.0020
     64  CD1       10.7800   78.6110   45.7780 C.3   134  ILE134      0.0001
     65  N          8.4080   82.0770   42.0510 N.am  135  ASP135     -0.1974
     66  CA         7.5250   82.2360   40.9000 C.3   135  ASP135      0.1709
     67  C          8.0370   83.3640   40.0160 C.2   135  ASP135      0.2293
     68  O          8.0660   83.2160   38.8140 O.2   135  ASP135     -0.2864
     69  CB         6.0870   82.5560   41.3130 C.3   135  ASP135      0.1436
     70  CG         5.3460   81.3770   41.9440 C.2   135  ASP135      0.3671
     71  OD1        5.7020   80.2110   41.6940 O.co2 135  ASP135     -0.2456
     72  OD2        4.3590   81.6490   42.6770 O.co2 135  ASP135     -0.2456
     73  N         11.0190   82.4470   37.9240 N.3   138  LEU138     -0.1245
     74  CA        10.6460   81.6380   36.7720 C.3   138  LEU138      0.1561
     75  C         10.2270   82.5380   35.5970 C.2   138  LEU138      0.2260
     76  O         10.6630   82.3350   34.4580 O.2   138  LEU138     -0.2867
     77  CB         9.5510   80.6320   37.1190 C.3   138  LEU138      0.0270
     78  CG         9.8710   79.5370   38.1620 C.3   138  LEU138      0.0019
     79  CD1        8.6330   78.7410   38.4780 C.3   138  LEU138      0.0001
     80  CD2       10.9950   78.6210   37.6650 C.3   138  LEU138      0.0001
@<TRIPOS>BOND
     1     8     9    1
     2     8     7    1
     3     7     6    1
     4     6     5    1
     5     5     2    1
     6     2     1    1
     7     2     3    1
     8     3     4    2
     9     3    10   am
    10    10    11    1
    11    11    14    1
    12    11    12    1
    13    12    13    2
    14    12    15   am
    15    21    15    1
    16    21    20    1
    17    76    75    2
    18    15    16    1
    19    20    19    1
    20    75    74    1
    21    16    19    1
    22    16    17    1
    23    48    46   am
    24    47    46    2
    25    74    77    1
    26    74    73    1
    27    46    45    1
    28    17    18    2
    29    17    22   am
    30    77    78    1
    31    80    78    1
    32    22    23    1
    33    45    42    1
    34    78    79    1
    35    68    67    2
    36    27    26    1
    37    44    43    2
    38    42    43    1
    39    42    41    1
    40    23    26    1
    41    23    24    1
    42    25    24    2
    43    67    66    1
    44    41    36   am
    45    24    28   am
    46    60    59    2
    47    66    69    1
    48    66    65    1
    49    36    37    2
    50    36    35    1
    51    69    70    1
    52    28    29    1
    53    71    70   ar
    54    59    65   am
    55    59    58    1
    56    70    72   ar
    57    35    34    1
    58    35    38    1
    59    34    30   am
    60    30    29    1
    61    30    31    2
    62    29    32    1
    63    63    61    1
    64    58    61    1
    65    58    57    1
    66    38    39    1
    67    38    40    1
    68    61    62    1
    69    32    33    1
    70    52    51    2
    71    62    64    1
    72    51    50    1
    73    55    53    1
    74    50    53    1
    75    50    49    1
    76    53    54    1
    77    54    56    1
