@<TRIPOS>MOLECULE
tmp/3gbuA00.pdb
 167 155 0 0 0
SMALL
GASTEIGER

@<TRIPOS>ATOM
      1  N         10.6790   11.4340   29.8280 N.3   158  ASN158     -0.1240
      2  CA        11.1000   10.5400   28.7410 C.3   158  ASN158      0.1653
      3  C         10.1940    9.3050   28.5880 C.2   158  ASN158      0.2266
      4  O         10.6250    8.1660   28.7640 O.2   158  ASN158     -0.2867
      5  CB        12.5590   10.1210   28.9960 C.3   158  ASN158      0.1155
      6  CG        13.2190    9.5080   27.7770 C.2   158  ASN158      0.2627
      7  OD1       12.9230    9.8930   26.6410 O.2   158  ASN158     -0.2716
      8  ND2       14.1360    8.5620   28.0040 N.am  158  ASN158     -0.0877
      9  N          8.1870    6.2180   27.2550 N.3   160  ARG160     -0.1245
     10  CA         8.3440    5.1620   26.2550 C.3   160  ARG160      0.1563
     11  C          7.3050    4.0900   26.5620 C.2   160  ARG160      0.2260
     12  O          7.5980    3.0870   27.2170 O.2   160  ARG160     -0.2867
     13  CB         9.7470    4.5540   26.3160 C.3   160  ARG160      0.0307
     14  CG        10.8500    5.5160   25.9370 C.3   160  ARG160      0.0489
     15  CD        10.7630    5.9060   24.4820 C.3   160  ARG160      0.2205
     16  NE        11.8310    6.8320   24.1210 N.pl3 160  ARG160     -0.0865
     17  CZ        11.8840    8.1100   24.4900 C.cat 160  ARG160      0.5346
     18  NH1       10.9230    8.6380   25.2400 N.pl3 160  ARG160      0.1354
     19  NH2       12.9100    8.8610   24.1080 N.pl3 160  ARG160      0.1354
     20  N         11.4320   17.6720   33.4710 N.3   185  LYS185     -0.1245
     21  CA        11.5130   17.9760   32.0490 C.3   185  LYS185      0.1561
     22  C         10.5130   17.0820   31.3230 C.2   185  LYS185      0.2260
     23  O         10.3670   15.9090   31.6550 O.2   185  LYS185     -0.2867
     24  CB        12.9230   17.7070   31.5080 C.3   185  LYS185      0.0271
     25  CG        13.0450   17.8650   29.9830 C.3   185  LYS185      0.0035
     26  CD        14.4700   17.5780   29.5080 C.3   185  LYS185      0.0206
     27  CE        14.5690   17.4650   27.9920 C.3   185  LYS185      0.1093
     28  NZ        13.8950   16.2570   27.4330 N.3   185  LYS185     -0.1314
     29  N          8.0340   16.7670   27.3260 N.3   187  SER187     -0.1217
     30  CA         7.5590   17.3380   26.0800 C.3   187  SER187      0.1889
     31  C          6.0900   17.6990   26.3000 C.2   187  SER187      0.2288
     32  O          5.4330   17.1480   27.1840 O.2   187  SER187     -0.2866
     33  CB         7.6690   16.3190   24.9480 C.3   187  SER187      0.2089
     34  OG         6.7020   15.2960   25.0930 O.3   187  SER187     -0.2183
     35  N          3.9800   14.7670   26.3210 N.3   190  GLU190     -0.1245
     36  CA         3.9980   13.9680   27.5440 C.3   190  GLU190      0.1567
     37  C          3.1540   14.6360   28.6210 C.2   190  GLU190      0.2260
     38  O          2.4670   13.9630   29.3950 O.2   190  GLU190     -0.2867
     39  CB         5.4410   13.7660   28.0240 C.3   190  GLU190      0.0388
     40  CG         6.2950   13.0340   26.9920 C.3   190  GLU190      0.1160
     41  CD         7.7630   12.9990   27.3490 C.2   190  GLU190      0.3649
     42  OE1        8.2340   13.9540   28.0010 O.co2 190  GLU190     -0.2457
     43  OE2        8.4470   12.0270   26.9580 O.co2 190  GLU190     -0.2457
     44  N          9.1310   21.0650   26.7570 N.3   209  THR209     -0.1218
     45  CA         9.6780   21.2570   25.4200 C.3   209  THR209      0.1862
     46  C          8.5990   21.2200   24.3530 C.2   209  THR209      0.2287
     47  O          7.6330   20.4650   24.4430 O.2   209  THR209     -0.2866
     48  CB        10.7950   20.2110   25.0970 C.3   209  THR209      0.1770
     49  OG1       10.2700   18.8780   25.1340 O.3   209  THR209     -0.2211
     50  CG2       11.9190   20.3280   26.1090 C.3   209  THR209      0.0375
     51  N          9.5480   20.9650   21.0780 N.3   211  GLY211     -0.1210
     52  CA        10.2870   20.5180   19.9140 C.3   211  GLY211      0.1940
     53  C         11.0590   21.6290   19.2300 C.2   211  GLY211      0.2453
     54  O         11.7110   22.4420   19.8900 O.2   211  GLY211     -0.2732
     55  N         11.0040   21.6860   17.8920 N.am  212  PRO212     -0.2728
     56  CA        11.7140   22.7210   17.1370 C.3   212  PRO212      0.1401
     57  C         11.2030   24.1350   17.4090 C.2   212  PRO212      0.2269
     58  O         11.8540   25.1090   17.0330 O.2   212  PRO212     -0.2865
     59  CB        11.5090   22.2900   15.6850 C.3   212  PRO212      0.0296
     60  CG        10.1860   21.5900   15.7250 C.3   212  PRO212      0.0237
     61  CD        10.2940   20.7660   16.9840 C.3   212  PRO212      0.0939
     62  N         10.9440   25.4240   20.3110 N.3   214  GLY214     -0.1210
     63  CA        11.5360   25.9310   21.5340 C.3   214  GLY214      0.1956
     64  C         10.9960   25.2620   22.7820 C.2   214  GLY214      0.2611
     65  O         10.4990   24.1400   22.7270 O.2   214  GLY214     -0.2717
     66  N         11.0880   25.9540   23.9100 N.am  215  PHE215     -0.1976
     67  CA        10.6210   25.3990   25.1630 C.3   215  PHE215      0.1639
     68  C         10.0210   26.4480   26.0910 C.2   215  PHE215      0.2290
     69  O          9.9960   27.6390   25.7840 O.2   215  PHE215     -0.2864
     70  CB        11.7680   24.6770   25.8730 C.3   215  PHE215      0.0560
     71  CG        12.9580   25.5500   26.1520 C.ar  215  PHE215     -0.0200
     72  CD1       13.1280   26.1490   27.3970 C.ar  215  PHE215     -0.0042
     73  CD2       13.9070   25.7880   25.1530 C.ar  215  PHE215     -0.0042
     74  CE1       14.2290   26.9750   27.6440 C.ar  215  PHE215     -0.0003
     75  CE2       14.9990   26.6060   25.3910 C.ar  215  PHE215     -0.0003
     76  CZ        15.1620   27.2000   26.6350 C.ar  215  PHE215     -0.0000
     77  N         12.8610   28.8200   19.8770 N.3   228  SER228     -0.1202
     78  CA        14.1040   28.2060   19.4110 C.3   228  SER228      0.2020
     79  C         15.0200   29.1640   18.6780 C.2   228  SER228      0.2618
     80  O         14.5540   30.0940   18.0230 O.2   228  SER228     -0.2717
     81  CB        13.8050   27.0390   18.4720 C.3   228  SER228      0.2103
     82  OG        13.1250   27.4710   17.3050 O.3   228  SER228     -0.2182
     83  N         16.3250   28.9340   18.8030 N.am  229  TYR229     -0.1975
     84  CA        17.3140   29.7400   18.0990 C.3   229  TYR229      0.1639
     85  C         17.0610   29.4700   16.6290 C.2   229  TYR229      0.2290
     86  O         16.5570   28.4090   16.2700 O.2   229  TYR229     -0.2864
     87  CB        18.7350   29.2810   18.4270 C.3   229  TYR229      0.0560
     88  CG        19.4070   30.0780   19.5050 C.ar  229  TYR229     -0.0198
     89  CD1       19.9560   31.3290   19.2340 C.ar  229  TYR229     -0.0009
     90  CD2       19.4830   29.5910   20.8020 C.ar  229  TYR229     -0.0009
     91  CE1       20.5700   32.0750   20.2390 C.ar  229  TYR229      0.0417
     92  CE2       20.0860   30.3240   21.8110 C.ar  229  TYR229      0.0417
     93  CZ        20.6310   31.5600   21.5300 C.ar  229  TYR229      0.1957
     94  OH        21.2520   32.2610   22.5430 O.3   229  TYR229     -0.2866
     95  N         18.2640   28.1790   13.5930 N.3   231  VAL231     -0.1245
     96  CA        19.3420   27.3660   13.0380 C.3   231  VAL231      0.1561
     97  C         18.8140   26.3390   12.0540 C.2   231  VAL231      0.2260
     98  O         17.6260   26.0380   12.0250 O.2   231  VAL231     -0.2867
     99  CB        20.1300   26.5820   14.1330 C.3   231  VAL231      0.0252
    100  CG1       20.4930   27.4930   15.2770 C.3   231  VAL231      0.0019
    101  CG2       19.3070   25.4000   14.6260 C.3   231  VAL231      0.0019
    102  N         18.9990   22.6950   11.5170 N.3   233  PRO233     -0.2116
    103  CA        19.3470   21.4260   12.1680 C.3   233  PRO233      0.1372
    104  C         19.9820   20.3600   11.2830 C.2   233  PRO233      0.2244
    105  O         19.4920   20.0550   10.2010 O.2   233  PRO233     -0.2868
    106  CB        18.0140   20.9620   12.7620 C.3   233  PRO233      0.0268
    107  CG        17.0030   21.5570   11.8460 C.3   233  PRO233      0.0207
    108  CD        17.5530   22.9510   11.6230 C.3   233  PRO233      0.0892
    109  N         18.9830   16.2710   15.2820 N.3   236  THR236     -0.1203
    110  CA        18.3720   16.6340   16.5640 C.3   236  THR236      0.1994
    111  C         18.3230   15.4670   17.5580 C.2   236  THR236      0.2618
    112  O         17.7630   15.6010   18.6530 O.2   236  THR236     -0.2717
    113  CB        16.9290   17.1270   16.3660 C.3   236  THR236      0.1784
    114  OG1       16.1370   16.0610   15.8340 O.3   236  THR236     -0.2211
    115  CG2       16.8870   18.2900   15.3930 C.3   236  THR236      0.0376
    116  N         18.9050   14.3330   17.1670 N.am  237  THR237     -0.1952
    117  CA        18.9120   13.1350   18.0030 C.3   237  THR237      0.1897
    118  C         19.3490   13.3690   19.4440 C.2   237  THR237      0.2313
    119  O         18.7400   12.8310   20.3610 O.2   237  THR237     -0.2863
    120  CB        19.7950   12.0290   17.3830 C.3   237  THR237      0.1794
    121  OG1       19.1870   11.5780   16.1650 O.3   237  THR237     -0.2208
    122  CG2       19.9390   10.8420   18.3400 C.3   237  THR237      0.0378
    123  N         19.5760   16.5010   20.9340 N.3   239  ALA239     -0.1231
    124  CA        19.1110   17.7970   21.4290 C.3   239  ALA239      0.1694
    125  C         18.4500   17.7380   22.8030 C.2   239  ALA239      0.2592
    126  O         18.6920   18.5940   23.6540 O.2   239  ALA239     -0.2718
    127  CB        18.1480   18.4210   20.4180 C.3   239  ALA239      0.0304
    128  N         17.6060   16.7370   23.0160 N.am  240  GLY240     -0.1957
    129  CA        16.9350   16.6210   24.2980 C.3   240  GLY240      0.1869
    130  C         17.8600   16.4760   25.4900 C.2   240  GLY240      0.2309
    131  O         17.7030   17.1620   26.5050 O.2   240  GLY240     -0.2863
    132  N         19.8820   19.5400   25.9540 N.3   243  PHE243     -0.1241
    133  CA        19.0610   20.5350   26.6220 C.3   243  PHE243      0.1605
    134  C         19.0410   20.2850   28.1370 C.2   243  PHE243      0.2264
    135  O         19.2080   21.2170   28.9280 O.2   243  PHE243     -0.2867
    136  CB        17.6330   20.4820   26.0910 C.3   243  PHE243      0.0534
    137  CG        16.6750   21.3760   26.8300 C.ar  243  PHE243     -0.0203
    138  CD1       16.6080   22.7380   26.5420 C.ar  243  PHE243     -0.0042
    139  CD2       15.8150   20.8490   27.7940 C.ar  243  PHE243     -0.0042
    140  CE1       15.6910   23.5650   27.1980 C.ar  243  PHE243     -0.0003
    141  CE2       14.8970   21.6630   28.4560 C.ar  243  PHE243     -0.0003
    142  CZ        14.8340   23.0230   28.1570 C.ar  243  PHE243     -0.0000
    143  N         18.8500   27.1710   25.4960 N.3   266  ASN266     -0.1240
    144  CA        18.4950   27.3230   24.0880 C.3   266  ASN266      0.1653
    145  C         19.7600   27.2720   23.2120 C.2   266  ASN266      0.2266
    146  O         19.7950   26.5700   22.2030 O.2   266  ASN266     -0.2867
    147  CB        17.7410   28.6480   23.8910 C.3   266  ASN266      0.1155
    148  CG        16.9250   28.6740   22.6120 C.2   266  ASN266      0.2627
    149  OD1       16.4950   27.6310   22.1150 O.2   266  ASN266     -0.2716
    150  ND2       16.6860   29.8700   22.0830 N.am  266  ASN266     -0.0877
    151  N         21.2020   23.6970   23.1520 N.3   269  ALA269     -0.1231
    152  CA        20.3410   22.8220   22.3590 C.3   269  ALA269      0.1694
    153  C         20.4950   23.0790   20.8570 C.2   269  ALA269      0.2591
    154  O         20.6860   22.1420   20.0680 O.2   269  ALA269     -0.2718
    155  CB        18.8870   23.0110   22.7720 C.3   269  ALA269      0.0304
    156  N         20.4080   24.3510   20.4680 N.am  270  ALA270     -0.1980
    157  CA        20.5350   24.7340   19.0640 C.3   270  ALA270      0.1597
    158  C         21.8560   24.2540   18.4760 C.2   270  ALA270      0.2287
    159  O         21.8730   23.6120   17.4310 O.2   270  ALA270     -0.2864
    160  CB        20.4120   26.2570   18.9170 C.3   270  ALA270      0.0319
    161  N         22.3320   20.5670   17.6390 N.3   273  THR273     -0.1218
    162  CA        21.7020   20.0870   16.4030 C.3   273  THR273      0.1862
    163  C         22.6920   20.0530   15.2390 C.2   273  THR273      0.2287
    164  O         22.3840   19.5150   14.1780 O.2   273  THR273     -0.2866
    165  CB        20.5240   20.9700   15.9590 C.3   273  THR273      0.1770
    166  OG1       21.0180   22.2620   15.5910 O.3   273  THR273     -0.2211
    167  CG2       19.5020   21.1080   17.0810 C.3   273  THR273      0.0375
@<TRIPOS>BOND
     1   105   104    2
     2   104   103    1
     3   102   108    1
     4   102   103    1
     5   108   107    1
     6   107   106    1
     7    98    97    2
     8    97    96    1
     9   103   106    1
    10    96    95    1
    11    96    99    1
    12    99   101    1
    13    99   100    1
    14   164   163    2
    15   163   162    1
    16   109   110    1
    17   115   113    1
    18   166   165    1
    19    59    60    1
    20    59    56    1
    21    60    61    1
    22   114   113    1
    23   165   162    1
    24   165   167    1
    25   121   120    1
    26    86    85    2
    27   113   110    1
    28   162   161    1
    29   110   111    1
    30    85    84    1
    31    61    55    1
    32    58    57    2
    33    56    57    1
    34    56    55    1
    35   116   111   am
    36   116   117    1
    37    82    81    1
    38   120   117    1
    39   120   122    1
    40   159   158    2
    41   111   112    2
    42    55    53   am
    43   117   118    1
    44    80    79    2
    45    84    87    1
    46    84    83    1
    47    87    88    1
    48    81    78    1
    49   158   157    1
    50    79    83   am
    51    79    78    1
    52   160   157    1
    53   157   156    1
    54    53    54    2
    55    53    52    1
    56    89    88   ar
    57    89    91   ar
    58    78    77    1
    59   118   119    2
    60    88    90   ar
    61    52    51    1
    62   154   153    2
    63    91    93   ar
    64    62    63    1
    65   127   124    1
    66   156   153   am
    67    90    92   ar
    68   153   152    1
    69   123   124    1
    70   124   125    1
    71    93    92   ar
    72    93    94    1
    73    63    64    1
    74   150   148   am
    75   149   148    2
    76   146   145    2
    77   152   155    1
    78   152   151    1
    79   148   147    1
    80    65    64    2
    81    64    66   am
    82   125   128   am
    83   125   126    2
    84   128   129    1
    85   145   144    1
    86   147   144    1
    87    66    67    1
    88   144   143    1
    89    19    17    1
    90    16    15    1
    91    16    17    2
    92   129   130    1
    93    46    47    2
    94    46    45    1
    95    15    14    1
    96    17    18    1
    97    33    34    1
    98    33    30    1
    99    48    49    1
   100    48    45    1
   101    48    50    1
   102    73    75   ar
   103    73    71   ar
   104    67    70    1
   105    67    68    1
   106    75    76   ar
   107    45    44    1
   108   130   131    2
   109    69    68    2
   110    70    71    1
   111    14    13    1
   112   132   133    1
   113    30    31    1
   114    30    29    1
   115   136   133    1
   116   136   137    1
   117    71    72   ar
   118    10    13    1
   119    10    11    1
   120    10     9    1
   121    31    32    2
   122    35    36    1
   123   138   137   ar
   124   138   140   ar
   125    11    12    2
   126   133   134    1
   127    76    74   ar
   128     7     6    2
   129   137   139   ar
   130    43    41   ar
   131    40    41    1
   132    40    39    1
   133   140   142   ar
   134    41    42   ar
   135    72    74   ar
   136    28    27    1
   137    36    39    1
   138    36    37    1
   139     6     8   am
   140     6     5    1
   141   139   141   ar
   142    27    26    1
   143   134   135    2
   144   142   141   ar
   145     3     2    1
   146     3     4    2
   147    37    38    2
   148     2     5    1
   149     2     1    1
   150    26    25    1
   151    25    24    1
   152    22    23    2
   153    22    21    1
   154    24    21    1
   155    21    20    1
