@<TRIPOS>MOLECULE
tmp/3gc0A00.pdb
 157 147 0 0 0
SMALL
GASTEIGER

@<TRIPOS>ATOM
      1  N          8.5940    6.7830   -3.4110 N.3    11  LEU11      -0.1231
      2  CA         7.5620    7.8030   -3.5750 C.3    11  LEU11       0.1693
      3  C          6.6420    7.8870   -2.3540 C.2    11  LEU11       0.2593
      4  O          5.9470    8.8820   -2.1570 O.2    11  LEU11      -0.2718
      5  CB         6.7290    7.5070   -4.8210 C.3    11  LEU11       0.0284
      6  CG         7.4150    7.4460   -6.1950 C.3    11  LEU11       0.0019
      7  CD1        6.3890    7.1920   -7.2540 C.3    11  LEU11       0.0001
      8  CD2        8.1590    8.7410   -6.5110 C.3    11  LEU11       0.0001
      9  N          6.6240    6.8530   -1.5310 N.am   12  GLY12      -0.1942
     10  CA         5.7060    6.8080   -0.4070 C.3    12  GLY12       0.2014
     11  C          5.2070    5.4040   -0.1750 C.2    12  GLY12       0.2639
     12  O          5.6560    4.4270   -0.8240 O.2    12  GLY12      -0.2714
     13  N          4.2650    5.3110    0.7540 N.am   13  GLU13      -0.1963
     14  CA         3.7130    4.0520    1.1850 C.3    13  GLU13       0.1733
     15  C          2.3830    3.9470    0.5420 C.2    13  GLU13       0.2617
     16  O          1.5970    4.8940    0.5970 O.2    13  GLU13      -0.2715
     17  CB         3.5460    4.0320    2.7070 C.3    13  GLU13       0.0429
     18  CG         4.8610    3.9470    3.4650 C.3    13  GLU13       0.1163
     19  CD         5.4630    2.5470    3.4730 C.2    13  GLU13       0.3649
     20  OE1        6.5070    2.3460    4.1390 O.co2  13  GLU13      -0.2457
     21  OE2        4.8840    1.6420    2.8250 O.co2  13  GLU13      -0.2457
     22  N          2.1190    2.8160   -0.0870 N.am   14  GLY14      -0.1940
     23  CA         0.8080    2.5580   -0.6220 C.3    14  GLY14       0.2014
     24  C          0.0370    1.5620    0.2120 C.2    14  GLY14       0.2639
     25  O          0.4790    1.1350    1.2850 O.2    14  GLY14      -0.2714
     26  N         -1.1190    1.1780   -0.3160 N.am   15  THR15      -0.1950
     27  CA        -1.9860    0.1970    0.3250 C.3    15  THR15       0.1897
     28  C         -1.2970   -1.1020    0.6860 C.2    15  THR15       0.2313
     29  O         -1.5980   -1.7060    1.7040 O.2    15  THR15      -0.2863
     30  CB        -3.1150   -0.2020   -0.6330 C.3    15  THR15       0.1794
     31  OG1       -3.8100    0.9750   -1.0610 O.3    15  THR15      -0.2208
     32  CG2       -4.0840   -1.2260    0.0230 C.3    15  THR15       0.0378
     33  N          5.9730    2.0760   -2.3620 N.3    19  VAL19      -0.1245
     34  CA         5.9310    2.3480   -3.7660 C.3    19  VAL19       0.1561
     35  C          7.1180    3.2060   -4.1750 C.2    19  VAL19       0.2260
     36  O          7.5000    4.1870   -3.4530 O.2    19  VAL19      -0.2867
     37  CB         4.6070    3.0070   -4.1880 C.3    19  VAL19       0.0252
     38  CG1        4.5920    3.1820   -5.7140 C.3    19  VAL19       0.0019
     39  CG2        3.4320    2.1170   -3.7250 C.3    19  VAL19       0.0019
     40  N          6.9310    2.1510  -12.1560 N.3    32  ALA32      -0.1245
     41  CA         6.6070    2.1390  -10.7400 C.3    32  ALA32       0.1562
     42  C          6.7990    0.7190  -10.2280 C.2    32  ALA32       0.2260
     43  O          6.4800   -0.2630  -10.8910 O.2    32  ALA32      -0.2867
     44  CB         5.1400    2.6240  -10.5080 C.3    32  ALA32       0.0290
     45  N          6.0190   -1.7050   -6.9400 N.3    34  LYS34      -0.1245
     46  CA         5.2250   -1.8000   -5.7570 C.3    34  LYS34       0.1561
     47  C          5.6150   -3.0350   -5.0080 C.2    34  LYS34       0.2260
     48  O          5.4520   -4.1390   -5.5070 O.2    34  LYS34      -0.2867
     49  CB         3.7260   -1.7840   -6.0960 C.3    34  LYS34       0.0271
     50  CG         3.3410   -0.5290   -6.8420 C.3    34  LYS34       0.0035
     51  CD         1.8450   -0.2400   -6.7560 C.3    34  LYS34       0.0206
     52  CE         1.4750    1.0060   -7.5710 C.3    34  LYS34       0.1093
     53  NZ         0.0570    1.4130   -7.3740 N.3    34  LYS34      -0.1314
     54  N         -3.5020    1.0700  -15.8800 N.3    58  ILE58      -0.1245
     55  CA        -2.0530    0.9710  -15.5930 C.3    58  ILE58       0.1561
     56  C         -1.6040   -0.4630  -15.8490 C.2    58  ILE58       0.2260
     57  O         -2.1200   -1.3920  -15.2360 O.2    58  ILE58      -0.2867
     58  CB        -1.7140    1.4070  -14.1480 C.3    58  ILE58       0.0252
     59  CG1       -1.8440    2.9090  -13.9950 C.3    58  ILE58       0.0019
     60  CG2       -0.2770    0.9250  -13.6630 C.3    58  ILE58       0.0019
     61  CD1       -0.9160    3.7390  -14.8530 C.3    58  ILE58       0.0001
     62  N          4.8740   -1.6830  -12.5550 N.3    74  PHE74      -0.1227
     63  CA         3.7490   -1.1120  -13.2420 C.3    74  PHE74       0.1736
     64  C          4.2290    0.0400  -14.0970 C.2    74  PHE74       0.2595
     65  O          5.2620    0.6910  -13.8140 O.2    74  PHE74      -0.2718
     66  CB         2.7300   -0.5090  -12.2720 C.3    74  PHE74       0.0547
     67  CG         1.8940   -1.4940  -11.5650 C.ar   74  PHE74      -0.0202
     68  CD1        0.8260   -2.1070  -12.2080 C.ar   74  PHE74      -0.0042
     69  CD2        2.1620   -1.8320  -10.2510 C.ar   74  PHE74      -0.0042
     70  CE1        0.0610   -3.0440  -11.5680 C.ar   74  PHE74      -0.0003
     71  CE2        1.3700   -2.7650   -9.5960 C.ar   74  PHE74      -0.0003
     72  CZ         0.3220   -3.3500  -10.2540 C.ar   74  PHE74      -0.0000
     73  N          3.4180    0.3280  -15.0940 N.am   75  GLU75      -0.1965
     74  CA         3.5040    1.5620  -15.8270 C.3    75  GLU75       0.1733
     75  C          3.5050    2.7450  -14.8620 C.2    75  GLU75       0.2616
     76  O          2.7640    2.7750  -13.8690 O.2    75  GLU75      -0.2715
     77  CB         2.3100    1.5900  -16.8000 C.3    75  GLU75       0.0429
     78  CG         2.0910    2.8450  -17.6110 C.3    75  GLU75       0.1163
     79  CD         0.9260    2.7070  -18.5920 C.2    75  GLU75       0.3649
     80  OE1        0.1170    1.7370  -18.5330 O.co2  75  GLU75      -0.2457
     81  OE2        0.8050    3.6350  -19.3980 O.co2  75  GLU75      -0.2457
     82  N          4.3470    3.7340  -15.1620 N.am   76  TYR76      -0.1960
     83  CA         4.4390    4.9540  -14.3880 C.3    76  TYR76       0.1771
     84  C          3.5270    6.0680  -14.9500 C.2    76  TYR76       0.2619
     85  O          3.4900    6.2960  -16.1550 O.2    76  TYR76      -0.2715
     86  CB         5.8890    5.4410  -14.3990 C.3    76  TYR76       0.0574
     87  CG         6.1160    6.7460  -13.7290 C.ar   76  TYR76      -0.0198
     88  CD1        6.2390    6.8140  -12.3530 C.ar   76  TYR76      -0.0009
     89  CD2        6.2140    7.9250  -14.4660 C.ar   76  TYR76      -0.0009
     90  CE1        6.4370    8.0400  -11.7040 C.ar   76  TYR76       0.0417
     91  CE2        6.4110    9.1590  -13.8370 C.ar   76  TYR76       0.0417
     92  CZ         6.5080    9.2130  -12.4500 C.ar   76  TYR76       0.1957
     93  OH         6.7230   10.4280  -11.8100 O.3    76  TYR76      -0.2866
     94  N          2.8270    6.7650  -14.0520 N.am   77  ALA77      -0.1977
     95  CA         2.0040    7.9140  -14.4160 C.3    77  ALA77       0.1597
     96  C          2.3940    9.0640  -13.4750 C.2    77  ALA77       0.2287
     97  O          2.3690    8.8730  -12.2550 O.2    77  ALA77      -0.2864
     98  CB         0.5040    7.5730  -14.3060 C.3    77  ALA77       0.0319
     99  N         -2.0390   12.1400  -10.5480 N.3    80  ASP80      -0.1239
    100  CA        -3.3000   11.4460  -10.2530 C.3    80  ASP80       0.1674
    101  C         -4.4520   12.4310  -10.0490 C.2    80  ASP80       0.2266
    102  O         -4.2170   13.6270   -9.9490 O.2    80  ASP80      -0.2867
    103  CB        -3.1740   10.5210   -9.0610 C.3    80  ASP80       0.1410
    104  CG        -2.9630   11.2350   -7.7620 C.2    80  ASP80       0.3668
    105  OD1       -3.9280   11.8150   -7.2030 O.co2  80  ASP80      -0.2456
    106  OD2       -1.8310   11.1530   -7.2460 O.co2  80  ASP80      -0.2456
    107  N         -4.7230   14.9510   -6.7840 N.3    83  LYS83      -0.1245
    108  CA        -3.6910   16.0040   -6.9660 C.3    83  LYS83       0.1561
    109  C         -4.1060   16.9690   -8.0940 C.2    83  LYS83       0.2260
    110  O         -4.0080   18.2010   -7.9670 O.2    83  LYS83      -0.2867
    111  CB        -2.3770   15.3090   -7.3610 C.3    83  LYS83       0.0271
    112  CG        -1.0960   15.9740   -7.0100 C.3    83  LYS83       0.0035
    113  CD         0.0730   15.0550   -7.4290 C.3    83  LYS83       0.0206
    114  CE         0.1880   13.7540   -6.5810 C.3    83  LYS83       0.1093
    115  NZ         0.5570   12.5470   -7.4150 N.3    83  LYS83      -0.1314
    116  N        -10.8440    4.9170   -6.1260 N.3   121  LYS121     -0.1245
    117  CA       -10.8350    6.2300   -5.5030 C.3   121  LYS121      0.1561
    118  C        -10.0080    7.1670   -6.3550 C.2   121  LYS121      0.2260
    119  O         -9.2620    6.7150   -7.2090 O.2   121  LYS121     -0.2867
    120  CB       -10.2650    6.1060   -4.0890 C.3   121  LYS121      0.0271
    121  CG        -8.9500    5.3710   -4.0180 C.3   121  LYS121      0.0035
    122  CD        -8.3860    5.3200   -2.5680 C.3   121  LYS121      0.0206
    123  CE        -7.3660    4.1980   -2.3940 C.3   121  LYS121      0.1093
    124  NZ        -7.9760    3.0130   -1.6990 N.3   121  LYS121     -0.1314
    125  N         -7.3880    8.6480   -5.8100 N.3   123  GLN123     -0.1231
    126  CA        -5.9390    8.4000   -5.6030 C.3   123  GLN123      0.1698
    127  C         -5.3540    7.3150   -6.5230 C.2   123  GLN123      0.2592
    128  O         -4.1640    7.4110   -6.8770 O.2   123  GLN123     -0.2718
    129  CB        -5.6140    8.0690   -4.1090 C.3   123  GLN123      0.0381
    130  CG        -4.1290    8.1570   -3.7590 C.3   123  GLN123      0.0905
    131  CD        -3.6190    9.5780   -3.6860 C.2   123  GLN123      0.2608
    132  OE1       -4.3290   10.4770   -3.2440 O.2   123  GLN123     -0.2717
    133  NE2       -2.3760    9.7890   -4.0940 N.am  123  GLN123     -0.0878
    134  N         -6.1410    6.2970   -6.9280 N.am  124  ASN124     -0.1974
    135  CA        -5.6590    5.3090   -7.9540 C.3   124  ASN124      0.1688
    136  C         -6.1050    5.6110   -9.3930 C.2   124  ASN124      0.2292
    137  O         -5.9910    4.7720  -10.2710 O.2   124  ASN124     -0.2864
    138  CB        -5.8690    3.8380   -7.5310 C.3   124  ASN124      0.1181
    139  CG        -7.2480    3.5740   -7.0220 C.2   124  ASN124      0.2629
    140  OD1       -8.1980    4.1750   -7.5250 O.2   124  ASN124     -0.2716
    141  ND2       -7.3790    2.7110   -5.9930 N.am  124  ASN124     -0.0877
    142  N         -4.7810    7.4950  -12.0720 N.3   126  LEU126     -0.1245
    143  CA        -3.5020    8.1310  -12.3850 C.3   126  LEU126      0.1561
    144  C         -3.6910    8.8440  -13.7040 C.2   126  LEU126      0.2260
    145  O         -4.5810    8.4890  -14.4710 O.2   126  LEU126     -0.2867
    146  CB        -2.3930    7.0900  -12.4920 C.3   126  LEU126      0.0270
    147  CG        -2.1080    6.4040  -11.1430 C.3   126  LEU126      0.0019
    148  CD1       -1.0510    5.3400  -11.2780 C.3   126  LEU126      0.0001
    149  CD2       -1.6480    7.4380  -10.1880 C.3   126  LEU126      0.0001
    150  N         -4.1860   -0.4750   -9.8880 N.3   138  ASP138     -0.1239
    151  CA        -4.4450   -1.4940   -8.8380 C.3   138  ASP138      0.1674
    152  C         -5.6800   -2.3810   -9.0110 C.2   138  ASP138      0.2266
    153  O         -6.1390   -2.9840   -8.0540 O.2   138  ASP138     -0.2867
    154  CB        -4.4120   -0.9020   -7.4290 C.3   138  ASP138      0.1410
    155  CG        -3.0820   -0.2350   -7.1000 C.2   138  ASP138      0.3668
    156  OD1       -2.0170   -0.5390   -7.7200 O.co2 138  ASP138     -0.2456
    157  OD2       -3.1260    0.6550   -6.2560 O.co2 138  ASP138     -0.2456
@<TRIPOS>BOND
     1    81    79   ar
     2    79    80   ar
     3    79    78    1
     4    78    77    1
     5    77    74    1
     6    85    84    2
     7    54    55    1
     8    56    55    1
     9    56    57    2
    10    74    73    1
    11    74    75    1
    12    55    58    1
    13    82    75   am
    14    82    83    1
    15    73    64   am
    16    84    83    1
    17    84    94   am
    18    75    76    2
    19    61    59    1
    20   145   144    2
    21    89    91   ar
    22    89    87   ar
    23    95    98    1
    24    95    94    1
    25    95    96    1
    26    86    83    1
    27    86    87    1
    28    58    59    1
    29    58    60    1
    30    64    65    2
    31    64    63    1
    32    91    92   ar
    33    87    88   ar
    34   144   143    1
    35    96    97    2
    36    63    62    1
    37    63    66    1
    38   146   143    1
    39   146   147    1
    40    92    93    1
    41    92    90   ar
    42   143   142    1
    43    88    90   ar
    44    66    67    1
    45    68    70   ar
    46    68    67   ar
    47    40    41    1
    48    70    72   ar
    49    67    69   ar
    50   148   147    1
    51   147   149    1
    52    43    42    2
    53    41    44    1
    54    41    42    1
    55    99   100    1
    56   137   136    2
    57    72    71   ar
    58   100   101    1
    59   100   103    1
    60    69    71   ar
    61   101   102    2
    62   150   151    1
    63   136   135    1
    64   103   104    1
    65   152   151    1
    66   152   153    2
    67   151   154    1
    68   109   110    2
    69   109   108    1
    70   135   138    1
    71   135   134    1
    72   104   106   ar
    73   104   105   ar
    74   156   155   ar
    75    52    53    1
    76    52    51    1
    77   138   139    1
    78   140   139    2
    79   154   155    1
    80   113   112    1
    81   113   114    1
    82   115   114    1
    83   111   112    1
    84   111   108    1
    85     7     6    1
    86   119   118    2
    87   155   157   ar
    88   139   141   am
    89   108   107    1
    90    45    46    1
    91   134   127   am
    92   128   127    2
    93    50    51    1
    94    50    49    1
    95   127   126    1
    96     8     6    1
    97   118   117    1
    98     6     5    1
    99   116   117    1
   100    49    46    1
   101   125   126    1
   102    46    47    1
   103    38    37    1
   104   126   129    1
   105    48    47    2
   106   117   120    1
   107     5     2    1
   108    37    34    1
   109    37    39    1
   110    35    34    1
   111    35    36    2
   112   129   130    1
   113   133   131   am
   114   120   121    1
   115   121   122    1
   116    34    33    1
   117   130   131    1
   118   131   132    2
   119     2     1    1
   120     2     3    1
   121   122   123    1
   122   123   124    1
   123     3     4    2
   124     3     9   am
   125     9    10    1
   126    31    30    1
   127    12    11    2
   128    30    32    1
   129    30    27    1
   130    23    22    1
   131    23    24    1
   132    10    11    1
   133    26    24   am
   134    26    27    1
   135    11    13   am
   136    22    15   am
   137    24    25    2
   138    27    28    1
   139    15    16    2
   140    15    14    1
   141    28    29    2
   142    13    14    1
   143    14    17    1
   144    17    18    1
   145    21    19   ar
   146    18    19    1
   147    19    20   ar
