@<TRIPOS>MOLECULE
tmp/3gc2A02.pdb
 87 81 0 0 0
SMALL
GASTEIGER

@<TRIPOS>ATOM
      1  N         28.3000    9.2150   11.4000 N.3   125  GLU125     -0.1245
      2  CA        28.4980    9.1810    9.9650 C.3   125  GLU125      0.1567
      3  C         29.8100    8.4900    9.6130 C.2   125  GLU125      0.2260
      4  O         30.8560    8.8140   10.1920 O.2   125  GLU125     -0.2867
      5  CB        28.4980   10.6140    9.4400 C.3   125  GLU125      0.0388
      6  CG        28.4020   10.7640    7.9350 C.3   125  GLU125      0.1160
      7  CD        28.3820   12.2310    7.5050 C.2   125  GLU125      0.3649
      8  OE1       28.6590   13.1110    8.3550 O.co2 125  GLU125     -0.2457
      9  OE2       28.1010   12.5050    6.3160 O.co2 125  GLU125     -0.2457
     10  N         32.5070    7.7510    6.7090 N.3   127  ILE127     -0.1245
     11  CA        33.0520    8.1080    5.4120 C.3   127  ILE127      0.1561
     12  C         34.5120    7.6610    5.3730 C.2   127  ILE127      0.2260
     13  O         35.2280    7.8510    6.3540 O.2   127  ILE127     -0.2867
     14  CB        33.0270    9.6310    5.2090 C.3   127  ILE127      0.0252
     15  CG1       31.5930   10.1850    5.3120 C.3   127  ILE127      0.0019
     16  CG2       33.6610    9.9740    3.8690 C.3   127  ILE127      0.0019
     17  CD1       31.5220   11.7740    5.3280 C.3   127  ILE127      0.0001
     18  N         29.9550    5.3320    3.3620 N.3   154  HIS154     -0.1241
     19  CA        30.0110    6.1360    2.1540 C.3   154  HIS154      0.1621
     20  C         31.4890    6.2740    1.8000 C.2   154  HIS154      0.2264
     21  O         32.3190    6.5710    2.6650 O.2   154  HIS154     -0.2867
     22  CB        29.3610    7.4980    2.3660 C.3   154  HIS154      0.0745
     23  CG        27.8780    7.4160    2.5300 C.ar  154  HIS154      0.0817
     24  ND1       27.2770    7.1750    3.7460 N.ar  154  HIS154     -0.2268
     25  CD2       26.8760    7.4890    1.6230 C.ar  154  HIS154      0.1154
     26  CE1       25.9670    7.1320    3.5860 C.ar  154  HIS154      0.1986
     27  NE2       25.6970    7.3130    2.3050 N.ar  154  HIS154     -0.2212
     28  N         34.6240    7.8260   -0.5810 N.3   156  ARG156     -0.1245
     29  CA        35.2370    8.7540   -1.4980 C.3   156  ARG156      0.1563
     30  C         36.3000    7.9360   -2.2140 C.2   156  ARG156      0.2260
     31  O         37.0740    7.2160   -1.5690 O.2   156  ARG156     -0.2867
     32  CB        35.8820    9.8900   -0.7390 C.3   156  ARG156      0.0307
     33  CG        34.8690   10.7720   -0.0230 C.3   156  ARG156      0.0489
     34  CD        35.6010   11.7870    0.8100 C.3   156  ARG156      0.2205
     35  NE        34.7030   12.7160    1.4760 N.pl3 156  ARG156     -0.0865
     36  CZ        35.1080   13.6400    2.3310 C.cat 156  ARG156      0.5346
     37  NH1       36.3960   13.7600    2.6250 N.pl3 156  ARG156      0.1354
     38  NH2       34.2160   14.4430    2.9080 N.pl3 156  ARG156      0.1354
     39  N         30.2580    8.4590   -2.4180 N.3   184  ALA184     -0.1231
     40  CA        30.0360    9.8880   -2.1730 C.3   184  ALA184      0.1694
     41  C         30.4620   10.6500   -3.4160 C.2   184  ALA184      0.2592
     42  O         29.7630   11.5420   -3.8840 O.2   184  ALA184     -0.2718
     43  CB        30.8020   10.3590   -0.9370 C.3   184  ALA184      0.0304
     44  N         31.6160   10.2720   -3.9560 N.am  185  PHE185     -0.1976
     45  CA        32.1060   10.7740   -5.2250 C.3   185  PHE185      0.1639
     46  C         33.3470    9.9930   -5.6430 C.2   185  PHE185      0.2290
     47  O         34.0840    9.4690   -4.7920 O.2   185  PHE185     -0.2864
     48  CB        32.4410   12.2760   -5.2130 C.3   185  PHE185      0.0560
     49  CG        33.3640   12.7230   -4.1100 C.ar  185  PHE185     -0.0200
     50  CD1       34.7340   12.5480   -4.1980 C.ar  185  PHE185     -0.0042
     51  CD2       32.8620   13.3750   -2.9990 C.ar  185  PHE185     -0.0042
     52  CE1       35.5830   12.9930   -3.1850 C.ar  185  PHE185     -0.0003
     53  CE2       33.7090   13.8230   -1.9850 C.ar  185  PHE185     -0.0003
     54  CZ        35.0650   13.6350   -2.0770 C.ar  185  PHE185     -0.0000
     55  N         29.2180   16.0720   -8.0350 N.3   227  ARG227     -0.1245
     56  CA        28.7410   16.3370   -6.6710 C.3   227  ARG227      0.1563
     57  C         29.6820   17.1600   -5.8120 C.2   227  ARG227      0.2260
     58  O         29.2390   17.7950   -4.8440 O.2   227  ARG227     -0.2867
     59  CB        28.4520   14.9930   -5.9810 C.3   227  ARG227      0.0307
     60  CG        28.2560   15.0710   -4.4830 C.3   227  ARG227      0.0489
     61  CD        27.9170   13.7290   -3.9360 C.3   227  ARG227      0.2205
     62  NE        26.6200   13.2620   -4.4140 N.pl3 227  ARG227     -0.0865
     63  CZ        26.1670   12.0250   -4.2580 C.cat 227  ARG227      0.5346
     64  NH1       26.9160   11.1100   -3.6530 N.pl3 227  ARG227      0.1354
     65  NH2       24.9680   11.6980   -4.7260 N.pl3 227  ARG227      0.1354
     66  N         29.6020   20.0540   -2.9560 N.3   255  THR255     -0.1218
     67  CA        30.4030   19.8230   -1.7620 C.3   255  THR255      0.1862
     68  C         31.8370   20.2660   -2.0800 C.2   255  THR255      0.2287
     69  O         32.3280   20.0240   -3.1750 O.2   255  THR255     -0.2866
     70  CB        30.3820   18.3410   -1.3740 C.3   255  THR255      0.1770
     71  OG1       29.0500   18.0020   -1.0010 O.3   255  THR255     -0.2211
     72  CG2       31.3380   18.0340   -0.2090 C.3   255  THR255      0.0375
     73  N         31.7320   19.4370    6.2650 N.3   282  THR282     -0.1203
     74  CA        32.3920   18.4570    5.3770 C.3   282  THR282      0.1994
     75  C         33.7360   17.9620    5.8890 C.2   282  THR282      0.2617
     76  O         34.6880   18.7480    6.0590 O.2   282  THR282     -0.2717
     77  CB        32.6000   19.1030    3.9780 C.3   282  THR282      0.1784
     78  OG1       31.3270   19.4870    3.4300 O.3   282  THR282     -0.2211
     79  CG2       33.2710   18.1250    3.0140 C.3   282  THR282      0.0376
     80  N         33.8160   16.6550    6.1190 N.am  283  LEU283     -0.1979
     81  CA        35.0350   16.0030    6.5920 C.3   283  LEU283      0.1596
     82  C         36.1540   16.2650    5.5770 C.2   283  LEU283      0.2287
     83  O         35.9610   16.0160    4.4030 O.2   283  LEU283     -0.2864
     84  CB        34.7630   14.5110    6.7420 C.3   283  LEU283      0.0297
     85  CG        35.6830   13.6520    7.6030 C.3   283  LEU283      0.0022
     86  CD1       35.7220   14.1540    9.0440 C.3   283  LEU283      0.0001
     87  CD2       35.1770   12.1940    7.5600 C.3   283  LEU283      0.0001
@<TRIPOS>BOND
     1    55    56    1
     2    56    59    1
     3    56    57    1
     4    59    60    1
     5    57    58    2
     6    46    45    1
     7    46    47    2
     8    45    48    1
     9    45    44    1
    10    48    49    1
    11    65    63    1
    12    60    61    1
    13    62    63    2
    14    62    61    1
    15    63    64    1
    16    50    49   ar
    17    50    52   ar
    18    49    51   ar
    19    44    41   am
    20    42    41    2
    21    41    40    1
    22    52    54   ar
    23    69    68    2
    24    51    53   ar
    25    66    67    1
    26    39    40    1
    27    30    31    2
    28    30    29    1
    29    40    43    1
    30    68    67    1
    31    54    53   ar
    32    67    70    1
    33    29    32    1
    34    29    28    1
    35    70    71    1
    36    70    72    1
    37    32    33    1
    38    33    34    1
    39    34    35    1
    40    35    36    2
    41    25    27   ar
    42    25    23   ar
    43    20    19    1
    44    20    21    2
    45    19    22    1
    46    19    18    1
    47    27    26   ar
    48    36    37    1
    49    36    38    1
    50    22    23    1
    51    23    24   ar
    52    79    77    1
    53    78    77    1
    54    26    24   ar
    55    16    14    1
    56    77    74    1
    57    83    82    2
    58    14    15    1
    59    14    11    1
    60    15    17    1
    61    12    11    1
    62    12    13    2
    63    74    75    1
    64    74    73    1
    65    11    10    1
    66    82    81    1
    67    75    76    2
    68    75    80   am
    69    80    81    1
    70     9     7   ar
    71    81    84    1
    72    84    85    1
    73     7     6    1
    74     7     8   ar
    75    87    85    1
    76    85    86    1
    77     6     5    1
    78     5     2    1
    79     3     2    1
    80     3     4    2
    81     2     1    1
