@<TRIPOS>MOLECULE
tmp/3gc2A00.pdb
 129 114 0 0 0
SMALL
GASTEIGER

@<TRIPOS>ATOM
      1  N         38.6600   11.8390    6.6230 N.3   106  ALA106     -0.1245
      2  CA        38.1740   10.6060    6.0210 C.3   106  ALA106      0.1562
      3  C         39.3390    9.6050    6.0620 C.2   106  ALA106      0.2260
      4  O         40.4060    9.8780    5.5050 O.2   106  ALA106     -0.2867
      5  CB        37.7350   10.8700    4.5780 C.3   106  ALA106      0.0290
      6  N         41.9540    6.9170    5.1220 N.3   108  LEU108     -0.1245
      7  CA        42.4660    6.4610    3.8370 C.3   108  LEU108      0.1561
      8  C         42.7960    4.9670    3.8870 C.2   108  LEU108      0.2260
      9  O         43.5110    4.5150    4.7890 O.2   108  LEU108     -0.2867
     10  CB        43.6970    7.3020    3.4880 C.3   108  LEU108      0.0270
     11  CG        44.4450    7.0480    2.1710 C.3   108  LEU108      0.0019
     12  CD1       43.4930    7.0750    0.9820 C.3   108  LEU108      0.0001
     13  CD2       45.5430    8.0980    2.0210 C.3   108  LEU108      0.0001
     14  N         38.0680    6.8930    2.4310 N.3   129  LYS129     -0.1245
     15  CA        38.6610    7.1770    1.1400 C.3   129  LYS129      0.1561
     16  C         39.4640    5.9840    0.6430 C.2   129  LYS129      0.2260
     17  O         40.2610    5.4010    1.3960 O.2   129  LYS129     -0.2867
     18  CB        39.5580    8.4200    1.2460 C.3   129  LYS129      0.0271
     19  CG        40.4950    8.6830    0.0730 C.3   129  LYS129      0.0035
     20  CD        39.7850    8.9990   -1.2390 C.3   129  LYS129      0.0206
     21  CE        39.6080   10.4910   -1.4880 C.3   129  LYS129      0.1093
     22  NZ        40.9020   11.1350   -1.8730 N.3   129  LYS129     -0.1314
     23  N         41.9210    4.9460   -2.7040 N.3   131  LYS131     -0.1245
     24  CA        42.6290    5.3270   -3.9110 C.3   131  LYS131      0.1561
     25  C         42.3860    4.2340   -4.9320 C.2   131  LYS131      0.2260
     26  O         42.5370    3.0440   -4.6270 O.2   131  LYS131     -0.2867
     27  CB        44.1280    5.4230   -3.6540 C.3   131  LYS131      0.0271
     28  CG        44.5680    6.5960   -2.8760 C.3   131  LYS131      0.0035
     29  CD        44.5730    7.8540   -3.7190 C.3   131  LYS131      0.0206
     30  CE        45.1150    9.0270   -2.9260 C.3   131  LYS131      0.1093
     31  NZ        45.1670   10.2830   -3.7250 N.3   131  LYS131     -0.1314
     32  N         34.6240    7.8260   -0.5810 N.3   156  ARG156     -0.1245
     33  CA        35.2370    8.7540   -1.4980 C.3   156  ARG156      0.1563
     34  C         36.3000    7.9360   -2.2140 C.2   156  ARG156      0.2260
     35  O         37.0740    7.2160   -1.5690 O.2   156  ARG156     -0.2867
     36  CB        35.8820    9.8900   -0.7390 C.3   156  ARG156      0.0307
     37  CG        34.8690   10.7720   -0.0230 C.3   156  ARG156      0.0489
     38  CD        35.6010   11.7870    0.8100 C.3   156  ARG156      0.2205
     39  NE        34.7030   12.7160    1.4760 N.pl3 156  ARG156     -0.0865
     40  CZ        35.1080   13.6400    2.3310 C.cat 156  ARG156      0.5346
     41  NH1       36.3960   13.7600    2.6250 N.pl3 156  ARG156      0.1354
     42  NH2       34.2160   14.4430    2.9080 N.pl3 156  ARG156      0.1354
     43  N         39.3400    8.0200   -5.3040 N.3   158  ASP158     -0.1239
     44  CA        40.2340    8.9640   -5.9810 C.3   158  ASP158      0.1674
     45  C         41.0360    8.2530   -7.0560 C.2   158  ASP158      0.2266
     46  O         41.8720    7.4070   -6.7390 O.2   158  ASP158     -0.2867
     47  CB        41.1540    9.5750   -4.9500 C.3   158  ASP158      0.1410
     48  CG        42.0830   10.6080   -5.5290 C.2   158  ASP158      0.3668
     49  OD1       41.9610   10.9430   -6.7270 O.co2 158  ASP158     -0.2456
     50  OD2       42.9280   11.0850   -4.7610 O.co2 158  ASP158     -0.2456
     51  N         42.5750   10.0950   -9.8240 N.3   160  ASN160     -0.1240
     52  CA        43.5950   10.9560  -10.4270 C.3   160  ASN160      0.1653
     53  C         43.7360   10.7260  -11.9400 C.2   160  ASN160      0.2266
     54  O         44.8540   10.5940  -12.4470 O.2   160  ASN160     -0.2867
     55  CB        44.9400   10.7470   -9.7240 C.3   160  ASN160      0.1155
     56  CG        44.9140   11.2310   -8.2940 C.2   160  ASN160      0.2627
     57  OD1       44.5190   12.3690   -8.0240 O.2   160  ASN160     -0.2716
     58  ND2       45.2950   10.3600   -7.3650 N.am  160  ASN160     -0.0877
     59  N         36.6720   10.8970   -7.6180 N.3   187  GLU187     -0.1245
     60  CA        37.4670   12.0250   -8.1170 C.3   187  GLU187      0.1567
     61  C         38.1440   11.6870   -9.4400 C.2   187  GLU187      0.2260
     62  O         38.9040   10.7140   -9.5060 O.2   187  GLU187     -0.2867
     63  CB        38.5730   12.4030   -7.1230 C.3   187  GLU187      0.0388
     64  CG        38.1320   12.7370   -5.7100 C.3   187  GLU187      0.1160
     65  CD        39.3070   13.0290   -4.7760 C.2   187  GLU187      0.3649
     66  OE1       40.3740   13.4380   -5.2660 O.co2 187  GLU187     -0.2457
     67  OE2       39.1670   12.8660   -3.5440 O.co2 187  GLU187     -0.2457
     68  N         37.4240   19.0890   -4.9850 N.3   230  VAL230     -0.1245
     69  CA        38.4960   18.8430   -4.0250 C.3   230  VAL230      0.1561
     70  C         39.4870   19.9790   -4.1580 C.2   230  VAL230      0.2260
     71  O         40.0590   20.2040   -5.2460 O.2   230  VAL230     -0.2867
     72  CB        39.1530   17.4760   -4.3170 C.3   230  VAL230      0.0252
     73  CG1       40.3320   17.2030   -3.3600 C.3   230  VAL230      0.0019
     74  CG2       38.1000   16.3760   -4.2620 C.3   230  VAL230      0.0019
     75  N         42.8970   21.5830   -2.8470 N.3   232  LYS232     -0.1245
     76  CA        44.2200   21.3570   -2.2420 C.3   232  LYS232      0.1561
     77  C         44.9440   22.7130   -2.1700 C.2   232  LYS232      0.2260
     78  O         45.5270   23.1590   -3.1720 O.2   232  LYS232     -0.2867
     79  CB        45.0160   20.3800   -3.1020 C.3   232  LYS232      0.0271
     80  CG        44.5400   18.9400   -2.9930 C.3   232  LYS232      0.0035
     81  CD        45.3810   18.0150   -3.8570 C.3   232  LYS232      0.0206
     82  CE        45.1300   16.5500   -3.5590 C.3   232  LYS232      0.1093
     83  NZ        43.7460   16.1660   -3.8140 N.3   232  LYS232     -0.1314
     84  N         35.6990   19.8950   -0.5760 N.3   257  VAL257     -0.1245
     85  CA        36.5500   19.1610    0.3610 C.3   257  VAL257      0.1561
     86  C         37.9270   19.7860    0.4200 C.2   257  VAL257      0.2260
     87  O         38.6330   19.8890   -0.6130 O.2   257  VAL257     -0.2867
     88  CB        36.7020   17.6800   -0.0470 C.3   257  VAL257      0.0252
     89  CG1       37.6180   16.9060    0.9510 C.3   257  VAL257      0.0019
     90  CG2       35.3340   17.0030   -0.2070 C.3   257  VAL257      0.0019
     91  N         41.6180   19.4680    1.1340 N.3   259  SER259     -0.1202
     92  CA        42.4210   18.2760    0.9160 C.3   259  SER259      0.2020
     93  C         43.9280   18.4910    1.0020 C.2   259  SER259      0.2619
     94  O         44.4470   19.5450    0.6590 O.2   259  SER259     -0.2717
     95  CB        42.0260   17.7200   -0.4670 C.3   259  SER259      0.2103
     96  OG        42.8640   16.6750   -0.9130 O.3   259  SER259     -0.2182
     97  N         44.6090   17.4390    1.4520 N.am  260  SER260     -0.1951
     98  CA        46.0410   17.3920    1.6510 C.3   260  SER260      0.1924
     99  C         46.8740   17.2280    0.3780 C.2   260  SER260      0.2314
    100  O         46.5190   16.4640   -0.5310 O.2   260  SER260     -0.2863
    101  CB        46.3480   16.1760    2.5390 C.3   260  SER260      0.2116
    102  OG        47.7290   15.9610    2.7020 O.3   260  SER260     -0.2180
    103  N         49.9710   16.2840    1.0000 N.3   262  ILE262     -0.1245
    104  CA        50.9870   15.6180    1.8080 C.3   262  ILE262      0.1561
    105  C         51.8550   16.6340    2.5620 C.2   262  ILE262      0.2260
    106  O         53.0910   16.5390    2.5840 O.2   262  ILE262     -0.2867
    107  CB        51.8660   14.6390    0.9700 C.3   262  ILE262      0.0252
    108  CG1       51.0140   13.8410   -0.0270 C.3   262  ILE262      0.0019
    109  CG2       52.6230   13.6880    1.8940 C.3   262  ILE262      0.0019
    110  CD1       51.8080   12.8080   -0.8200 C.3   262  ILE262      0.0001
    111  N         39.9450   15.9150    3.6290 N.3   285  GLY285     -0.1225
    112  CA        40.7960   14.8260    3.1460 C.3   285  GLY285      0.1811
    113  C         42.2320   15.0050    3.6040 C.2   285  GLY285      0.2280
    114  O         43.1120   15.2930    2.7950 O.2   285  GLY285     -0.2866
    115  N         44.0260   12.6730    5.8060 N.3   287  ASP287     -0.1225
    116  CA        44.6140   11.4710    6.4050 C.3   287  ASP287      0.1805
    117  C         45.8810   11.0130    5.6730 C.2   287  ASP287      0.2598
    118  O         45.9520    9.8950    5.1690 O.2   287  ASP287     -0.2718
    119  CB        43.5800   10.3310    6.4520 C.3   287  ASP287      0.1424
    120  CG        44.0140    9.1810    7.3590 C.2   287  ASP287      0.3668
    121  OD1       44.6780    9.4390    8.3850 O.co2 287  ASP287     -0.2456
    122  OD2       43.6920    8.0110    7.0600 O.co2 287  ASP287     -0.2456
    123  N         46.8950   11.8710    5.6470 N.am  288  THR288     -0.1953
    124  CA        48.1270   11.5860    4.9250 C.3   288  THR288      0.1897
    125  C         49.3770   11.6200    5.8160 C.2   288  THR288      0.2313
    126  O         50.5090   11.4010    5.3350 O.2   288  THR288     -0.2863
    127  CB        48.3130   12.5970    3.7710 C.3   288  THR288      0.1794
    128  OG1       48.2950   13.9390    4.2890 O.3   288  THR288     -0.2208
    129  CG2       47.1970   12.4660    2.7560 C.3   288  THR288      0.0378
@<TRIPOS>BOND
     1    54    53    2
     2    53    52    1
     3    52    51    1
     4    52    55    1
     5    55    56    1
     6    62    61    2
     7    61    60    1
     8    56    57    2
     9    56    58   am
    10    60    59    1
    11    60    63    1
    12    63    64    1
    13    45    46    2
    14    45    44    1
    15    49    48   ar
    16    44    43    1
    17    44    47    1
    18    64    65    1
    19    48    47    1
    20    48    50   ar
    21    66    65   ar
    22    71    70    2
    23    68    69    1
    24    25    26    2
    25    25    24    1
    26    65    67   ar
    27    72    74    1
    28    72    69    1
    29    72    73    1
    30    70    69    1
    31    24    27    1
    32    24    23    1
    33    81    82    1
    34    81    80    1
    35    83    82    1
    36    31    30    1
    37    29    30    1
    38    29    28    1
    39    27    28    1
    40    78    77    2
    41    79    80    1
    42    79    76    1
    43    75    76    1
    44    76    77    1
    45    34    35    2
    46    34    33    1
    47    22    21    1
    48    33    36    1
    49    33    32    1
    50    21    20    1
    51    20    19    1
    52    96    95    1
    53   110   108    1
    54    36    37    1
    55    87    86    2
    56    84    85    1
    57   100    99    2
    58    95    92    1
    59    90    88    1
    60    88    85    1
    61    88    89    1
    62   108   107    1
    63    37    38    1
    64    19    18    1
    65    85    86    1
    66    99    98    1
    67    16    15    1
    68    16    17    2
    69    94    93    2
    70    38    39    1
    71    92    93    1
    72    92    91    1
    73   107   104    1
    74   107   109    1
    75    12    11    1
    76   103   104    1
    77    93    97   am
    78    15    18    1
    79    15    14    1
    80    97    98    1
    81    39    40    2
    82    98   101    1
    83   104   105    1
    84    13    11    1
    85    11    10    1
    86    40    41    1
    87    40    42    1
    88   101   102    1
    89   105   106    2
    90   129   127    1
    91   114   113    2
    92   112   113    1
    93   112   111    1
    94    10     7    1
    95   127   128    1
    96   127   124    1
    97     7     8    1
    98     7     6    1
    99     8     9    2
   100     5     2    1
   101   124   123    1
   102   124   125    1
   103   118   117    2
   104   126   125    2
   105     4     3    2
   106   123   117   am
   107   117   116    1
   108   115   116    1
   109     2     3    1
   110     2     1    1
   111   116   119    1
   112   119   120    1
   113   122   120   ar
   114   120   121   ar
