@<TRIPOS>MOLECULE
tmp/3gc5A00.pdb
 159 148 0 0 0
SMALL
GASTEIGER

@<TRIPOS>ATOM
      1  N         10.2020    9.2860   11.9830 N.3    35  VAL35      -0.1245
      2  CA         9.5730   10.2630   12.8500 C.3    35  VAL35       0.1561
      3  C          8.1180   10.4670   12.4420 C.2    35  VAL35       0.2260
      4  O          7.8330   10.6940   11.2510 O.2    35  VAL35      -0.2867
      5  CB        10.3760   11.5830   12.8050 C.3    35  VAL35       0.0252
      6  CG1        9.6450   12.6600   13.5890 C.3    35  VAL35       0.0019
      7  CG2       11.7950   11.3320   13.2970 C.3    35  VAL35       0.0019
      8  N          9.1670    7.1680   16.1300 N.3    58  LEU58      -0.1245
      9  CA         9.2170    8.2230   17.1380 C.3    58  LEU58       0.1561
     10  C          7.9440    9.0520   17.0920 C.2    58  LEU58       0.2260
     11  O          7.5370    9.4970   15.9970 O.2    58  LEU58      -0.2867
     12  CB        10.4360    9.1120   16.9610 C.3    58  LEU58       0.0270
     13  CG        10.6230   10.2130   18.0170 C.3    58  LEU58       0.0019
     14  CD1       12.0520   10.4530   18.4130 C.3    58  LEU58       0.0001
     15  CD2       10.0670   11.5290   17.4580 C.3    58  LEU58       0.0001
     16  N          6.0210   12.6660   19.2370 N.3    60  ASN60      -0.1240
     17  CA         6.4950   13.8450   19.9720 C.3    60  ASN60       0.1653
     18  C          5.4760   14.2880   21.0000 C.2    60  ASN60       0.2266
     19  O          4.3250   14.5380   20.6830 O.2    60  ASN60      -0.2867
     20  CB         6.7950   14.9890   18.9820 C.3    60  ASN60       0.1155
     21  CG         8.1530   14.8660   18.3200 C.2    60  ASN60       0.2627
     22  OD1        9.1550   14.7240   19.0270 O.2    60  ASN60      -0.2716
     23  ND2        8.2820   14.9120   17.0050 N.am   60  ASN60      -0.0877
     24  N          9.5840   11.5690   22.3260 N.3    92  ASP92      -0.1225
     25  CA        10.4010   12.6400   22.9160 C.3    92  ASP92       0.1805
     26  C          9.5460   13.3490   23.9660 C.2    92  ASP92       0.2598
     27  O          8.3250   13.2190   23.9690 O.2    92  ASP92      -0.2718
     28  CB        10.9700   13.5620   21.8500 C.3    92  ASP92       0.1424
     29  CG        12.2060   14.3090   22.3300 C.2    92  ASP92       0.3668
     30  OD1       12.7460   15.0540   21.4920 O.co2  92  ASP92      -0.2456
     31  OD2       12.6060   14.2340   23.5100 O.co2  92  ASP92      -0.2456
     32  N         10.2120   14.0550   24.8610 N.am   93  SER93      -0.1938
     33  CA         9.5920   14.5710   26.0650 C.3    93  SER93       0.2055
     34  C          9.0630   15.9930   25.9360 C.2    93  SER93       0.2643
     35  O          8.3860   16.4000   26.8780 O.2    93  SER93      -0.2714
     36  CB        10.6410   14.5100   27.1580 C.3    93  SER93       0.2130
     37  OG        11.8310   15.1970   26.8150 O.3    93  SER93      -0.2179
     38  N          9.3830   16.6730   24.8400 N.am   94  GLY94      -0.1954
     39  CA         9.0070   18.0640   24.6430 C.3    94  GLY94       0.1869
     40  C         10.1660   18.9190   25.0520 C.2    94  GLY94       0.2309
     41  O         11.2580   18.4930   25.5220 O.2    94  GLY94      -0.2863
     42  N         12.9000   19.8800   23.6990 N.3    96  TYR96      -0.1227
     43  CA        13.5860   20.2920   22.4700 C.3    96  TYR96       0.1736
     44  C         12.5570   21.0660   21.6390 C.2    96  TYR96       0.2595
     45  O         12.8070   22.1600   21.1560 O.2    96  TYR96      -0.2718
     46  CB        14.1670   19.1370   21.6570 C.3    96  TYR96       0.0548
     47  CG        14.7570   19.5500   20.3260 C.ar   96  TYR96      -0.0200
     48  CD1       16.0860   19.9540   20.2160 C.ar   96  TYR96      -0.0009
     49  CD2       14.0480   19.5540   19.1510 C.ar   96  TYR96      -0.0009
     50  CE1       16.6370   20.3320   19.0060 C.ar   96  TYR96       0.0417
     51  CE2       14.5750   19.9340   17.9540 C.ar   96  TYR96       0.0417
     52  CZ        15.8900   20.3320   17.8640 C.ar   96  TYR96       0.1957
     53  OH        16.3770   20.7030   16.6290 O.3    96  TYR96      -0.2866
     54  N         11.4010   20.4470   21.4500 N.am   97  GLN97      -0.1979
     55  CA        10.4410   20.9930   20.5000 C.3    97  GLN97       0.1601
     56  C          9.8370   22.2810   21.0470 C.2    97  GLN97       0.2287
     57  O          9.5050   23.1740   20.2670 O.2    97  GLN97      -0.2864
     58  CB         9.3830   19.9320   20.1890 C.3    97  GLN97       0.0394
     59  CG         9.9320   18.6900   19.5000 C.3    97  GLN97       0.0908
     60  CD        10.5200   18.8270   18.1280 C.2    97  GLN97       0.2608
     61  OE1       11.2500   17.9650   17.5840 O.2    97  GLN97      -0.2717
     62  NE2       10.2280   19.9270   17.4570 N.am   97  GLN97      -0.0878
     63  N         13.9250   17.2090   29.5840 N.3   141  ASP141     -0.1239
     64  CA        15.2240   17.8520   29.6450 C.3   141  ASP141      0.1674
     65  C         15.1170   19.2940   29.1290 C.2   141  ASP141      0.2266
     66  O         14.0750   19.7660   28.6900 O.2   141  ASP141     -0.2867
     67  CB        16.3020   17.0720   28.8760 C.3   141  ASP141      0.1410
     68  CG        16.0560   16.9950   27.3770 C.2   141  ASP141      0.3668
     69  OD1       14.8610   16.9910   26.9750 O.co2 141  ASP141     -0.2456
     70  OD2       17.0820   16.9060   26.6480 O.co2 141  ASP141     -0.2456
     71  N         17.4030   21.2210   26.1960 N.3   143  CYS143     -0.1235
     72  CA        18.4360   21.1120   25.1600 C.3   143  CYS143      0.1677
     73  C         19.1900   22.4400   24.9970 C.2   143  CYS143      0.2270
     74  O         18.6760   23.3930   24.4150 O.2   143  CYS143     -0.2867
     75  CB        17.9160   20.7020   23.7740 C.3   143  CYS143      0.0956
     76  SG        19.1510   20.6030   22.4360 S.3   143  CYS143     -0.0801
     77  N         18.6600   11.5980   29.4420 N.3   186  ILE186     -0.1245
     78  CA        19.3270   12.3210   28.3620 C.3   186  ILE186      0.1561
     79  C         20.5280   13.0610   28.9000 C.2   186  ILE186      0.2260
     80  O         20.4030   13.9490   29.7560 O.2   186  ILE186     -0.2867
     81  CB        18.3460   13.2970   27.6840 C.3   186  ILE186      0.0252
     82  CG1       17.0970   12.5900   27.2050 C.3   186  ILE186      0.0019
     83  CG2       19.0760   14.0550   26.5980 C.3   186  ILE186      0.0019
     84  CD1       16.0170   13.5460   26.6810 C.3   186  ILE186      0.0001
     85  N         23.2670   15.8940   28.7010 N.3   188  GLN188     -0.1245
     86  CA        23.6530   17.2050   28.3350 C.3   188  GLN188      0.1566
     87  C         25.0940   17.5220   28.7030 C.2   188  GLN188      0.2260
     88  O         25.8740   16.6240   29.0310 O.2   188  GLN188     -0.2867
     89  CB        22.5560   18.0840   28.9510 C.3   188  GLN188      0.0367
     90  CG        21.1500   17.7230   28.4770 C.3   188  GLN188      0.0905
     91  CD        20.9070   18.0310   27.0110 C.2   188  GLN188      0.2608
     92  OE1       21.6550   18.7180   26.3320 O.2   188  GLN188     -0.2717
     93  NE2       19.7900   17.5360   26.4750 N.am  188  GLN188     -0.0878
     94  N         21.9520   13.9410   24.2830 N.3   214  GLY214     -0.1210
     95  CA        21.2410   15.1520   23.9330 C.3   214  GLY214      0.1956
     96  C         22.1730   16.2870   23.5990 C.2   214  GLY214      0.2612
     97  O         23.3840   16.1470   23.7450 O.2   214  GLY214     -0.2717
     98  N         21.6360   17.3800   23.0990 N.am  215  GLY215     -0.1942
     99  CA        22.4110   18.5870   22.9070 C.3   215  GLY215      0.2014
    100  C         23.3400   18.6230   21.7360 C.2   215  GLY215      0.2639
    101  O         24.1650   19.5510   21.6500 O.2   215  GLY215     -0.2714
    102  N         23.2230   17.6650   20.8150 N.am  216  LEU216     -0.1963
    103  CA        24.0180   17.6630   19.5920 C.3   216  LEU216      0.1728
    104  C         23.1210   17.7660   18.3620 C.2   216  LEU216      0.2616
    105  O         21.9010   17.8310   18.4470 O.2   216  LEU216     -0.2715
    106  CB        24.9260   16.4340   19.5370 C.3   216  LEU216      0.0311
    107  CG        25.9550   16.2420   20.6350 C.3   216  LEU216      0.0022
    108  CD1       26.7760   14.9660   20.4820 C.3   216  LEU216      0.0001
    109  CD2       26.9220   17.4230   20.6490 C.3   216  LEU216      0.0001
    110  N         23.7530   17.8320   17.2040 N.am  217  ALA217     -0.1963
    111  CA        23.0470   18.1740   15.9690 C.3   217  ALA217      0.1728
    112  C         22.2070   19.4310   16.1190 C.2   217  ALA217      0.2616
    113  O         21.0490   19.5340   15.7320 O.2   217  ALA217     -0.2715
    114  CB        22.2000   16.9750   15.5340 C.3   217  ALA217      0.0334
    115  N         22.8230   20.4680   16.7360 N.am  218  VAL218     -0.1977
    116  CA        22.1270   21.7310   16.9380 C.3   218  VAL218      0.1596
    117  C         22.9330   22.9240   16.4140 C.2   218  VAL218      0.2287
    118  O         22.7710   24.0360   16.9210 O.2   218  VAL218     -0.2864
    119  CB        21.8300   22.0260   18.4160 C.3   218  VAL218      0.0276
    120  CG1       20.6610   21.1740   18.8910 C.3   218  VAL218      0.0022
    121  CG2       23.0940   21.8070   19.2330 C.3   218  VAL218      0.0022
    122  N         21.4110    6.4310   22.5190 N.3   243  TYR243     -0.1241
    123  CA        20.4850    7.0210   21.5480 C.3   243  TYR243      0.1605
    124  C         20.9930    8.4280   21.2100 C.2   243  TYR243      0.2264
    125  O         21.0110    9.3100   22.0730 O.2   243  TYR243     -0.2867
    126  CB        19.0670    6.9660   22.0770 C.3   243  TYR243      0.0534
    127  CG        18.0240    7.8240   21.4080 C.ar  243  TYR243     -0.0201
    128  CD1       18.0070    8.1940   20.0610 C.ar  243  TYR243     -0.0009
    129  CD2       16.9540    8.2760   22.1740 C.ar  243  TYR243     -0.0009
    130  CE1       17.0680    8.9770   19.4670 C.ar  243  TYR243      0.0417
    131  CE2       15.9690    9.0810   21.6110 C.ar  243  TYR243      0.0417
    132  CZ        16.0390    9.3840   20.2790 C.ar  243  TYR243      0.1957
    133  OH        15.0730   10.2020   19.7540 O.3   243  TYR243     -0.2866
    134  N         20.0340   11.7220   19.6560 N.3   245  MET245     -0.1230
    135  CA        18.8040   12.3940   19.3140 C.3   245  MET245      0.1702
    136  C         18.9900   13.2920   18.0900 C.2   245  MET245      0.2592
    137  O         19.8880   14.1280   18.1040 O.2   245  MET245     -0.2718
    138  CB        18.2860   13.2040   20.5160 C.3   245  MET245      0.0401
    139  CG        18.1980   12.3380   21.7660 C.3   245  MET245      0.0596
    140  SD        17.2450   13.0700   23.1170 S.3   245  MET245     -0.1393
    141  CE        15.5870   12.7390   22.5610 C.3   245  MET245      0.0692
    142  N         18.1380   13.1130   17.1130 N.am  246  GLY246     -0.1957
    143  CA        18.0280   14.0050   15.9660 C.3   246  GLY246      0.1869
    144  C         19.0830   13.8210   14.9070 C.2   246  GLY246      0.2309
    145  O         19.2330   14.6690   14.0270 O.2   246  GLY246     -0.2863
    146  N         17.1070    8.9940   15.3100 N.3   265  ASP265     -0.1225
    147  CA        15.8640    9.4840   14.7260 C.3   265  ASP265      0.1805
    148  C         16.2230   10.7640   13.9520 C.2   265  ASP265      0.2598
    149  O         17.0980   11.4990   14.3640 O.2   265  ASP265     -0.2718
    150  CB        14.7620    9.8100   15.7190 C.3   265  ASP265      0.1424
    151  CG        15.0220   11.1170   16.4410 C.2   265  ASP265      0.3668
    152  OD1       15.8050   11.1480   17.4260 O.co2 265  ASP265     -0.2456
    153  OD2       14.4730   12.1750   16.0680 O.co2 265  ASP265     -0.2456
    154  N         15.5050   10.9650   12.8320 N.am  266  CYS266     -0.1970
    155  CA        15.7390   12.1960   12.0830 C.3   266  CYS266      0.1712
    156  C         14.6070   12.4350   11.1090 C.2   266  CYS266      0.2296
    157  O         14.1080   11.4540   10.5320 O.2   266  CYS266     -0.2864
    158  CB        17.0680   12.0610   11.3340 C.3   266  CYS266      0.0983
    159  SG        17.6470   13.5790   10.5800 S.3   266  CYS266     -0.0798
@<TRIPOS>BOND
     1   157   156    2
     2   159   158    1
     3   156   155    1
     4     4     3    2
     5   158   155    1
     6     1     2    1
     7   155   154    1
     8     3     2    1
     9     5     2    1
    10     5     7    1
    11     5     6    1
    12   154   148   am
    13   148   149    2
    14   148   147    1
    15   145   144    2
    16   147   146    1
    17   147   150    1
    18   144   143    1
    19   114   111    1
    20   150   151    1
    21   113   112    2
    22   143   142    1
    23   111   112    1
    24   111   110    1
    25    11    10    2
    26   153   151   ar
    27   112   115   am
    28     8     9    1
    29   117   118    2
    30   117   116    1
    31   151   152   ar
    32    53    52    1
    33   115   116    1
    34   116   119    1
    35    12     9    1
    36    12    13    1
    37    23    21   am
    38    10     9    1
    39   142   136   am
    40   110   104   am
    41    62    60   am
    42    15    13    1
    43    61    60    2
    44    52    51   ar
    45    52    50   ar
    46    51    49   ar
    47    13    14    1
    48   136   137    2
    49   136   135    1
    50    60    59    1
    51    21    20    1
    52    21    22    2
    53   104   105    2
    54   104   103    1
    55   119   120    1
    56   119   121    1
    57    20    17    1
    58    50    48   ar
    59    49    47   ar
    60    16    17    1
    61   135   134    1
    62   135   138    1
    63   130   128   ar
    64   130   132   ar
    65    59    58    1
    66   106   103    1
    67   106   107    1
    68   103   102    1
    69   133   132    1
    70    17    18    1
    71   128   127   ar
    72    58    55    1
    73    48    47   ar
    74    57    56    2
    75   132   131   ar
    76    47    46    1
    77   108   107    1
    78    55    56    1
    79    55    54    1
    80   138   139    1
    81   107   109    1
    82    19    18    2
    83   102   100   am
    84    45    44    2
    85   124   123    1
    86   124   125    2
    87   127   126    1
    88   127   129   ar
    89    54    44   am
    90    30    29   ar
    91   123   126    1
    92   123   122    1
    93   131   129   ar
    94    44    43    1
    95   101   100    2
    96    46    43    1
    97   100    99    1
    98   139   140    1
    99    28    29    1
   100    28    25    1
   101    24    25    1
   102    29    31   ar
   103    76    75    1
   104    43    42    1
   105   141   140    1
   106    99    98    1
   107    25    26    1
   108    98    96   am
   109    96    97    2
   110    96    95    1
   111    75    72    1
   112    95    94    1
   113    26    27    2
   114    26    32   am
   115    74    73    2
   116    39    38    1
   117    39    40    1
   118    38    34   am
   119    32    33    1
   120    73    72    1
   121    40    41    2
   122    72    71    1
   123    34    33    1
   124    34    35    2
   125    33    36    1
   126    92    91    2
   127    93    91   am
   128    83    81    1
   129    70    68   ar
   130    84    82    1
   131    37    36    1
   132    69    68   ar
   133    91    90    1
   134    82    81    1
   135    68    67    1
   136    81    78    1
   137    86    85    1
   138    86    87    1
   139    86    89    1
   140    78    79    1
   141    78    77    1
   142    90    89    1
   143    66    65    2
   144    87    88    2
   145    67    64    1
   146    79    80    2
   147    65    64    1
   148    63    64    1
