@<TRIPOS>MOLECULE
tmp/3gc6A00.pdb
 100 94 0 0 0
SMALL
GASTEIGER

@<TRIPOS>ATOM
      1  N         14.2580   17.1800   36.1480 N.3    85  LYS85      -0.1231
      2  CA        13.9510   17.8230   37.4430 C.3    85  LYS85       0.1693
      3  C         12.8680   18.9060   37.3560 C.2    85  LYS85       0.2592
      4  O         12.6950   19.6830   38.2890 O.2    85  LYS85      -0.2718
      5  CB        15.2030   18.3880   38.1340 C.3    85  LYS85       0.0285
      6  CG        16.4770   17.5200   38.0130 C.3    85  LYS85       0.0035
      7  CD        16.2610   16.1340   38.5870 C.3    85  LYS85       0.0206
      8  CE        17.5250   15.2380   38.4730 C.3    85  LYS85       0.1093
      9  NZ        18.7200   15.7540   39.2000 N.3    85  LYS85      -0.1314
     10  N         12.1130   18.9170   36.2550 N.am   86  THR86      -0.1953
     11  CA        11.0830   19.9350   35.9980 C.3    86  THR86       0.1897
     12  C          9.7900   19.2640   35.5050 C.2    86  THR86       0.2313
     13  O          9.0900   19.7990   34.6380 O.2    86  THR86      -0.2863
     14  CB        11.5510   20.8830   34.8790 C.3    86  THR86       0.1794
     15  OG1       11.9370   20.0670   33.7600 O.3    86  THR86      -0.2208
     16  CG2       12.7520   21.7100   35.3510 C.3    86  THR86       0.0378
     17  N          6.6230   18.8130   36.3450 N.3    88  GLU88      -0.1231
     18  CA         5.3390   19.5200   36.2270 C.3    88  GLU88       0.1699
     19  C          5.3990   20.6560   35.1760 C.2    88  GLU88       0.2592
     20  O          4.5330   20.7930   34.3050 O.2    88  GLU88      -0.2718
     21  CB         4.8960   20.0490   37.6060 C.3    88  GLU88       0.0402
     22  CG         4.2510   18.9830   38.5360 C.3    88  GLU88       0.1161
     23  CD         5.2550   18.0240   39.2000 C.2    88  GLU88       0.3649
     24  OE1        6.4690   18.3140   39.1250 O.co2  88  GLU88      -0.2457
     25  OE2        4.8430   16.9830   39.7810 O.co2  88  GLU88      -0.2457
     26  N          6.4490   21.4550   35.2520 N.am   89  LEU89      -0.1980
     27  CA         6.5790   22.5870   34.3340 C.3    89  LEU89       0.1596
     28  C          6.7340   22.1210   32.8910 C.2    89  LEU89       0.2287
     29  O          6.1150   22.6870   31.9900 O.2    89  LEU89      -0.2864
     30  CB         7.7810   23.4320   34.7250 C.3    89  LEU89       0.0297
     31  CG         8.0820   24.5550   33.7430 C.3    89  LEU89       0.0022
     32  CD1        6.9770   25.6180   33.6600 C.3    89  LEU89       0.0001
     33  CD2        9.4460   25.1540   34.1240 C.3    89  LEU89       0.0001
     34  N         15.9430   23.0310   35.6020 N.3   166  ASN166     -0.1240
     35  CA        15.5170   23.6650   36.8550 C.3   166  ASN166      0.1653
     36  C         16.5450   24.6560   37.3770 C.2   166  ASN166      0.2266
     37  O         17.5660   24.2410   37.9110 O.2   166  ASN166     -0.2867
     38  CB        15.2810   22.5670   37.8870 C.3   166  ASN166      0.1155
     39  CG        14.4790   23.0500   39.0810 C.2   166  ASN166      0.2627
     40  OD1       14.6590   24.1810   39.5490 O.2   166  ASN166     -0.2716
     41  ND2       13.5660   22.1860   39.5470 N.am  166  ASN166     -0.0877
     42  N         16.2500   26.4840   39.8010 N.3   168  SER168     -0.1202
     43  CA        16.1800   26.5760   41.2640 C.3   168  SER168      0.2020
     44  C         16.9860   25.4840   41.9690 C.2   168  SER168      0.2618
     45  O         16.9660   25.3740   43.1970 O.2   168  SER168     -0.2717
     46  CB        14.7300   26.6670   41.7690 C.3   168  SER168      0.2103
     47  OG        14.2220   27.9660   41.5130 O.3   168  SER168     -0.2182
     48  N         17.7190   24.6860   41.1930 N.am  169  LEU169     -0.1979
     49  CA        18.6320   23.7080   41.7540 C.3   169  LEU169      0.1596
     50  C         20.0500   24.2580   41.6160 C.2   169  LEU169      0.2287
     51  O         20.3130   25.1040   40.7690 O.2   169  LEU169     -0.2864
     52  CB        18.5270   22.3730   41.0050 C.3   169  LEU169      0.0297
     53  CG        17.1850   21.6380   41.0830 C.3   169  LEU169      0.0022
     54  CD1       17.2460   20.3270   40.2560 C.3   169  LEU169      0.0001
     55  CD2       16.7490   21.3670   42.5230 C.3   169  LEU169      0.0001
     56  N         14.6640   27.4330   34.2620 N.3   198  VAL198     -0.1231
     57  CA        13.4930   28.1330   34.7820 C.3   198  VAL198      0.1692
     58  C         13.4980   28.0140   36.3060 C.2   198  VAL198      0.2592
     59  O         13.7090   26.9350   36.8560 O.2   198  VAL198     -0.2718
     60  CB        12.1900   27.5290   34.1630 C.3   198  VAL198      0.0266
     61  CG1       10.9810   28.3340   34.6500 C.3   198  VAL198      0.0020
     62  CG2       12.2620   27.5970   32.6330 C.3   198  VAL198      0.0020
     63  N         13.2870   29.1420   36.9960 N.am  199  HIS199     -0.1962
     64  CA        13.3330   29.1410   38.4450 C.3   199  HIS199      0.1787
     65  C         11.9390   29.3780   38.9930 C.2   199  HIS199      0.2620
     66  O         11.0380   29.8470   38.2880 O.2   199  HIS199     -0.2715
     67  CB        14.3050   30.2180   38.9950 C.3   199  HIS199      0.0785
     68  CG        13.8980   31.6250   38.6930 C.ar  199  HIS199      0.0821
     69  ND1       12.9160   32.2920   39.4060 N.ar  199  HIS199     -0.2267
     70  CD2       14.3300   32.4900   37.7480 C.ar  199  HIS199      0.1154
     71  CE1       12.7640   33.5050   38.9060 C.ar  199  HIS199      0.1986
     72  NE2       13.6090   33.6500   37.8990 N.ar  199  HIS199     -0.2212
     73  N         11.7830   29.0460   40.2630 N.am  200  ASP200     -0.1971
     74  CA        10.4880   29.1910   40.9020 C.3   200  ASP200      0.1709
     75  C         10.1540   30.6250   41.2470 C.2   200  ASP200      0.2293
     76  O         11.0420   31.4140   41.5340 O.2   200  ASP200     -0.2864
     77  CB        10.4140   28.2370   42.0700 C.3   200  ASP200      0.1436
     78  CG        10.2910   26.8070   41.5910 C.2   200  ASP200      0.3671
     79  OD1        9.2390   26.4860   41.0030 O.co2 200  ASP200     -0.2456
     80  OD2       11.2410   26.0230   41.7630 O.co2 200  ASP200     -0.2456
     81  N         11.8530   33.2660   43.8810 N.3   203  LYS203     -0.1245
     82  CA        13.1080   32.7480   44.4300 C.3   203  LYS203      0.1561
     83  C         14.2370   32.9690   43.4200 C.2   203  LYS203      0.2260
     84  O         14.1420   32.5270   42.2730 O.2   203  LYS203     -0.2867
     85  CB        12.9570   31.2650   44.7910 C.3   203  LYS203      0.0271
     86  CG        11.9260   31.0260   45.9050 C.3   203  LYS203      0.0035
     87  CD        11.8890   29.5730   46.3960 C.3   203  LYS203      0.0206
     88  CE        11.0160   28.6760   45.5260 C.3   203  LYS203      0.1093
     89  NZ         9.5550   29.0360   45.5800 N.3   203  LYS203     -0.1314
     90  N          8.6990   30.6380   35.9410 N.3   236  ARG236     -0.1245
     91  CA         7.7450   29.8080   35.2050 C.3   236  ARG236      0.1563
     92  C          6.8320   30.6160   34.2750 C.2   236  ARG236      0.2260
     93  O          6.6380   30.2650   33.1080 O.2   236  ARG236     -0.2867
     94  CB         6.8830   28.9860   36.1600 C.3   236  ARG236      0.0307
     95  CG         7.6500   27.9560   36.9510 C.3   236  ARG236      0.0489
     96  CD         6.6940   27.1430   37.8160 C.3   236  ARG236      0.2205
     97  NE         7.3970   26.4100   38.8660 N.pl3 236  ARG236     -0.0865
     98  CZ         7.3430   25.0920   39.0150 C.cat 236  ARG236      0.5346
     99  NH1        6.6130   24.3470   38.1880 N.pl3 236  ARG236      0.1354
    100  NH2        8.0200   24.5180   40.0030 N.pl3 236  ARG236      0.1354
@<TRIPOS>BOND
     1    29    28    2
     2    62    60    1
     3    28    27    1
     4    93    92    2
     5    32    31    1
     6    31    33    1
     7    31    30    1
     8    15    14    1
     9    60    61    1
    10    60    57    1
    11    56    57    1
    12    92    91    1
    13    20    19    2
    14    27    30    1
    15    27    26    1
    16    13    12    2
    17    57    58    1
    18    14    16    1
    19    14    11    1
    20    19    26   am
    21    19    18    1
    22    91    90    1
    23    91    94    1
    24    12    11    1
    25    34    35    1
    26    11    10    1
    27     1     2    1
    28    94    95    1
    29    18    17    1
    30    18    21    1
    31    10     3   am
    32    58    59    2
    33    58    63   am
    34    35    36    1
    35    35    38    1
    36    95    96    1
    37    63    64    1
    38     3     2    1
    39     3     4    2
    40    36    37    2
    41     2     5    1
    42    21    22    1
    43    70    72   ar
    44    70    68   ar
    45    96    97    1
    46    38    39    1
    47    72    71   ar
    48     6     5    1
    49     6     7    1
    50    99    98    1
    51    66    65    2
    52    64    65    1
    53    64    67    1
    54     8     7    1
    55     8     9    1
    56    22    23    1
    57    68    67    1
    58    68    69   ar
    59    97    98    2
    60    71    69   ar
    61    65    73   am
    62    98   100    1
    63    39    41   am
    64    39    40    2
    65    24    23   ar
    66    23    25   ar
    67    42    43    1
    68    54    53    1
    69    73    74    1
    70    51    50    2
    71    74    75    1
    72    74    77    1
    73    79    78   ar
    74    52    53    1
    75    52    49    1
    76    53    55    1
    77    48    49    1
    78    48    44   am
    79    75    76    2
    80    43    46    1
    81    43    44    1
    82    47    46    1
    83    78    80   ar
    84    78    77    1
    85    50    49    1
    86    44    45    2
    87    84    83    2
    88    83    82    1
    89    81    82    1
    90    82    85    1
    91    85    86    1
    92    88    89    1
    93    88    87    1
    94    86    87    1
