@<TRIPOS>MOLECULE
tmp/3gc7A00.pdb
 170 159 0 0 0
SMALL
GASTEIGER

@<TRIPOS>ATOM
      1  N         23.5290   10.9500   40.8630 N.3    27  VAL27      -0.1245
      2  CA        24.6330   11.1960   39.9470 C.3    27  VAL27       0.1561
      3  C         25.0370   12.6700   40.0270 C.2    27  VAL27       0.2260
      4  O         26.2200   12.9840   39.9460 O.2    27  VAL27      -0.2867
      5  CB        24.3940   10.6870   38.4770 C.3    27  VAL27       0.0252
      6  CG1       23.4350    9.5050   38.4410 C.3    27  VAL27       0.0019
      7  CG2       23.9310   11.7890   37.5480 C.3    27  VAL27       0.0019
      8  N         19.3310   22.7640   37.1200 N.3    32  TYR32      -0.1241
      9  CA        18.5220   21.9060   36.2480 C.3    32  TYR32       0.1605
     10  C         17.5940   20.9590   37.0180 C.2    32  TYR32       0.2264
     11  O         16.6140   20.4510   36.4620 O.2    32  TYR32      -0.2867
     12  CB        19.4340   21.0830   35.3270 C.3    32  TYR32       0.0534
     13  CG        20.4400   20.1900   36.0460 C.ar   32  TYR32      -0.0201
     14  CD1       20.1340   18.8560   36.3510 C.ar   32  TYR32      -0.0009
     15  CD2       21.7020   20.6720   36.4080 C.ar   32  TYR32      -0.0009
     16  CE1       21.0570   18.0310   37.0070 C.ar   32  TYR32       0.0417
     17  CE2       22.6330   19.8510   37.0600 C.ar   32  TYR32       0.0417
     18  CZ        22.3000   18.5360   37.3560 C.ar   32  TYR32       0.1957
     19  OH        23.2170   17.7250   37.9970 O.3    32  TYR32      -0.2866
     20  N         19.6110   14.4230   39.2910 N.3    35  VAL35      -0.1245
     21  CA        19.5800   13.1880   38.5070 C.3    35  VAL35       0.1561
     22  C         20.0650   12.0080   39.3570 C.2    35  VAL35       0.2260
     23  O         21.0420   12.1310   40.1180 O.2    35  VAL35      -0.2867
     24  CB        20.4010   13.3090   37.1880 C.3    35  VAL35       0.0252
     25  CG1       20.4700   11.9790   36.4500 C.3    35  VAL35       0.0019
     26  CG2       19.7990   14.3670   36.2740 C.3    35  VAL35       0.0019
     27  N         17.9700    6.5390   33.9810 N.3    48  ALA48      -0.1245
     28  CA        18.3580    7.7790   34.6090 C.3    48  ALA48       0.1562
     29  C         17.0710    8.5680   34.8090 C.2    48  ALA48       0.2260
     30  O         16.2500    8.6430   33.9040 O.2    48  ALA48      -0.2867
     31  CB        19.3430    8.5440   33.7120 C.3    48  ALA48       0.0290
     32  N         15.4130   12.2680   36.1130 N.3    50  LYS50      -0.1245
     33  CA        15.6280   13.6770   36.4310 C.3    50  LYS50       0.1561
     34  C         14.4240   14.2380   37.1700 C.2    50  LYS50       0.2260
     35  O         13.3070   14.2030   36.6530 O.2    50  LYS50      -0.2867
     36  CB        15.8760   14.5150   35.1710 C.3    50  LYS50       0.0271
     37  CG        16.4460   15.9010   35.5000 C.3    50  LYS50       0.0035
     38  CD        16.1690   16.9960   34.4630 C.3    50  LYS50       0.0206
     39  CE        16.4830   16.6220   33.0390 C.3    50  LYS50       0.1093
     40  NZ        16.6820   17.8730   32.2310 N.3    50  LYS50      -0.1314
     41  N         10.2660   21.4010   27.8430 N.3    68  GLU68      -0.1245
     42  CA        11.1110   20.2100   27.9610 C.3    68  GLU68       0.1567
     43  C         10.2760   18.9330   27.8990 C.2    68  GLU68       0.2260
     44  O         10.6390   17.9940   27.2040 O.2    68  GLU68      -0.2867
     45  CB        11.9620   20.2240   29.2370 C.3    68  GLU68       0.0388
     46  CG        12.9040   19.0070   29.2840 C.3    68  GLU68       0.1160
     47  CD        13.9210   19.0520   30.4050 C.2    68  GLU68       0.3649
     48  OE1       13.7730   19.8950   31.3110 O.co2  68  GLU68      -0.2457
     49  OE2       14.8780   18.2420   30.3580 O.co2  68  GLU68      -0.2457
     50  N         10.7190   16.1010   25.0040 N.3    72  LEU72      -0.1245
     51  CA        11.0840   14.7340   25.3890 C.3    72  LEU72       0.1561
     52  C          9.9940   13.7190   25.0360 C.2    72  LEU72       0.2260
     53  O         10.3050   12.6130   24.6030 O.2    72  LEU72      -0.2867
     54  CB        11.4660   14.6560   26.8720 C.3    72  LEU72       0.0270
     55  CG        12.7740   15.3590   27.2650 C.3    72  LEU72       0.0019
     56  CD1       12.8730   15.4780   28.7870 C.3    72  LEU72       0.0001
     57  CD2       13.9950   14.6270   26.7080 C.3    72  LEU72       0.0001
     58  N         17.7490   11.0790   23.1090 N.3    81  ILE81      -0.1231
     59  CA        17.1860   10.8590   24.4510 C.3    81  ILE81       0.1692
     60  C         15.6900   11.2020   24.4310 C.2    81  ILE81       0.2593
     61  O         15.3000   12.3180   24.0590 O.2    81  ILE81      -0.2718
     62  CB        17.9490   11.6490   25.5660 C.3    81  ILE81       0.0266
     63  CG1       19.2940   10.9790   25.9070 C.3    81  ILE81       0.0019
     64  CG2       17.0970   11.7750   26.8490 C.3    81  ILE81       0.0020
     65  CD1       19.1680    9.5820   26.5450 C.3    81  ILE81       0.0001
     66  N         14.8700   10.2230   24.8070 N.am   82  GLY82      -0.1942
     67  CA        13.4150   10.3820   24.8800 C.3    82  GLY82       0.2014
     68  C         12.9040    9.8560   26.2080 C.2    82  GLY82       0.2638
     69  O         13.6910    9.5180   27.0930 O.2    82  GLY82      -0.2714
     70  N         11.5840    9.7730   26.3480 N.am   83  LEU83      -0.1977
     71  CA        10.9940    9.3560   27.6170 C.3    83  LEU83       0.1596
     72  C         10.5710    7.9010   27.6920 C.2    83  LEU83       0.2287
     73  O          9.7030    7.4380   26.9310 O.2    83  LEU83      -0.2864
     74  CB         9.7940   10.2380   27.9560 C.3    83  LEU83       0.0297
     75  CG        10.0500   11.6300   28.4950 C.3    83  LEU83       0.0022
     76  CD1        8.7070   12.3020   28.6960 C.3    83  LEU83       0.0001
     77  CD2       10.8310   11.5980   29.8100 C.3    83  LEU83       0.0001
     78  N         11.3190   12.7030   35.2050 N.3   101  LEU101     -0.1245
     79  CA        11.5280   12.3090   33.8090 C.3   101  LEU101      0.1561
     80  C         12.4900   11.1240   33.7550 C.2   101  LEU101      0.2260
     81  O         13.6160   11.2180   34.2440 O.2   101  LEU101     -0.2867
     82  CB        12.1340   13.4940   33.0200 C.3   101  LEU101      0.0270
     83  CG        11.3350   14.8060   33.0100 C.3   101  LEU101      0.0019
     84  CD1       12.1990   15.9440   32.4650 C.3   101  LEU101      0.0001
     85  CD2       10.0260   14.6780   32.2130 C.3   101  LEU101      0.0001
     86  N         14.6250    8.1940   31.5680 N.3   103  THR103     -0.1203
     87  CA        15.1830    7.8240   30.2610 C.3   103  THR103      0.1994
     88  C         16.2700    6.7560   30.4280 C.2   103  THR103      0.2618
     89  O         16.5140    6.2770   31.5410 O.2   103  THR103     -0.2717
     90  CB        15.7100    9.0770   29.4860 C.3   103  THR103      0.1784
     91  OG1       15.9760    8.7270   28.1200 O.3   103  THR103     -0.2211
     92  CG2       16.9740    9.6370   30.1250 C.3   103  THR103      0.0376
     93  N         16.8950    6.3530   29.3280 N.am  104  HIS104     -0.1961
     94  CA        17.9850    5.3930   29.3950 C.3   104  HIS104      0.1787
     95  C         19.1920    5.9360   30.1400 C.2   104  HIS104      0.2620
     96  O         19.5580    7.1150   29.9960 O.2   104  HIS104     -0.2715
     97  CB        18.4280    4.9820   27.9920 C.3   104  HIS104      0.0785
     98  CG        17.3310    4.4140   27.1580 C.ar  104  HIS104      0.0821
     99  ND1       17.0610    3.0630   27.1080 N.ar  104  HIS104     -0.2267
    100  CD2       16.4310    5.0090   26.3420 C.ar  104  HIS104      0.1154
    101  CE1       16.0530    2.8490   26.2780 C.ar  104  HIS104      0.1986
    102  NE2       15.6470    4.0150   25.8100 N.ar  104  HIS104     -0.2212
    103  N         19.8120    5.0620   30.9260 N.am  105  LEU105     -0.1963
    104  CA        21.0780    5.3730   31.5600 C.3   105  LEU105      0.1728
    105  C         22.1580    5.0130   30.5580 C.2   105  LEU105      0.2616
    106  O         22.3030    3.8500   30.1680 O.2   105  LEU105     -0.2715
    107  CB        21.2610    4.5620   32.8440 C.3   105  LEU105      0.0311
    108  CG        22.5620    4.7920   33.6070 C.3   105  LEU105      0.0022
    109  CD1       22.6570    6.2160   34.1500 C.3   105  LEU105      0.0001
    110  CD2       22.6830    3.7660   34.7300 C.3   105  LEU105      0.0001
    111  N         22.8770    6.0280   30.1040 N.am  106  MET106     -0.1963
    112  CA        24.0200    5.8230   29.2170 C.3   106  MET106      0.1736
    113  C         25.3020    5.8280   30.0450 C.2   106  MET106      0.2617
    114  O         26.1600    4.9700   29.8590 O.2   106  MET106     -0.2715
    115  CB        24.0560    6.8980   28.1330 C.3   106  MET106      0.0427
    116  CG        22.8110    6.8970   27.2460 C.3   106  MET106      0.0599
    117  SD        22.5410    5.3480   26.3770 S.3   106  MET106     -0.1393
    118  CE        23.6990    5.4780   25.0150 C.3   106  MET106      0.0692
    119  N         25.4190    6.7900   30.9500 N.am  107  GLY107     -0.1940
    120  CA        26.4400    6.7400   32.0000 C.3   107  GLY107      0.2014
    121  C         27.6580    7.6190   31.7870 C.2   107  GLY107      0.2639
    122  O         28.4440    7.8370   32.7150 O.2   107  GLY107     -0.2714
    123  N         27.8160    8.1280   30.5670 N.am  108  ALA108     -0.1963
    124  CA        28.9200    9.0320   30.2470 C.3   108  ALA108      0.1728
    125  C         28.5080    9.9310   29.0950 C.2   108  ALA108      0.2616
    126  O         27.5590    9.6180   28.3790 O.2   108  ALA108     -0.2715
    127  CB        30.1430    8.2300   29.8660 C.3   108  ALA108      0.0334
    128  N         29.2160   11.0460   28.9190 N.am  109  ASP109     -0.1971
    129  CA        29.1090   11.8000   27.6720 C.3   109  ASP109      0.1709
    130  C         30.4240   11.7330   26.9020 C.2   109  ASP109      0.2293
    131  O         31.4720   11.3790   27.4580 O.2   109  ASP109     -0.2864
    132  CB        28.6730   13.2480   27.9160 C.3   109  ASP109      0.1436
    133  CG        29.6470   14.0160   28.7810 C.2   109  ASP109      0.3671
    134  OD1       30.8030   14.2080   28.3660 O.co2 109  ASP109     -0.2456
    135  OD2       29.2530   14.4410   29.8780 O.co2 109  ASP109     -0.2456
    136  N         29.6990   17.2030   25.1600 N.3   151  SER151     -0.1202
    137  CA        29.0490   16.9780   26.4520 C.3   151  SER151      0.2020
    138  C         27.5400   16.7510   26.3510 C.2   151  SER151      0.2618
    139  O         26.9190   16.3120   27.3210 O.2   151  SER151     -0.2717
    140  CB        29.3700   18.1070   27.4410 C.3   151  SER151      0.2103
    141  OG        28.8060   19.3350   27.0310 O.3   151  SER151     -0.2182
    142  N         26.9550   17.0090   25.1780 N.am  152  ASN152     -0.1974
    143  CA        25.5260   16.7440   24.9650 C.3   152  ASN152      0.1688
    144  C         25.2710   15.4540   24.1970 C.2   152  ASN152      0.2292
    145  O         24.1750   15.2320   23.6840 O.2   152  ASN152     -0.2864
    146  CB        24.8440   17.9280   24.2680 C.3   152  ASN152      0.1181
    147  CG        24.4860   19.0280   25.2350 C.2   152  ASN152      0.2629
    148  OD1       24.4410   18.8110   26.4590 O.2   152  ASN152     -0.2716
    149  ND2       24.2470   20.2110   24.7120 N.am  152  ASN152     -0.0877
    150  N         25.3550   11.6210   24.9130 N.3   154  ALA154     -0.1245
    151  CA        25.4130   10.5420   25.8910 C.3   154  ALA154      0.1562
    152  C         25.8770    9.2590   25.2210 C.2   154  ALA154      0.2260
    153  O         25.3670    8.8650   24.1670 O.2   154  ALA154     -0.2867
    154  CB        24.0610   10.3420   26.5540 C.3   154  ALA154      0.0290
    155  N         21.3190   14.4870   23.7530 N.3   164  LEU164     -0.1231
    156  CA        20.4560   15.1050   24.7540 C.3   164  LEU164      0.1693
    157  C         20.5740   16.6110   24.9040 C.2   164  LEU164      0.2592
    158  O         21.3120   17.2650   24.1630 O.2   164  LEU164     -0.2718
    159  CB        20.5790   14.4060   26.1090 C.3   164  LEU164      0.0284
    160  CG        21.8910   14.1410   26.8420 C.3   164  LEU164      0.0019
    161  CD1       22.6830   15.3950   27.1440 C.3   164  LEU164      0.0001
    162  CD2       21.5000   13.4460   28.1480 C.3   164  LEU164      0.0001
    163  N         19.7940   17.1340   25.8540 N.am  165  ASP165     -0.1974
    164  CA        19.8240   18.5340   26.2820 C.3   165  ASP165      0.1709
    165  C         19.6060   19.4970   25.1230 C.2   165  ASP165      0.2293
    166  O         20.4440   20.3730   24.8790 O.2   165  ASP165     -0.2864
    167  CB        21.1450   18.8670   26.9890 C.3   165  ASP165      0.1436
    168  CG        21.1860   18.4120   28.4480 C.2   165  ASP165      0.3671
    169  OD1       22.2340   18.6570   29.0790 O.co2 165  ASP165     -0.2456
    170  OD2       20.2130   17.8120   28.9680 O.co2 165  ASP165     -0.2456
@<TRIPOS>BOND
     1    58    59    1
     2   145   144    2
     3   155   156    1
     4    61    60    2
     5   158   157    2
     6   153   152    2
     7   144   143    1
     8   146   143    1
     9   146   147    1
    10    60    59    1
    11    60    66   am
    12    59    62    1
    13    53    52    2
    14   149   147   am
    15   156   157    1
    16   156   159    1
    17    66    67    1
    18   166   165    2
    19    67    68    1
    20   157   163   am
    21   150   151    1
    22   143   142    1
    23    50    51    1
    24   118   117    1
    25    52    51    1
    26   165   164    1
    27   136   137    1
    28   142   138   am
    29   152   151    1
    30   147   148    2
    31    51    54    1
    32    62    63    1
    33    62    64    1
    34   102   101   ar
    35   102   100   ar
    36   163   164    1
    37   151   154    1
    38    63    65    1
    39   159   160    1
    40    68    70   am
    41    68    69    2
    42   101    99   ar
    43   164   167    1
    44   100    98   ar
    45    70    71    1
    46   138   137    1
    47   138   139    2
    48   117   116    1
    49   137   140    1
    50    57    55    1
    51   160   161    1
    52   160   162    1
    53    54    55    1
    54   130   131    2
    55   130   129    1
    56    73    72    2
    57   167   168    1
    58   141   140    1
    59    99    98   ar
    60    98    97    1
    61    44    43    2
    62   116   115    1
    63    55    56    1
    64    71    72    1
    65    71    74    1
    66   129   132    1
    67   129   128    1
    68    41    42    1
    69    43    42    1
    70   132   133    1
    71    74    75    1
    72    42    45    1
    73    97    94    1
    74    91    90    1
    75   115   112    1
    76   134   133   ar
    77   126   125    2
    78   168   170   ar
    79   168   169   ar
    80    75    76    1
    81    75    77    1
    82   133   135   ar
    83   128   125   am
    84   125   124    1
    85   112   113    1
    86   112   111    1
    87    45    46    1
    88    46    47    1
    89    93    94    1
    90    93    88   am
    91    94    95    1
    92    90    92    1
    93    90    87    1
    94   114   113    2
    95   127   124    1
    96    96    95    2
    97   113   119   am
    98   111   105   am
    99    95   103   am
   100   106   105    2
   101   124   123    1
   102    87    88    1
   103    87    86    1
   104    49    47   ar
   105    47    48   ar
   106    88    89    2
   107   105   104    1
   108   123   121   am
   109   103   104    1
   110   119   120    1
   111   104   107    1
   112   121   120    1
   113   121   122    2
   114    85    83    1
   115    40    39    1
   116    84    83    1
   117   107   108    1
   118    83    82    1
   119    82    79    1
   120    39    38    1
   121   108   109    1
   122   108   110    1
   123    31    28    1
   124    80    79    1
   125    80    81    2
   126    79    78    1
   127    30    29    2
   128    27    28    1
   129    38    37    1
   130    28    29    1
   131    36    37    1
   132    36    33    1
   133    12    13    1
   134    12     9    1
   135    13    14   ar
   136    13    15   ar
   137    32    33    1
   138     9    10    1
   139     9     8    1
   140    26    24    1
   141    14    16   ar
   142    15    17   ar
   143    33    34    1
   144    25    24    1
   145    11    10    2
   146    35    34    2
   147    16    18   ar
   148    17    18   ar
   149    24    21    1
   150    18    19    1
   151     7     5    1
   152     6     5    1
   153     5     2    1
   154    21    20    1
   155    21    22    1
   156    22    23    2
   157     4     3    2
   158     2     3    1
   159     2     1    1
