@<TRIPOS>MOLECULE
tmp/3gcdA00.pdb
 162 156 0 0 0
SMALL
GASTEIGER

@<TRIPOS>ATOM
      1  N         -8.7380   21.1310  -42.0270 N.3     1  LYS1       -0.1245
      2  CA        -7.9380   20.9040  -43.2700 C.3     1  LYS1        0.1561
      3  C         -6.6980   21.7790  -43.2690 C.2     1  LYS1        0.2260
      4  O         -6.7410   22.9360  -43.6810 O.2     1  LYS1       -0.2867
      5  CB        -8.7570   21.1880  -44.5340 C.3     1  LYS1        0.0271
      6  CG        -9.7010   20.0740  -44.9050 C.3     1  LYS1        0.0035
      7  CD        -8.9610   18.7750  -45.0410 C.3     1  LYS1        0.0206
      8  CE        -9.9160   17.5710  -44.8900 C.3     1  LYS1        0.1093
      9  NZ        -9.1790   16.2670  -44.9780 N.3     1  LYS1       -0.1314
     10  N         -7.0550   13.4490  -48.2960 N.3    40  VAL40      -0.1231
     11  CA        -8.2200   13.3050  -49.1940 C.3    40  VAL40       0.1692
     12  C         -7.8630   13.6200  -50.6560 C.2    40  VAL40       0.2591
     13  O         -8.1660   12.8610  -51.5680 O.2    40  VAL40      -0.2718
     14  CB        -9.4170   14.1950  -48.7120 C.3    40  VAL40       0.0266
     15  CG1      -10.5450   14.2180  -49.7250 C.3    40  VAL40       0.0020
     16  CG2       -9.9300   13.6970  -47.3760 C.3    40  VAL40       0.0020
     17  N         -7.2010   14.7520  -50.8590 N.am   41  VAL41      -0.1980
     18  CA        -6.7940   15.1860  -52.1790 C.3    41  VAL41       0.1595
     19  C         -5.8960   14.1590  -52.8430 C.2    41  VAL41       0.2287
     20  O         -5.9980   13.9330  -54.0460 O.2    41  VAL41      -0.2864
     21  CB        -6.0720   16.5490  -52.0910 C.3    41  VAL41       0.0276
     22  CG1       -5.3760   16.8990  -53.3970 C.3    41  VAL41       0.0022
     23  CG2       -7.0770   17.6320  -51.6810 C.3    41  VAL41       0.0022
     24  N         -5.8340   10.8320  -52.3370 N.3    43  LYS43      -0.1231
     25  CA        -6.6260    9.6660  -52.7370 C.3    43  LYS43       0.1693
     26  C         -7.5290    9.9700  -53.9210 C.2    43  LYS43       0.2591
     27  O         -7.7070    9.1320  -54.7920 O.2    43  LYS43      -0.2718
     28  CB        -7.4650    9.1350  -51.5590 C.3    43  LYS43       0.0285
     29  CG        -6.7400    8.1520  -50.6290 C.3    43  LYS43       0.0035
     30  CD        -7.3610    8.2120  -49.2310 C.3    43  LYS43       0.0206
     31  CE        -6.6240    7.3330  -48.2360 C.3    43  LYS43       0.1093
     32  NZ        -6.7970    7.8460  -46.8460 N.3    43  LYS43      -0.1314
     33  N         -8.1150   11.1600  -53.9480 N.am   44  ALA44      -0.1980
     34  CA        -8.9700   11.5480  -55.0780 C.3    44  ALA44       0.1597
     35  C         -8.1320   11.6270  -56.3490 C.2    44  ALA44       0.2287
     36  O         -8.5710   11.2340  -57.4350 O.2    44  ALA44      -0.2864
     37  CB        -9.6370   12.9030  -54.8020 C.3    44  ALA44       0.0319
     38  N         -7.4500    8.0210  -57.2460 N.3    47  ASN47      -0.1240
     39  CA        -8.6430    7.3770  -57.7650 C.3    47  ASN47       0.1653
     40  C         -8.9320    7.7960  -59.1890 C.2    47  ASN47       0.2266
     41  O         -9.3420    6.9740  -59.9920 O.2    47  ASN47      -0.2867
     42  CB        -9.8480    7.6770  -56.8750 C.3    47  ASN47       0.1155
     43  CG        -9.7620    6.9790  -55.5230 C.2    47  ASN47       0.2627
     44  OD1       -8.8230    6.2250  -55.2460 O.2    47  ASN47      -0.2716
     45  ND2      -10.7360    7.2420  -54.6710 N.am   47  ASN47      -0.0877
     46  N         -6.5810   18.7300  -58.7010 N.3    86  VAL86      -0.1231
     47  CA        -7.2270   18.2110  -57.5120 C.3    86  VAL86       0.1692
     48  C         -6.7850   18.9890  -56.2810 C.2    86  VAL86       0.2593
     49  O         -5.5820   19.1450  -56.0050 O.2    86  VAL86      -0.2718
     50  CB        -6.9400   16.7050  -57.3290 C.3    86  VAL86       0.0266
     51  CG1       -7.7700   16.1490  -56.2160 C.3    86  VAL86       0.0020
     52  CG2       -7.2060   15.9410  -58.6550 C.3    86  VAL86       0.0020
     53  N         -7.7650   19.5000  -55.5530 N.am   87  GLY87      -0.1942
     54  CA        -7.4680   20.2190  -54.3280 C.3    87  GLY87       0.2014
     55  C         -8.7050   20.6680  -53.5840 C.2    87  GLY87       0.2639
     56  O         -9.8320   20.5250  -54.0700 O.2    87  GLY87      -0.2714
     57  N         -8.4900   21.2360  -52.4010 N.am   88  HIS88      -0.1959
     58  CA        -9.6000   21.7540  -51.6290 C.3    88  HIS88       0.1787
     59  C         -9.9430   23.1900  -52.0350 C.2    88  HIS88       0.2620
     60  O         -9.0860   24.0840  -52.0220 O.2    88  HIS88      -0.2715
     61  CB        -9.2860   21.6800  -50.1270 C.3    88  HIS88       0.0785
     62  CG        -9.3850   20.2970  -49.5540 C.ar   88  HIS88       0.0821
     63  ND1      -10.5940   19.6500  -49.3630 N.ar   88  HIS88      -0.2267
     64  CD2       -8.4290   19.4460  -49.1160 C.ar   88  HIS88       0.1154
     65  CE1      -10.3730   18.4540  -48.8500 C.ar   88  HIS88       0.1986
     66  NE2       -9.0680   18.3070  -48.6820 N.ar   88  HIS88      -0.2212
     67  N        -11.2030   23.4120  -52.4010 N.am   89  GLY89      -0.1954
     68  CA       -11.6870   24.7810  -52.6150 C.3    89  GLY89       0.1869
     69  C        -11.9690   25.3500  -51.2340 C.2    89  GLY89       0.2309
     70  O        -12.5130   24.6340  -50.3800 O.2    89  GLY89      -0.2863
     71  N        -16.3370   29.7160  -53.6080 N.3    97  ASN97      -0.1240
     72  CA       -14.9450   29.7050  -53.1510 C.3    97  ASN97       0.1653
     73  C        -14.0160   30.5510  -54.0060 C.2    97  ASN97       0.2266
     74  O        -14.2130   30.6960  -55.2190 O.2    97  ASN97      -0.2867
     75  CB       -14.4230   28.2760  -53.0790 C.3    97  ASN97       0.1155
     76  CG       -14.8760   27.5520  -51.8270 C.2    97  ASN97       0.2627
     77  OD1      -14.9720   28.1520  -50.7440 O.2    97  ASN97      -0.2716
     78  ND2      -15.1500   26.2510  -51.9570 N.am   97  ASN97      -0.0877
     79  N        -11.1050   19.9100  -59.9690 N.3   135  VAL135     -0.1231
     80  CA       -11.7080   18.9860  -59.0240 C.3   135  VAL135      0.1692
     81  C        -11.5580   19.5260  -57.6080 C.2   135  VAL135      0.2593
     82  O        -10.7010   19.0860  -56.8370 O.2   135  VAL135     -0.2718
     83  CB       -11.1210   17.5530  -59.1470 C.3   135  VAL135      0.0266
     84  CG1      -11.8370   16.6090  -58.2120 C.3   135  VAL135      0.0020
     85  CG2      -11.2620   17.0350  -60.5760 C.3   135  VAL135      0.0020
     86  N        -12.3900   20.5140  -57.2890 N.am  136  GLY136     -0.1942
     87  CA       -12.4240   21.1040  -55.9640 C.3   136  GLY136      0.2014
     88  C        -13.8240   21.6500  -55.7820 C.2   136  GLY136      0.2639
     89  O        -14.5230   21.8640  -56.7760 O.2   136  GLY136     -0.2714
     90  N        -14.2290   21.8670  -54.5280 N.am  137  CYS137     -0.1953
     91  CA       -15.5980   22.2790  -54.2010 C.3   137  CYS137      0.1843
     92  C        -15.9790   23.6850  -54.6260 C.2   137  CYS137      0.2626
     93  O        -15.3330   24.6540  -54.2410 O.2   137  CYS137     -0.2714
     94  CB       -15.8380   22.2220  -52.6870 C.3   137  CYS137      0.0997
     95  SG       -16.1130   20.5540  -52.0070 S.3   137  CYS137     -0.0797
     96  N        -17.0520   23.7700  -55.4070 N.am  138  SER138     -0.1950
     97  CA       -17.6490   25.0390  -55.8240 C.3   138  SER138      0.1924
     98  C        -16.8060   26.2690  -56.1660 C.2   138  SER138      0.2314
     99  O        -16.8460   27.2920  -55.4660 O.2   138  SER138     -0.2863
    100  CB       -18.6940   25.4680  -54.8030 C.3   138  SER138      0.2116
    101  OG       -18.1680   25.3470  -53.5070 O.3   138  SER138     -0.2180
    102  N        -20.7130   21.4650  -53.8270 N.3   171  GLU171     -0.1231
    103  CA       -19.8470   20.5460  -53.1070 C.3   171  GLU171      0.1699
    104  C        -19.4140   19.4220  -54.0490 C.2   171  GLU171      0.2592
    105  O        -20.1880   18.9980  -54.8950 O.2   171  GLU171     -0.2718
    106  CB       -20.6130   19.9520  -51.9250 C.3   171  GLU171      0.0402
    107  CG       -19.7760   19.6750  -50.6840 C.3   171  GLU171      0.1161
    108  CD       -20.1780   20.5360  -49.4810 C.2   171  GLU171      0.3649
    109  OE1      -19.7710   20.2110  -48.3380 O.co2 171  GLU171     -0.2457
    110  OE2      -20.9010   21.5340  -49.6730 O.co2 171  GLU171     -0.2457
    111  N        -18.2010   18.9060  -53.8870 N.am  172  LEU172     -0.1966
    112  CA       -17.6130   17.8780  -54.7660 C.3   172  LEU172      0.1728
    113  C        -16.8860   16.7530  -54.0700 C.2   172  LEU172      0.2616
    114  O        -16.2590   16.9520  -53.0900 O.2   172  LEU172     -0.2715
    115  CB       -16.6890   18.5250  -55.7980 C.3   172  LEU172      0.0311
    116  CG       -16.2790   17.7940  -57.0670 C.3   172  LEU172      0.0022
    117  CD1      -15.1280   18.4340  -57.7200 C.3   172  LEU172      0.0001
    118  CD2      -15.9100   16.4660  -56.7380 C.3   172  LEU172      0.0001
    119  N        -16.9500   15.5760  -54.6530 N.am  173  ALA173     -0.1963
    120  CA       -16.6520   14.2950  -54.0230 C.3   173  ALA173      0.1728
    121  C        -16.2650   13.2500  -55.0640 C.2   173  ALA173      0.2616
    122  O        -16.9870   13.0330  -56.0370 O.2   173  ALA173     -0.2715
    123  CB       -17.8430   13.8170  -53.2060 C.3   173  ALA173      0.0334
    124  N        -15.1210   12.6070  -54.8540 N.am  174  VAL174     -0.1963
    125  CA       -14.6350   11.5970  -55.7750 C.3   174  VAL174      0.1727
    126  C        -14.7010   10.2080  -55.1190 C.2   174  VAL174      0.2616
    127  O        -14.1060   10.0020  -54.0660 O.2   174  VAL174     -0.2715
    128  CB       -13.1810   11.8850  -56.1980 C.3   174  VAL174      0.0290
    129  CG1      -12.6820   10.8390  -57.1770 C.3   174  VAL174      0.0023
    130  CG2      -13.0500   13.2900  -56.7690 C.3   174  VAL174      0.0023
    131  N        -15.4150    9.2680  -55.7470 N.am  175  ASP175     -0.1971
    132  CA       -15.5110    7.8910  -55.2280 C.3   175  ASP175      0.1709
    133  C        -14.3180    7.0120  -55.5900 C.2   175  ASP175      0.2293
    134  O        -13.3860    7.4460  -56.2710 O.2   175  ASP175     -0.2864
    135  CB       -16.8150    7.2090  -55.6520 C.3   175  ASP175      0.1436
    136  CG       -16.8930    6.9460  -57.1500 C.2   175  ASP175      0.3671
    137  OD1      -15.8430    6.6770  -57.7860 O.co2 175  ASP175     -0.2456
    138  OD2      -18.0220    6.9980  -57.6860 O.co2 175  ASP175     -0.2456
    139  N        -19.0160   13.2200  -57.7710 N.3   181  HIS181     -0.1241
    140  CA       -20.3720   13.3790  -57.2520 C.3   181  HIS181      0.1621
    141  C        -20.5360   14.8050  -56.7580 C.2   181  HIS181      0.2264
    142  O        -19.6490   15.3310  -56.0860 O.2   181  HIS181     -0.2867
    143  CB       -20.6300   12.4040  -56.1040 C.3   181  HIS181      0.0745
    144  CG       -20.3720   10.9710  -56.4610 C.ar  181  HIS181      0.0817
    145  ND1      -21.3840   10.0440  -56.5960 N.ar  181  HIS181     -0.2268
    146  CD2      -19.2170   10.3080  -56.7160 C.ar  181  HIS181      0.1154
    147  CE1      -20.8660    8.8700  -56.9110 C.ar  181  HIS181      0.1986
    148  NE2      -19.5520    9.0010  -56.9890 N.ar  181  HIS181     -0.2212
    149  N        -25.9070   13.5150  -52.1950 N.3   189  TRP189     -0.1241
    150  CA       -24.9530   13.3340  -53.2840 C.3   189  TRP189      0.1605
    151  C        -25.6010   12.6970  -54.4960 C.2   189  TRP189      0.2264
    152  O        -26.3560   11.7390  -54.3650 O.2   189  TRP189     -0.2867
    153  CB       -23.7770   12.4860  -52.8280 C.3   189  TRP189      0.0550
    154  CG       -22.9400   13.1830  -51.8450 C.ar  189  TRP189      0.0003
    155  CD1      -23.0100   13.0660  -50.4980 C.ar  189  TRP189      0.0946
    156  CD2      -21.9070   14.1410  -52.1170 C.ar  189  TRP189      0.0152
    157  NE1      -22.0810   13.8840  -49.9050 N.ar  189  TRP189     -0.2442
    158  CE2      -21.3900   14.5570  -50.8800 C.ar  189  TRP189      0.0810
    159  CE3      -21.3730   14.6910  -53.2890 C.ar  189  TRP189      0.0012
    160  CZ2      -20.3530   15.4910  -50.7760 C.ar  189  TRP189      0.0191
    161  CZ3      -20.3460   15.6170  -53.1850 C.ar  189  TRP189      0.0001
    162  CH2      -19.8470   16.0060  -51.9370 C.ar  189  TRP189      0.0015
@<TRIPOS>BOND
     1    85    83    1
     2    41    40    2
     3    79    80    1
     4    40    39    1
     5    83    80    1
     6    83    84    1
     7    80    81    1
     8    46    47    1
     9    52    50    1
    10   137   136   ar
    11   139   140    1
    12    39    38    1
    13    39    42    1
    14   117   116    1
    15   138   136   ar
    16    81    86   am
    17    81    82    2
    18    47    50    1
    19    47    48    1
    20    36    35    2
    21    50    51    1
    22    86    87    1
    23   140   141    1
    24   140   143    1
    25   129   128    1
    26   136   135    1
    27   116   118    1
    28   116   115    1
    29   148   147   ar
    30   148   146   ar
    31   147   145   ar
    32    42    43    1
    33    89    88    2
    34   130   128    1
    35   141   142    2
    36   146   144   ar
    37   145   144   ar
    38   144   143    1
    39    35    34    1
    40    48    49    2
    41    48    53   am
    42   134   133    2
    43   128   125    1
    44    98    97    1
    45    98    99    2
    46   122   121    2
    47    87    88    1
    48    97    96    1
    49    97   100    1
    50   115   112    1
    51    88    90   am
    52   125   126    1
    53   125   124    1
    54   131   132    1
    55   131   126   am
    56   135   132    1
    57   133   132    1
    58    53    54    1
    59    43    44    2
    60    43    45   am
    61    96    92   am
    62    74    73    2
    63   126   127    2
    64    34    37    1
    65    34    33    1
    66   121   124   am
    67   121   120    1
    68   105   104    2
    69   100   101    1
    70    27    26    2
    71   112   113    1
    72   112   111    1
    73   119   113   am
    74   119   120    1
    75    92    93    2
    76    92    91    1
    77    90    91    1
    78   151   152    2
    79   151   150    1
    80    54    55    1
    81    91    94    1
    82   113   114    2
    83    56    55    2
    84   104   111   am
    85   104   103    1
    86    20    19    2
    87   120   123    1
    88    73    72    1
    89    33    26   am
    90    26    25    1
    91   102   103    1
    92    71    72    1
    93    55    57   am
    94    22    21    1
    95   159   161   ar
    96   159   156   ar
    97   150   153    1
    98   150   149    1
    99   161   162   ar
   100    72    75    1
   101   103   106    1
   102    75    76    1
   103    19    18    1
   104   153   154    1
   105    25    24    1
   106    25    28    1
   107    94    95    1
   108    68    67    1
   109    68    69    1
   110    57    58    1
   111    67    59   am
   112    18    21    1
   113    18    17    1
   114   156   154   ar
   115   156   158   ar
   116    21    23    1
   117    59    60    2
   118    59    58    1
   119    78    76   am
   120   162   160   ar
   121   106   107    1
   122   154   155   ar
   123    76    77    2
   124    58    61    1
   125    13    12    2
   126    28    29    1
   127    69    70    2
   128   158   160   ar
   129   158   157   ar
   130    17    12   am
   131   107   108    1
   132    12    11    1
   133    29    30    1
   134   155   157   ar
   135    61    62    1
   136    15    14    1
   137   110   108   ar
   138    62    63   ar
   139    62    64   ar
   140   108   109   ar
   141    63    65   ar
   142    30    31    1
   143    11    14    1
   144    11    10    1
   145    64    66   ar
   146    65    66   ar
   147    14    16    1
   148    31    32    1
   149     7     6    1
   150     7     8    1
   151     9     8    1
   152     6     5    1
   153     5     2    1
   154     4     3    2
   155     2     3    1
   156     2     1    1
