@<TRIPOS>MOLECULE
tmp/3gchC01.pdb
 96 94 0 0 0
SMALL
GASTEIGER

@<TRIPOS>ATOM
      1  N         40.5240   85.1310   94.8590 N.3    39  SER39      -0.1202
      2  CA        40.2500   83.8030   94.3920 C.3    39  SER39       0.2020
      3  C         39.6930   83.7900   92.9630 C.2    39  SER39       0.2619
      4  O         38.7510   84.5020   92.5930 O.2    39  SER39      -0.2717
      5  CB        39.4130   82.9650   95.3390 C.3    39  SER39       0.2103
      6  OG        39.6200   81.5500   95.1080 O.3    39  SER39      -0.2182
      7  N         40.3580   82.9220   92.1770 N.am   40  SER40      -0.1937
      8  CA        39.8560   82.6690   90.7820 C.3    40  SER40       0.2055
      9  C         38.5370   81.9350   91.0570 C.2    40  SER40       0.2643
     10  O         38.3090   81.5890   92.2690 O.2    40  SER40      -0.2714
     11  CB        40.8300   81.9670   89.9030 C.3    40  SER40       0.2130
     12  OG        41.8950   82.8270   89.4590 O.3    40  SER40      -0.2179
     13  N         37.7010   81.7570   90.0610 N.am   41  CYS41      -0.1953
     14  CA        36.3670   81.1200   90.4080 C.3    41  CYS41       0.1843
     15  C         35.6650   80.7060   89.1340 C.2    41  CYS41       0.2625
     16  O         36.3470   80.7350   88.0970 O.2    41  CYS41      -0.2714
     17  CB        35.6010   82.0270   91.3320 C.3    41  CYS41       0.0997
     18  SG        34.2290   81.3750   92.2540 S.3    41  CYS41      -0.0797
     19  N         34.4890   80.1580   89.2860 N.am   42  MET42      -0.1963
     20  CA        33.6990   79.6280   88.1930 C.3    42  MET42       0.1736
     21  C         33.6160   80.6690   87.0640 C.2    42  MET42       0.2617
     22  O         33.2330   81.8160   87.4010 O.2    42  MET42      -0.2715
     23  CB        32.2700   79.1680   88.5670 C.3    42  MET42       0.0427
     24  CG        32.4240   77.9140   89.3940 C.3    42  MET42       0.0599
     25  SD        33.0110   78.2370   91.0470 S.3    42  MET42      -0.1393
     26  CE        31.4970   78.7750   91.8300 C.3    42  MET42       0.0692
     27  N         33.9020   80.1610   85.8720 N.am   43  GLY43      -0.1955
     28  CA        33.8510   81.0690   84.6980 C.3    43  GLY43       0.1869
     29  C         35.2030   81.6660   84.4090 C.2    43  GLY43       0.2309
     30  O         35.4170   82.1770   83.2790 O.2    43  GLY43      -0.2863
     31  N         37.9610   79.9630   84.2830 N.3    45  SER45      -0.1217
     32  CA        38.7890   79.0180   83.5640 C.3    45  SER45       0.1889
     33  C         39.0340   79.2580   82.0940 C.2    45  SER45       0.2288
     34  O         38.2210   79.8160   81.3890 O.2    45  SER45      -0.2866
     35  CB        38.4440   77.5740   83.7640 C.3    45  SER45       0.2089
     36  OG        38.8100   77.2570   85.1130 O.3    45  SER45      -0.2183
     37  N         44.0250   79.3920   84.5370 N.3    63  VAL63      -0.1231
     38  CA        43.0560   78.9920   85.6240 C.3    63  VAL63       0.1692
     39  C         42.5250   77.6030   85.2360 C.2    63  VAL63       0.2593
     40  O         42.1060   77.4480   84.0420 O.2    63  VAL63      -0.2718
     41  CB        41.9520   80.0230   85.8240 C.3    63  VAL63       0.0266
     42  CG1       41.2110   79.9030   87.1370 C.3    63  VAL63       0.0020
     43  CG2       42.4900   81.4260   85.5840 C.3    63  VAL63       0.0020
     44  N         42.6910   76.6670   86.1070 N.am   64  SER64      -0.1938
     45  CA        42.2420   75.3250   85.9180 C.3    64  SER64       0.2055
     46  C         41.3040   74.9480   87.0330 C.2    64  SER64       0.2643
     47  O         40.1380   74.7020   86.6020 O.2    64  SER64      -0.2714
     48  CB        43.3130   74.3410   85.5070 C.3    64  SER64       0.2130
     49  OG        43.4480   73.2600   86.3620 O.3    64  SER64      -0.2179
     50  N         41.6500   75.0450   88.3100 N.am   65  TRP65      -0.1959
     51  CA        40.7540   74.5640   89.3880 C.3    65  TRP65       0.1771
     52  C         41.1930   75.0250   90.7590 C.2    65  TRP65       0.2620
     53  O         42.2430   75.6770   91.0140 O.2    65  TRP65      -0.2715
     54  CB        40.7940   73.0240   89.2810 C.3    65  TRP65       0.0590
     55  CG        41.9940   72.2350   89.5970 C.ar   65  TRP65       0.0006
     56  CD1       42.9310   71.7390   88.7100 C.ar   65  TRP65       0.0946
     57  CD2       42.4310   71.7600   90.8900 C.ar   65  TRP65       0.0152
     58  NE1       43.9060   71.0590   89.3620 N.ar   65  TRP65      -0.2442
     59  CE2       43.6300   71.0380   90.7100 C.ar   65  TRP65       0.0810
     60  CE3       41.9730   71.9330   92.2100 C.ar   65  TRP65       0.0012
     61  CZ2       44.3380   70.4600   91.7860 C.ar   65  TRP65       0.0191
     62  CZ3       42.6480   71.3660   93.2490 C.ar   65  TRP65       0.0001
     63  CH2       43.8190   70.6630   93.0540 C.ar   65  TRP65       0.0015
     64  N         40.4310   74.5710   91.7690 N.am   66  GLY66      -0.1940
     65  CA        40.6890   74.7820   93.2040 C.3    66  GLY66       0.2014
     66  C         39.4030   74.6680   94.0320 C.2    66  GLY66       0.2640
     67  O         38.4470   73.9650   93.6880 O.2    66  GLY66      -0.2714
     68  N         39.3520   75.4200   95.0980 N.am   67  SER67      -0.1935
     69  CA        38.1810   75.4850   95.9930 C.3    67  SER67       0.2055
     70  C         36.7950   75.3590   95.3770 C.2    67  SER67       0.2643
     71  O         36.4470   76.1330   94.4280 O.2    67  SER67      -0.2714
     72  CB        38.1530   76.9290   96.5780 C.3    67  SER67       0.2130
     73  OG        37.7950   76.8090   97.9430 O.3    67  SER67      -0.2179
     74  N         35.9790   74.5710   96.0500 N.am   68  SER68      -0.1949
     75  CA        34.5640   74.3890   95.5730 C.3    68  SER68       0.1924
     76  C         33.7790   75.6680   95.7430 C.2    68  SER68       0.2314
     77  O         32.8680   76.1430   95.0640 O.2    68  SER68      -0.2863
     78  CB        34.0210   73.1440   96.2050 C.3    68  SER68       0.2116
     79  OG        33.2110   73.0680   97.3180 O.3    68  SER68      -0.2180
     80  N         35.4070   78.7940   96.1920 N.3    70  CYS70      -0.1235
     81  CA        36.3220   79.8800   95.8080 C.3    70  CYS70       0.1677
     82  C         36.9260   80.5890   97.0140 C.2    70  CYS70       0.2270
     83  O         36.8040   81.8350   97.1030 O.2    70  CYS70      -0.2867
     84  CB        35.5330   80.8680   94.9340 C.3    70  CYS70       0.0956
     85  SG        34.7710   79.9770   93.5550 S.3    70  CYS70      -0.0801
     86  N         44.5160   78.9750   94.4300 N.3    76  GLY76      -0.1210
     87  CA        43.9670   78.3950   93.1600 C.3    76  GLY76       0.1956
     88  C         45.1090   77.5710   92.5100 C.2    76  GLY76       0.2611
     89  O         46.3090   77.6980   92.7820 O.2    76  GLY76      -0.2717
     90  N         44.7780   76.7590   91.5450 N.am   77  VAL77      -0.1979
     91  CA        45.6380   75.8750   90.7670 C.3    77  VAL77       0.1595
     92  C         45.3850   76.1060   89.2720 C.2    77  VAL77       0.2287
     93  O         44.2930   75.9890   88.7260 O.2    77  VAL77      -0.2864
     94  CB        45.5620   74.4300   91.2490 C.3    77  VAL77       0.0276
     95  CG1       46.5810   73.5110   90.5790 C.3    77  VAL77       0.0022
     96  CG2       45.5570   74.2990   92.7600 C.3    77  VAL77       0.0022
@<TRIPOS>BOND
     1    34    33    2
     2    33    32    1
     3    30    29    2
     4    32    35    1
     5    32    31    1
     6    35    36    1
     7    40    39    2
     8    29    28    1
     9    37    38    1
    10    28    27    1
    11    39    38    1
    12    39    44   am
    13    48    45    1
    14    48    49    1
    15    43    41    1
    16    38    41    1
    17    41    42    1
    18    27    21   am
    19    45    44    1
    20    45    46    1
    21    47    46    2
    22    46    50   am
    23    21    22    2
    24    21    20    1
    25    16    15    2
    26    20    23    1
    27    20    19    1
    28    50    51    1
    29    23    24    1
    30    56    58   ar
    31    56    55   ar
    32    93    92    2
    33    15    19   am
    34    15    14    1
    35    92    91    1
    36    54    51    1
    37    54    55    1
    38    58    59   ar
    39    51    52    1
    40    24    25    1
    41    12    11    1
    42    55    57   ar
    43    11     8    1
    44    13    14    1
    45    13     9   am
    46    14    17    1
    47    95    94    1
    48    59    57   ar
    49    59    61   ar
    50    52    53    2
    51    52    64   am
    52    91    94    1
    53    91    90    1
    54     8     9    1
    55     8     7    1
    56    57    60   ar
    57    25    26    1
    58     9    10    2
    59    94    96    1
    60    17    18    1
    61    90    88   am
    62    64    65    1
    63    61    63   ar
    64     7     3   am
    65    60    62   ar
    66    18    85    1
    67    88    89    2
    68    88    87    1
    69     4     3    2
    70     3     2    1
    71    63    62   ar
    72    87    86    1
    73    65    66    1
    74    85    84    1
    75    67    66    2
    76    66    68   am
    77     2     1    1
    78     2     5    1
    79    71    70    2
    80    84    81    1
    81    77    76    2
    82    68    69    1
    83     6     5    1
    84    70    69    1
    85    70    74   am
    86    75    76    1
    87    75    74    1
    88    75    78    1
    89    81    80    1
    90    81    82    1
    91    69    72    1
    92    78    79    1
    93    72    73    1
    94    82    83    2
