@<TRIPOS>MOLECULE
tmp/3gciA00.pdb
 184 184 0 0 0
SMALL
GASTEIGER

@<TRIPOS>ATOM
      1  N        -13.6670   -1.1160  -10.1130 N.3     1  ASN1       -0.1225
      2  CA       -13.1110    0.2320  -10.4620 C.3     1  ASN1        0.1785
      3  C        -13.5680    1.2940   -9.4500 C.2     1  ASN1        0.2597
      4  O        -14.3910    1.0050   -8.5750 O.2     1  ASN1       -0.2718
      5  CB       -13.4160    0.6130  -11.9290 C.3     1  ASN1        0.1169
      6  CG       -14.9050    0.8380  -12.1930 C.2     1  ASN1        0.2627
      7  OD1      -15.6250    1.3640  -11.3470 O.2     1  ASN1       -0.2716
      8  ND2      -15.3680    0.4330  -13.3800 N.am    1  ASN1       -0.0877
      9  N        -13.0260    2.5050   -9.5340 N.am    2  LEU2       -0.1966
     10  CA       -13.3450    3.5310   -8.5200 C.3     2  LEU2        0.1728
     11  C        -14.8270    3.9250   -8.4840 C.2     2  LEU2        0.2616
     12  O        -15.3710    4.1520   -7.4150 O.2     2  LEU2       -0.2715
     13  CB       -12.4590    4.7700   -8.6790 C.3     2  LEU2        0.0311
     14  CG       -11.3720    4.9490   -7.6130 C.3     2  LEU2        0.0022
     15  CD1      -10.8240    3.5970   -7.0900 C.3     2  LEU2        0.0001
     16  CD2      -10.2360    5.8180   -8.1440 C.3     2  LEU2        0.0001
     17  N        -15.4610    4.0090   -9.6570 N.am    3  TYR3       -0.1974
     18  CA       -16.9090    4.2210   -9.7590 C.3     3  TYR3        0.1639
     19  C        -17.6930    3.1670   -8.9350 C.2     3  TYR3        0.2290
     20  O        -18.6070    3.5110   -8.1810 O.2     3  TYR3       -0.2864
     21  CB       -17.3410    4.2010  -11.2340 C.3     3  TYR3        0.0560
     22  CG       -18.8390    4.2750  -11.4330 C.ar    3  TYR3       -0.0198
     23  CD1      -19.5180    5.4910  -11.3290 C.ar    3  TYR3       -0.0009
     24  CD2      -19.5810    3.1230  -11.7020 C.ar    3  TYR3       -0.0009
     25  CE1      -20.9090    5.5550  -11.4890 C.ar    3  TYR3        0.0417
     26  CE2      -20.9600    3.1800  -11.8670 C.ar    3  TYR3        0.0417
     27  CZ       -21.6160    4.3960  -11.7610 C.ar    3  TYR3        0.1957
     28  OH       -22.9860    4.4420  -11.9200 O.3     3  TYR3       -0.2866
     29  N        -16.4560    1.1780   -6.4720 N.3     5  PHE5       -0.1227
     30  CA       -16.1080    1.3270   -5.0500 C.3     5  PHE5        0.1736
     31  C        -16.9260    2.4690   -4.4140 C.2     5  PHE5        0.2595
     32  O        -17.4080    2.3330   -3.2930 O.2     5  PHE5       -0.2718
     33  CB       -14.6010    1.5650   -4.8920 C.3     5  PHE5        0.0547
     34  CG       -14.1380    1.7360   -3.4620 C.ar    5  PHE5       -0.0202
     35  CD1      -14.5630    0.8660   -2.4560 C.ar    5  PHE5       -0.0042
     36  CD2      -13.2230    2.7450   -3.1400 C.ar    5  PHE5       -0.0042
     37  CE1      -14.1220    1.0230   -1.1500 C.ar    5  PHE5       -0.0003
     38  CE2      -12.7680    2.9080   -1.8480 C.ar    5  PHE5       -0.0003
     39  CZ       -13.2130    2.0450   -0.8420 C.ar    5  PHE5       -0.0000
     40  N        -17.0590    3.5500   -5.1730 N.am    6  LYS6       -0.1980
     41  CA       -17.9010    4.6990   -4.8950 C.3     6  LYS6        0.1596
     42  C        -19.3180    4.2040   -4.4920 C.2     6  LYS6        0.2287
     43  O        -19.8610    4.5510   -3.4490 O.2     6  LYS6       -0.2864
     44  CB       -17.9860    5.5320   -6.1720 C.3     6  LYS6        0.0298
     45  CG       -18.3920    6.9950   -6.0390 C.3     6  LYS6        0.0038
     46  CD       -19.8380    7.2270   -6.4780 C.3     6  LYS6        0.0206
     47  CE       -19.9770    7.7610   -7.9040 C.3     6  LYS6        0.1093
     48  NZ       -21.4150    7.9480   -8.2790 N.3     6  LYS6       -0.1314
     49  N        -19.6680    2.0960   -1.2330 N.3     9  ILE9       -0.1245
     50  CA       -19.7270    2.9750   -0.0520 C.3     9  ILE9        0.1561
     51  C        -21.1320    3.5670    0.1190 C.2     9  ILE9        0.2260
     52  O        -21.6700    3.5660    1.2250 O.2     9  ILE9       -0.2867
     53  CB       -18.6660    4.1070   -0.1000 C.3     9  ILE9        0.0252
     54  CG1      -17.2500    3.5200   -0.2050 C.3     9  ILE9        0.0019
     55  CG2      -18.7610    4.9950    1.1430 C.3     9  ILE9        0.0019
     56  CD1      -16.1970    4.5330   -0.6580 C.3     9  ILE9        0.0001
     57  N        -19.6220   10.1850   -0.4600 N.3    18  TRP18      -0.1241
     58  CA       -18.3580    9.4710   -0.8000 C.3    18  TRP18       0.1605
     59  C        -17.0780   10.3200   -0.7290 C.2    18  TRP18       0.2264
     60  O        -16.0010    9.7880   -0.4490 O.2    18  TRP18      -0.2867
     61  CB       -18.4920    8.8410   -2.1930 C.3    18  TRP18       0.0550
     62  CG       -18.3860    9.8120   -3.3440 C.ar   18  TRP18       0.0003
     63  CD1      -19.4070   10.5230   -3.9190 C.ar   18  TRP18       0.0946
     64  CD2      -17.1970   10.1680   -4.0590 C.ar   18  TRP18       0.0152
     65  NE1      -18.9210   11.3080   -4.9440 N.ar   18  TRP18      -0.2442
     66  CE2      -17.5690   11.1080   -5.0510 C.ar   18  TRP18       0.0810
     67  CE3      -15.8520    9.7900   -3.9540 C.ar   18  TRP18       0.0012
     68  CZ2      -16.6400   11.6740   -5.9330 C.ar   18  TRP18       0.0191
     69  CZ3      -14.9270   10.3520   -4.8310 C.ar   18  TRP18       0.0001
     70  CH2      -15.3270   11.2840   -5.8080 C.ar   18  TRP18       0.0015
     71  N        -14.7420   10.3340    2.3430 N.3    21  PHE21      -0.1227
     72  CA       -13.7490    9.2690    2.4790 C.3    21  PHE21       0.1736
     73  C        -12.6100    9.4390    1.4810 C.2    21  PHE21       0.2595
     74  O        -11.6340    8.6930    1.5140 O.2    21  PHE21      -0.2718
     75  CB       -14.4080    7.8910    2.2810 C.3    21  PHE21       0.0547
     76  CG       -15.5700    7.6160    3.2140 C.ar   21  PHE21      -0.0202
     77  CD1      -15.3530    7.0860    4.4870 C.ar   21  PHE21      -0.0042
     78  CD2      -16.8810    7.8730    2.8120 C.ar   21  PHE21      -0.0042
     79  CE1      -16.4200    6.8320    5.3480 C.ar   21  PHE21      -0.0003
     80  CE2      -17.9530    7.6160    3.6650 C.ar   21  PHE21      -0.0003
     81  CZ       -17.7210    7.0980    4.9390 C.ar   21  PHE21      -0.0000
     82  N        -12.7350   10.4260    0.5970 N.am   22  ALA22      -0.1980
     83  CA       -11.7950   10.5960   -0.5090 C.3    22  ALA22       0.1597
     84  C        -10.5420   11.3870   -0.1360 C.2    22  ALA22       0.2287
     85  O         -9.6170   11.4860   -0.9350 O.2    22  ALA22      -0.2864
     86  CB       -12.4860   11.2320   -1.6890 C.3    22  ALA22       0.0319
     87  N         -4.2090    7.6630    4.7230 N.3    27  TYR27      -0.1227
     88  CA        -4.4220    6.5730    3.7550 C.3    27  TYR27       0.1736
     89  C         -5.6710    6.6780    2.8590 C.2    27  TYR27       0.2596
     90  O         -5.6740    6.1290    1.7520 O.2    27  TYR27      -0.2718
     91  CB        -4.3380    5.2080    4.4560 C.3    27  TYR27       0.0548
     92  CG        -2.9310    4.8910    4.8790 C.ar   27  TYR27      -0.0200
     93  CD1       -2.4660    5.2790    6.1290 C.ar   27  TYR27      -0.0009
     94  CD2       -2.0510    4.2410    4.0160 C.ar   27  TYR27      -0.0009
     95  CE1       -1.1550    5.0280    6.5170 C.ar   27  TYR27       0.0417
     96  CE2       -0.7250    3.9710    4.4050 C.ar   27  TYR27       0.0417
     97  CZ        -0.2950    4.3750    5.6560 C.ar   27  TYR27       0.1957
     98  OH         0.9950    4.1290    6.0650 O.3    27  TYR27      -0.2866
     99  N         -6.7110    7.3710    3.3080 N.am   28  CYS28      -0.1956
    100  CA        -7.9530    7.4680    2.5180 C.3    28  CYS28       0.1843
    101  C         -7.8640    8.4600    1.3660 C.2    28  CYS28       0.2626
    102  O         -7.7890    9.6690    1.5880 O.2    28  CYS28      -0.2714
    103  CB        -9.1460    7.8170    3.4010 C.3    28  CYS28       0.0997
    104  SG        -9.3760    6.7550    4.7780 S.3    28  CYS28      -0.0797
    105  N         -7.8810    7.9400    0.1400 N.am   29  GLY29      -0.1940
    106  CA        -7.7380    8.7590   -1.0610 C.3    29  GLY29       0.2014
    107  C         -6.3240    8.7500   -1.5960 C.2    29  GLY29       0.2638
    108  O         -5.7110    7.6900   -1.7090 O.2    29  GLY29      -0.2714
    109  N         -5.7820    9.9250   -1.9080 N.am   30  LYS30      -0.1977
    110  CA        -4.4060   10.0110   -2.4250 C.3    30  LYS30       0.1596
    111  C         -3.3840    9.1710   -1.6310 C.2    30  LYS30       0.2287
    112  O         -2.9710    8.0880   -2.0770 O.2    30  LYS30      -0.2864
    113  CB        -3.9240   11.4720   -2.5440 C.3    30  LYS30       0.0298
    114  CG        -2.5550   11.6040   -3.2550 C.3    30  LYS30       0.0038
    115  CD        -2.1430   13.0610   -3.5130 C.3    30  LYS30       0.0206
    116  CE        -0.9580   13.1500   -4.4900 C.3    30  LYS30       0.1093
    117  NZ        -0.7990   14.5250   -5.0760 N.3    30  LYS30      -0.1314
    118  N         -8.5210    2.2390    5.3880 N.3    44  CYS44      -0.1235
    119  CA        -7.9400    2.6950    4.1370 C.3    44  CYS44       0.1677
    120  C         -6.5440    2.1590    3.9000 C.2    44  CYS44       0.2270
    121  O         -6.1790    1.8740    2.7610 O.2    44  CYS44      -0.2867
    122  CB        -7.9480    4.2150    4.0770 C.3    44  CYS44       0.0956
    123  SG        -9.6150    4.8670    4.0190 S.3    44  CYS44      -0.0801
    124  N         -6.9320   -1.3400    2.7280 N.3    47  HIS47      -0.1226
    125  CA        -7.4240   -1.2040    1.3500 C.3    47  HIS47       0.1752
    126  C         -6.3170   -0.8560    0.3450 C.2    47  HIS47       0.2596
    127  O         -6.2150   -1.4900   -0.7050 O.2    47  HIS47      -0.2718
    128  CB        -8.5570   -0.1620    1.3090 C.3    47  HIS47       0.0759
    129  CG        -9.2490   -0.0730   -0.0160 C.ar   47  HIS47       0.0818
    130  ND1       -9.1760    1.0470   -0.8220 N.ar   47  HIS47      -0.2268
    131  CD2      -10.0210   -0.9650   -0.6820 C.ar   47  HIS47       0.1154
    132  CE1       -9.8730    0.8380   -1.9260 C.ar   47  HIS47       0.1986
    133  NE2      -10.3930   -0.3740   -1.8690 N.ar   47  HIS47      -0.2212
    134  N         -5.5050    0.1550    0.6620 N.am   48  ASP48      -0.1974
    135  CA        -4.3290    0.5120   -0.1440 C.3    48  ASP48       0.1709
    136  C         -3.3270   -0.6500   -0.3470 C.2    48  ASP48       0.2293
    137  O         -2.8700   -0.8800   -1.4580 O.2    48  ASP48      -0.2864
    138  CB        -3.5860    1.7090    0.4770 C.3    48  ASP48       0.1436
    139  CG        -4.4590    2.9740    0.5880 C.2    48  ASP48       0.3671
    140  OD1       -5.5160    3.0750   -0.0850 O.co2  48  ASP48      -0.2456
    141  OD2       -4.0680    3.8910    1.3470 O.co2  48  ASP48      -0.2456
    142  N         -4.8250   -3.3050   -2.7140 N.3    51  TYR51      -0.1241
    143  CA        -4.6240   -2.8960   -4.0920 C.3    51  TYR51       0.1605
    144  C         -3.1990   -3.1650   -4.5750 C.2    51  TYR51       0.2264
    145  O         -3.0240   -3.6220   -5.6870 O.2    51  TYR51      -0.2867
    146  CB        -4.9580   -1.4180   -4.2700 C.3    51  TYR51       0.0534
    147  CG        -6.4120   -1.0870   -4.5920 C.ar   51  TYR51      -0.0201
    148  CD1       -7.4640   -1.9680   -4.2850 C.ar   51  TYR51      -0.0009
    149  CD2       -6.7350    0.1350   -5.1610 C.ar   51  TYR51      -0.0009
    150  CE1       -8.7980   -1.6370   -4.5780 C.ar   51  TYR51       0.0417
    151  CE2       -8.0780    0.4790   -5.4490 C.ar   51  TYR51       0.0417
    152  CZ        -9.0900   -0.4020   -5.1580 C.ar   51  TYR51       0.1957
    153  OH       -10.3900   -0.0250   -5.4520 O.3    51  TYR51      -0.2866
    154  N         -7.8660    0.3750   -9.9140 N.3    63  LYS63      -0.1231
    155  CA        -8.6990    1.5690  -10.0770 C.3    63  LYS63       0.1693
    156  C         -9.5270    1.5130  -11.3540 C.2    63  LYS63       0.2592
    157  O        -10.5360    2.1930  -11.4680 O.2    63  LYS63      -0.2718
    158  CB        -7.8560    2.8550   -9.9910 C.3    63  LYS63       0.0285
    159  CG        -7.5480    3.1800   -8.5230 C.3    63  LYS63       0.0035
    160  CD        -6.2810    3.9600   -8.2970 C.3    63  LYS63       0.0206
    161  CE        -5.9630    3.9400   -6.7950 C.3    63  LYS63       0.1093
    162  NZ        -5.8440    5.3250   -6.2270 N.3    63  LYS63      -0.1314
    163  N         -9.1110    0.6750  -12.2930 N.am   64  PHE64      -0.1976
    164  CA        -9.7610    0.6170  -13.5960 C.3    64  PHE64       0.1639
    165  C        -10.4940   -0.6890  -13.8670 C.2    64  PHE64       0.2290
    166  O        -11.3770   -0.7120  -14.7120 O.2    64  PHE64      -0.2864
    167  CB        -8.7500    0.9270  -14.7050 C.3    64  PHE64       0.0560
    168  CG        -8.1250    2.2770  -14.5680 C.ar   64  PHE64      -0.0200
    169  CD1       -8.8380    3.4190  -14.9110 C.ar   64  PHE64      -0.0042
    170  CD2       -6.8390    2.4170  -14.0560 C.ar   64  PHE64      -0.0042
    171  CE1       -8.2830    4.6900  -14.7510 C.ar   64  PHE64      -0.0003
    172  CE2       -6.2630    3.6900  -13.9070 C.ar   64  PHE64      -0.0003
    173  CZ        -6.9920    4.8240  -14.2510 C.ar   64  PHE64      -0.0000
    174  N        -15.4950    0.7530    6.5880 N.3   100  PHE100     -0.1241
    175  CA       -15.9370    2.1420    6.6630 C.3   100  PHE100      0.1605
    176  C        -17.2340    2.2630    7.4770 C.2   100  PHE100      0.2264
    177  O        -17.3990    3.2030    8.2570 O.2   100  PHE100     -0.2867
    178  CB       -16.1840    2.7100    5.2560 C.3   100  PHE100      0.0534
    179  CG       -14.9330    2.9610    4.4370 C.ar  100  PHE100     -0.0203
    180  CD1      -13.6860    2.4860    4.8350 C.ar  100  PHE100     -0.0042
    181  CD2      -15.0290    3.6430    3.2290 C.ar  100  PHE100     -0.0042
    182  CE1      -12.5580    2.7030    4.0550 C.ar  100  PHE100     -0.0003
    183  CE2      -13.9100    3.8770    2.4460 C.ar  100  PHE100     -0.0003
    184  CZ       -12.6660    3.4010    2.8580 C.ar  100  PHE100     -0.0000
@<TRIPOS>BOND
     1   169   171   ar
     2   169   168   ar
     3   171   173   ar
     4   166   165    2
     5   167   168    1
     6   167   164    1
     7   168   170   ar
     8   173   172   ar
     9   170   172   ar
    10   165   164    1
    11   164   163    1
    12     8     6   am
    13   163   156   am
    14     6     5    1
    15     6     7    2
    16     5     2    1
    17    28    27    1
    18    26    27   ar
    19    26    24   ar
    20    27    25   ar
    21    24    22   ar
    22    25    23   ar
    23   157   156    2
    24    22    23   ar
    25    22    21    1
    26   156   155    1
    27    21    18    1
    28     2     1    1
    29     2     3    1
    30   155   158    1
    31   155   154    1
    32   158   159    1
    33    18    17    1
    34    18    19    1
    35    17    11   am
    36     9     3   am
    37     9    10    1
    38     3     4    2
    39    19    20    2
    40    13    10    1
    41    13    14    1
    42   159   160    1
    43    10    11    1
    44    11    12    2
    45   160   161    1
    46    48    47    1
    47    16    14    1
    48    47    46    1
    49    14    15    1
    50   161   162    1
    51    46    45    1
    52    29    30    1
    53    44    45    1
    54    44    41    1
    55    68    70   ar
    56    68    66   ar
    57    70    69   ar
    58   145   144    2
    59   153   152    1
    60   151   149   ar
    61   151   152   ar
    62    40    41    1
    63    40    31   am
    64   149   147   ar
    65   152   150   ar
    66   117   116    1
    67    66    65   ar
    68    66    64   ar
    69    30    33    1
    70    30    31    1
    71    65    63   ar
    72    41    42    1
    73    33    34    1
    74    69    67   ar
    75   147   148   ar
    76   147   146    1
    77   150   148   ar
    78   144   143    1
    79    42    43    2
    80   116   115    1
    81    31    32    2
    82   146   143    1
    83   143   142    1
    84    64    67   ar
    85    64    62   ar
    86    63    62   ar
    87   115   114    1
    88    34    36   ar
    89    34    35   ar
    90    62    61    1
    91   114   113    1
    92    36    38   ar
    93   113   110    1
    94    35    37   ar
    95   110   109    1
    96   110   111    1
    97    61    58    1
    98   112   111    2
    99   132   133   ar
   100   132   130   ar
   101   109   107   am
   102   133   131   ar
   103    38    39   ar
   104   108   107    2
   105    86    83    1
   106   107   106    1
   107   137   136    2
   108    49    50    1
   109    37    39   ar
   110   106   105    1
   111    85    84    2
   112   130   129   ar
   113    58    59    1
   114    58    57    1
   115    59    60    2
   116   127   126    2
   117   131   129   ar
   118    56    54    1
   119    83    84    1
   120    83    82    1
   121   136   135    1
   122    54    53    1
   123   135   138    1
   124   135   134    1
   125    53    50    1
   126    53    55    1
   127   140   139   ar
   128    50    51    1
   129   129   128    1
   130    51    52    2
   131   105   101   am
   132   126   134   am
   133   126   125    1
   134   138   139    1
   135   139   141   ar
   136    82    73   am
   137   128   125    1
   138   125   124    1
   139   101   102    2
   140   101   100    1
   141    73    74    2
   142    73    72    1
   143    90    89    2
   144    75    72    1
   145    75    76    1
   146    71    72    1
   147   183   184   ar
   148   183   181   ar
   149   100    99    1
   150   100   103    1
   151   121   120    2
   152    78    76   ar
   153    78    80   ar
   154   184   182   ar
   155    89    99   am
   156    89    88    1
   157    76    77   ar
   158   181   179   ar
   159   103   104    1
   160    80    81   ar
   161    88    91    1
   162    88    87    1
   163   120   119    1
   164    94    96   ar
   165    94    92   ar
   166   123   122    1
   167   123   104    1
   168   182   180   ar
   169   122   119    1
   170   119   118    1
   171    96    97   ar
   172   179   180   ar
   173   179   178    1
   174    91    92    1
   175    77    79   ar
   176    92    93   ar
   177    81    79   ar
   178   178   175    1
   179    97    98    1
   180    97    95   ar
   181    93    95   ar
   182   174   175    1
   183   175   176    1
   184   176   177    2
