@<TRIPOS>MOLECULE
tmp/3gckA04.pdb
 106 104 0 0 0
SMALL
GASTEIGER

@<TRIPOS>ATOM
      1  N         15.6820    2.0900   15.6310 N.3   105  GLN105     -0.1245
      2  CA        14.7550    2.1830   16.7430 C.3   105  GLN105      0.1566
      3  C         13.3900    1.6690   16.3230 C.2   105  GLN105      0.2260
      4  O         12.6940    1.0110   17.0860 O.2   105  GLN105     -0.2867
      5  CB        14.6420    3.6160   17.2920 C.3   105  GLN105      0.0367
      6  CG        14.5810    3.6700   18.8020 C.3   105  GLN105      0.0905
      7  CD        13.6080    4.6720   19.4130 C.2   105  GLN105      0.2608
      8  OE1       13.3480    5.7210   18.8350 O.2   105  GLN105     -0.2717
      9  NE2       12.9620    4.5350   20.5540 N.am  105  GLN105     -0.0878
     10  N         13.7260   -2.3690   16.3040 N.3   108  ASP108     -0.1225
     11  CA        13.7840   -2.9570   17.6940 C.3   108  ASP108      0.1805
     12  C         12.3820   -2.8120   18.3390 C.2   108  ASP108      0.2597
     13  O         12.0340   -3.5820   19.2190 O.2   108  ASP108     -0.2718
     14  CB        14.9370   -2.2440   18.5600 C.3   108  ASP108      0.1424
     15  CG        15.0720   -2.4070   20.0880 C.2   108  ASP108      0.3668
     16  OD1       14.2530   -1.7900   20.7880 O.co2 108  ASP108     -0.2456
     17  OD2       15.9840   -3.1260   20.5510 O.co2 108  ASP108     -0.2456
     18  N         11.5840   -1.8240   17.8770 N.am  109  HIS109     -0.1975
     19  CA        10.2150   -1.6170   18.4320 C.3   109  HIS109      0.1656
     20  C          9.1510   -2.5100   17.8120 C.2   109  HIS109      0.2291
     21  O          8.1910   -2.9200   18.4460 O.2   109  HIS109     -0.2864
     22  CB         9.7110   -0.2180   18.1680 C.3   109  HIS109      0.0771
     23  CG        10.2280    0.7110   19.2570 C.ar  109  HIS109      0.0820
     24  ND1        9.9840    2.0660   19.2750 N.ar  109  HIS109     -0.2267
     25  CD2       10.9970    0.4190   20.3390 C.ar  109  HIS109      0.1154
     26  CE1       10.5800    2.5710   20.3230 C.ar  109  HIS109      0.1986
     27  NE2       11.2010    1.6110   20.9830 N.ar  109  HIS109     -0.2212
     28  N          8.9690   -6.0010   23.1610 N.3   113  PHE113     -0.1241
     29  CA         8.5210   -5.1240   24.2150 C.3   113  PHE113      0.1605
     30  C          8.2630   -5.8730   25.5000 C.2   113  PHE113      0.2264
     31  O          7.4720   -6.8070   25.5790 O.2   113  PHE113     -0.2867
     32  CB         7.2650   -4.3620   23.8050 C.3   113  PHE113      0.0534
     33  CG         6.9030   -3.2440   24.7490 C.ar  113  PHE113     -0.0203
     34  CD1        7.8990   -2.5170   25.4060 C.ar  113  PHE113     -0.0042
     35  CD2        5.5740   -2.8930   24.9620 C.ar  113  PHE113     -0.0042
     36  CE1        7.5790   -1.4560   26.2580 C.ar  113  PHE113     -0.0003
     37  CE2        5.2430   -1.8350   25.8090 C.ar  113  PHE113     -0.0003
     38  CZ         6.2500   -1.1140   26.4590 C.ar  113  PHE113     -0.0000
     39  N          5.6460    3.3650   22.8320 N.3   254  ARG254     -0.1245
     40  CA         6.8740    4.1380   22.9600 C.3   254  ARG254      0.1563
     41  C          7.0780    5.1810   21.8630 C.2   254  ARG254      0.2260
     42  O          8.0560    5.9350   21.8770 O.2   254  ARG254     -0.2867
     43  CB         8.0720    3.1870   23.0250 C.3   254  ARG254      0.0307
     44  CG         7.7940    2.0230   23.9730 C.3   254  ARG254      0.0489
     45  CD         8.7160    0.8430   23.7510 C.3   254  ARG254      0.2205
     46  NE         8.3880    0.0960   22.5410 N.pl3 254  ARG254     -0.0865
     47  CZ         9.0300   -0.9990   22.1450 C.cat 254  ARG254      0.5346
     48  NH1       10.0410   -1.4730   22.8640 N.pl3 254  ARG254      0.1354
     49  NH2        8.6580   -1.6230   21.0360 N.pl3 254  ARG254      0.1354
     50  N          8.7170    8.5260   23.1610 N.3   257  GLU257     -0.1245
     51  CA         9.9940    8.7730   23.9810 C.3   257  GLU257      0.1567
     52  C         10.6570    9.9770   23.4410 C.2   257  GLU257      0.2260
     53  O         11.1600   10.8350   24.1800 O.2   257  GLU257     -0.2867
     54  CB        11.1560    7.6800   23.9450 C.3   257  GLU257      0.0388
     55  CG        12.4870    8.0160   24.7000 C.3   257  GLU257      0.1160
     56  CD        13.7900    7.5340   24.0680 C.2   257  GLU257      0.3649
     57  OE1       13.7020    6.8990   23.0050 O.co2 257  GLU257     -0.2457
     58  OE2       14.8660    7.8050   24.6300 O.co2 257  GLU257     -0.2457
     59  N         21.8530    2.2700   21.0940 N.3   350  HIS350     -0.1241
     60  CA        21.9610    3.3410   22.0870 C.3   350  HIS350      0.1621
     61  C         23.2600    4.1280   22.0190 C.2   350  HIS350      0.2264
     62  O         23.3390    5.2380   22.5400 O.2   350  HIS350     -0.2867
     63  CB        21.7670    2.7740   23.4980 C.3   350  HIS350      0.0745
     64  CG        20.3660    2.3210   23.7690 C.ar  350  HIS350      0.0817
     65  ND1       19.9990    1.6670   24.9250 N.ar  350  HIS350     -0.2268
     66  CD2       19.2380    2.4320   23.0250 C.ar  350  HIS350      0.1154
     67  CE1       18.7060    1.3920   24.8810 C.ar  350  HIS350      0.1986
     68  NE2       18.2220    1.8460   23.7370 N.ar  350  HIS350     -0.2212
     69  N          9.6070   12.6120   25.2440 N.3   380  PHE380     -0.1241
     70  CA         8.1670   12.8100   25.3890 C.3   380  PHE380      0.1605
     71  C          7.7750   14.2330   25.0580 C.2   380  PHE380      0.2264
     72  O          6.9600   14.8510   25.7550 O.2   380  PHE380     -0.2867
     73  CB         7.7640   12.4570   26.8150 C.3   380  PHE380      0.0534
     74  CG         8.0480   11.0490   27.1540 C.ar  380  PHE380     -0.0203
     75  CD1        7.3230   10.0370   26.5470 C.ar  380  PHE380     -0.0042
     76  CD2        9.0930   10.7200   28.0000 C.ar  380  PHE380     -0.0042
     77  CE1        7.6370    8.7140   26.7710 C.ar  380  PHE380     -0.0003
     78  CE2        9.4130    9.3980   28.2300 C.ar  380  PHE380     -0.0003
     79  CZ         8.6840    8.3970   27.6120 C.ar  380  PHE380     -0.0000
     80  N         14.6050   10.9660   30.9030 N.3   421  PHE421     -0.1227
     81  CA        13.3230   11.1940   31.5640 C.3   421  PHE421      0.1736
     82  C         12.4050    9.9860   31.3770 C.2   421  PHE421      0.2595
     83  O         12.2580    9.4970   30.2660 O.2   421  PHE421     -0.2718
     84  CB        12.6730   12.4500   30.9730 C.3   421  PHE421      0.0547
     85  CG        11.2390   12.6520   31.3750 C.ar  421  PHE421     -0.0202
     86  CD1       10.8970   13.5580   32.3670 C.ar  421  PHE421     -0.0042
     87  CD2       10.2220   11.9650   30.7210 C.ar  421  PHE421     -0.0042
     88  CE1        9.5530   13.7770   32.6930 C.ar  421  PHE421     -0.0003
     89  CE2        8.8850   12.1750   31.0390 C.ar  421  PHE421     -0.0003
     90  CZ         8.5490   13.0800   32.0200 C.ar  421  PHE421     -0.0000
     91  N         11.7950    9.5090   32.4600 N.am  422  GLN422     -0.1966
     92  CA        10.8870    8.3560   32.3970 C.3   422  GLN422      0.1718
     93  C          9.4400    8.8300   32.5520 C.2   422  GLN422      0.2458
     94  O          9.1750    9.7750   33.2920 O.2   422  GLN422     -0.2730
     95  CB        11.2160    7.3500   33.5110 C.3   422  GLN422      0.0407
     96  CG        12.6010    6.7130   33.4080 C.3   422  GLN422      0.0908
     97  CD        12.5980    5.4010   32.6410 C.2   422  GLN422      0.2608
     98  OE1       12.5110    4.3250   33.2310 O.2   422  GLN422     -0.2717
     99  NE2       12.6840    5.4870   31.3190 N.am  422  GLN422     -0.0878
    100  N          8.4850    8.1750   31.8590 N.am  423  PRO423     -0.2727
    101  CA         7.0550    8.5220   31.9080 C.3   423  PRO423      0.1402
    102  C          6.4500    8.4450   33.3120 C.2   423  PRO423      0.2269
    103  O          5.6890    9.3210   33.7300 O.2   423  PRO423     -0.2865
    104  CB         6.4090    7.4900   30.9840 C.3   423  PRO423      0.0296
    105  CG         7.5060    7.0970   30.0660 C.3   423  PRO423      0.0237
    106  CD         8.7090    7.0310   30.9570 C.3   423  PRO423      0.0939
@<TRIPOS>BOND
     1     1     2    1
     2    10    11    1
     3     3     2    1
     4     3     4    2
     5     2     5    1
     6     5     6    1
     7    11    12    1
     8    11    14    1
     9    20    19    1
    10    20    21    2
    11    18    12   am
    12    18    19    1
    13    22    19    1
    14    22    23    1
    15    12    13    2
    16    14    15    1
    17     6     7    1
    18     8     7    2
    19    23    24   ar
    20    23    25   ar
    21    24    26   ar
    22     7     9   am
    23    15    17   ar
    24    15    16   ar
    25    26    27   ar
    26    25    27   ar
    27    49    47    1
    28    59    60    1
    29    41    42    2
    30    41    40    1
    31    61    60    1
    32    61    62    2
    33    60    63    1
    34    47    46    2
    35    47    48    1
    36    46    45    1
    37    39    40    1
    38    40    43    1
    39    57    56   ar
    40    43    44    1
    41    66    68   ar
    42    66    64   ar
    43    28    29    1
    44    50    51    1
    45    52    51    1
    46    52    53    2
    47    63    64    1
    48    68    67   ar
    49    45    44    1
    50    64    65   ar
    51    32    29    1
    52    32    33    1
    53    54    51    1
    54    54    55    1
    55    56    58   ar
    56    56    55    1
    57    29    30    1
    58    33    35   ar
    59    33    34   ar
    60    67    65   ar
    61    35    37   ar
    62    71    70    1
    63    71    72    2
    64    69    70    1
    65    70    73    1
    66    34    36   ar
    67    30    31    2
    68    37    38   ar
    69    36    38   ar
    70    75    77   ar
    71    75    74   ar
    72    77    79   ar
    73    73    74    1
    74    74    76   ar
    75    79    78   ar
    76    76    78   ar
    77   105   106    1
    78   105   104    1
    79    83    82    2
    80    87    89   ar
    81    87    85   ar
    82    80    81    1
    83   106   100    1
    84    84    85    1
    85    84    81    1
    86   104   101    1
    87    89    90   ar
    88    99    97   am
    89    85    86   ar
    90    82    81    1
    91    82    91   am
    92   100   101    1
    93   100    93   am
    94   101   102    1
    95    90    88   ar
    96    86    88   ar
    97    92    91    1
    98    92    93    1
    99    92    95    1
   100    93    94    2
   101    97    98    2
   102    97    96    1
   103   102   103    2
   104    96    95    1
