@<TRIPOS>MOLECULE
tmp/3gcmA01.pdb
 119 112 0 0 0
SMALL
GASTEIGER

@<TRIPOS>ATOM
      1  N        -20.1330   -1.6640   21.8270 N.3   379  TYR379     -0.1241
      2  CA       -20.1630   -0.6380   22.8630 C.3   379  TYR379      0.1605
      3  C        -21.3970   -0.8530   23.7370 C.2   379  TYR379      0.2264
      4  O        -22.5300   -0.8300   23.2480 O.2   379  TYR379     -0.2867
      5  CB       -20.1570    0.7440   22.1900 C.3   379  TYR379      0.0534
      6  CG       -20.4910    1.9510   23.0460 C.ar  379  TYR379     -0.0201
      7  CD1      -19.4930    2.8280   23.4710 C.ar  379  TYR379     -0.0009
      8  CD2      -21.8120    2.2480   23.3810 C.ar  379  TYR379     -0.0009
      9  CE1      -19.8020    3.9520   24.2360 C.ar  379  TYR379      0.0417
     10  CE2      -22.1300    3.3600   24.1460 C.ar  379  TYR379      0.0417
     11  CZ       -21.1230    4.2080   24.5690 C.ar  379  TYR379      0.1957
     12  OH       -21.4460    5.3090   25.3240 O.3   379  TYR379     -0.2866
     13  N        -23.5740    0.3240   27.1790 N.3   381  PHE381     -0.1241
     14  CA       -23.8510    1.4260   28.0950 C.3   381  PHE381      0.1605
     15  C        -24.9140    0.9920   29.1110 C.2   381  PHE381      0.2264
     16  O        -26.1090    1.2100   28.8930 O.2   381  PHE381     -0.2867
     17  CB       -24.3120    2.6600   27.3080 C.3   381  PHE381      0.0534
     18  CG       -24.3030    3.9390   28.1040 C.ar  381  PHE381     -0.0203
     19  CD1      -23.1990    4.7850   28.0710 C.ar  381  PHE381     -0.0042
     20  CD2      -25.4060    4.3100   28.8700 C.ar  381  PHE381     -0.0042
     21  CE1      -23.1900    5.9720   28.7970 C.ar  381  PHE381     -0.0003
     22  CE2      -25.4060    5.4930   29.6010 C.ar  381  PHE381     -0.0003
     23  CZ       -24.2960    6.3260   29.5640 C.ar  381  PHE381     -0.0000
     24  N        -28.5120    3.9640   20.2660 N.3   398  ARG398     -0.1245
     25  CA       -27.4440    4.8650   20.6800 C.3   398  ARG398      0.1563
     26  C        -26.1410    4.1060   20.9130 C.2   398  ARG398      0.2260
     27  O        -25.0600    4.5950   20.5860 O.2   398  ARG398     -0.2867
     28  CB       -27.8430    5.6230   21.9480 C.3   398  ARG398      0.0307
     29  CG       -26.8360    6.6740   22.3860 C.3   398  ARG398      0.0489
     30  CD       -27.4410    7.6260   23.4050 C.3   398  ARG398      0.2205
     31  NE       -28.2980    8.6270   22.7770 N.pl3 398  ARG398     -0.0865
     32  CZ       -28.7410    9.7210   23.3880 C.cat 398  ARG398      0.5346
     33  NH1      -29.5170   10.5780   22.7380 N.pl3 398  ARG398      0.1354
     34  NH2      -28.4080    9.9600   24.6490 N.pl3 398  ARG398      0.1354
     35  N        -22.6070    4.6990   18.8450 N.3   402  HIS402     -0.1241
     36  CA       -21.3500    5.0020   19.5340 C.3   402  HIS402      0.1621
     37  C        -20.3120    3.8970   19.3710 C.2   402  HIS402      0.2264
     38  O        -19.1070    4.1560   19.4320 O.2   402  HIS402     -0.2867
     39  CB       -21.5900    5.2960   21.0170 C.3   402  HIS402      0.0745
     40  CG       -22.4220    6.5160   21.2640 C.ar  402  HIS402      0.0817
     41  ND1      -22.9630    6.8110   22.4960 N.ar  402  HIS402     -0.2268
     42  CD2      -22.8180    7.5080   20.4320 C.ar  402  HIS402      0.1154
     43  CE1      -23.6460    7.9390   22.4150 C.ar  402  HIS402      0.1986
     44  NE2      -23.5770    8.3800   21.1730 N.ar  402  HIS402     -0.2212
     45  N        -18.9310    4.7330   15.9520 N.3   405  LEU405     -0.1245
     46  CA       -18.0980    5.9330   16.0520 C.3   405  LEU405      0.1561
     47  C        -16.7090    5.6160   16.6060 C.2   405  LEU405      0.2260
     48  O        -15.7020    6.1080   16.0900 O.2   405  LEU405     -0.2867
     49  CB       -18.7880    7.0000   16.9110 C.3   405  LEU405      0.0270
     50  CG       -18.0070    8.2710   17.2680 C.3   405  LEU405      0.0019
     51  CD1      -17.6990    9.1130   16.0340 C.3   405  LEU405      0.0001
     52  CD2      -18.7780    9.0800   18.2910 C.3   405  LEU405      0.0001
     53  N        -20.1430    7.3120   33.3860 N.3   433  SER433     -0.1217
     54  CA       -20.4050    8.2860   32.3330 C.3   433  SER433      0.1889
     55  C        -20.5210    9.6960   32.9010 C.2   433  SER433      0.2288
     56  O        -21.3280    9.9510   33.7950 O.2   433  SER433     -0.2866
     57  CB       -21.6810    7.9190   31.5710 C.3   433  SER433      0.2089
     58  OG       -21.5380    8.1760   30.1850 O.3   433  SER433     -0.2183
     59  N        -19.6280   12.2100   30.0110 N.3   435  GLY435     -0.1210
     60  CA       -19.0750   12.7920   28.8020 C.3   435  GLY435      0.1956
     61  C        -17.7240   12.2060   28.4410 C.2   435  GLY435      0.2613
     62  O        -17.1020   11.5130   29.2460 O.2   435  GLY435     -0.2717
     63  N        -17.2690   12.4870   27.2240 N.am  436  SER436     -0.1938
     64  CA       -17.5870   11.6480   26.0750 C.3   436  SER436      0.2055
     65  C        -17.1610   10.2030   26.3120 C.2   436  SER436      0.2644
     66  O        -16.0000    9.9300   26.6150 O.2   436  SER436     -0.2714
     67  CB       -16.9170   12.1940   24.8120 C.3   436  SER436      0.2130
     68  OG       -17.0880   11.3070   23.7200 O.3   436  SER436     -0.2179
     69  N        -18.1090    9.2820   26.1710 N.am  437  SER437     -0.1935
     70  CA       -17.8760    7.8850   26.5180 C.3   437  SER437      0.2055
     71  C        -17.3700    7.0950   25.3150 C.2   437  SER437      0.2643
     72  O        -16.6070    6.1410   25.4630 O.2   437  SER437     -0.2714
     73  CB       -19.1560    7.2480   27.0640 C.3   437  SER437      0.2130
     74  OG       -20.2650    7.5350   26.2300 O.3   437  SER437     -0.2179
     75  N        -17.8010    7.4990   24.1240 N.am  438  SER438     -0.1949
     76  CA       -17.2640    6.9820   22.9270 C.3   438  SER438      0.1924
     77  C        -15.8300    7.3160   22.6510 C.2   438  SER438      0.2314
     78  O        -15.1650    6.5670   22.0620 O.2   438  SER438     -0.2863
     79  CB       -18.1740    7.2380   21.7400 C.3   438  SER438      0.2116
     80  OG       -18.0730    8.5430   21.3080 O.3   438  SER438     -0.2180
     81  N        -21.3790   16.1530   30.9520 N.3   482  GLY482     -0.1225
     82  CA       -22.7340   15.8600   30.4870 C.3   482  GLY482      0.1811
     83  C        -23.6150   17.0970   30.4840 C.2   482  GLY482      0.2280
     84  O        -24.4110   17.2980   29.5640 O.2   482  GLY482     -0.2866
     85  N        -22.8380   19.4730   27.6020 N.3   485  ASP485     -0.1225
     86  CA       -23.3620   18.9430   26.3470 C.3   485  ASP485      0.1805
     87  C        -24.8430   19.2850   26.1960 C.2   485  ASP485      0.2597
     88  O        -25.2710   19.7600   25.1420 O.2   485  ASP485     -0.2718
     89  CB       -23.1560   17.4230   26.2830 C.3   485  ASP485      0.1424
     90  CG       -23.5720   16.8210   24.9440 C.2   485  ASP485      0.3668
     91  OD1      -23.5460   17.5350   23.9170 O.co2 485  ASP485     -0.2456
     92  OD2      -23.9150   15.6200   24.9190 O.co2 485  ASP485     -0.2456
     93  N        -25.6120   19.0480   27.2580 N.am  486  HIS486     -0.1975
     94  CA       -27.0640   19.2340   27.2350 C.3   486  HIS486      0.1656
     95  C        -27.4810   20.7040   27.2440 C.2   486  HIS486      0.2291
     96  O        -28.4670   21.0760   26.6030 O.2   486  HIS486     -0.2864
     97  CB       -27.7250   18.4780   28.3950 C.3   486  HIS486      0.0771
     98  CG       -27.3630   17.0250   28.4550 C.ar  486  HIS486      0.0820
     99  ND1      -27.0740   16.3760   29.6360 N.ar  486  HIS486     -0.2267
    100  CD2      -27.2270   16.1010   27.4750 C.ar  486  HIS486      0.1154
    101  CE1      -26.7860   15.1120   29.3820 C.ar  486  HIS486      0.1986
    102  NE2      -26.8700   14.9200   28.0780 N.ar  486  HIS486     -0.2212
    103  N        -22.0690   18.8750   20.2320 N.3   491  ASP491     -0.1239
    104  CA       -21.1400   17.8220   20.6250 C.3   491  ASP491      0.1674
    105  C        -20.2290   17.5390   19.4320 C.2   491  ASP491      0.2266
    106  O        -20.6780   17.0720   18.3810 O.2   491  ASP491     -0.2867
    107  CB       -21.8750   16.5610   21.0880 C.3   491  ASP491      0.1410
    108  CG       -21.0770   15.7580   22.1090 C.2   491  ASP491      0.3668
    109  OD1      -19.8620   16.0100   22.2640 O.co2 491  ASP491     -0.2456
    110  OD2      -21.6650   14.8720   22.7630 O.co2 491  ASP491     -0.2456
    111  N        -16.8770   15.7440   18.2510 N.3   493  LYS493     -0.1245
    112  CA       -15.9460   14.6670   18.5960 C.3   493  LYS493      0.1561
    113  C        -14.8640   14.4480   17.5420 C.2   493  LYS493      0.2260
    114  O        -15.1580   14.2910   16.3550 O.2   493  LYS493     -0.2867
    115  CB       -16.7060   13.3650   18.8570 C.3   493  LYS493      0.0271
    116  CG       -17.7710   13.4770   19.9360 C.3   493  LYS493      0.0035
    117  CD       -18.7910   12.3680   19.8050 C.3   493  LYS493      0.0206
    118  CE       -20.1130   12.7610   20.4310 C.3   493  LYS493      0.1093
    119  NZ       -21.1950   11.7980   20.0880 N.3   493  LYS493     -0.1314
@<TRIPOS>BOND
     1    45    46    1
     2    51    50    1
     3    46    47    1
     4    46    49    1
     5    48    47    2
     6   114   113    2
     7    49    50    1
     8    50    52    1
     9   113   112    1
    10   111   112    1
    11   106   105    2
    12   112   115    1
    13    35    36    1
    14   115   116    1
    15    37    38    2
    16    37    36    1
    17   105   104    1
    18    36    39    1
    19   117   116    1
    20   117   118    1
    21   119   118    1
    22   103   104    1
    23    24    25    1
    24    42    44   ar
    25    42    40   ar
    26    27    26    2
    27   104   107    1
    28    25    26    1
    29    25    28    1
    30    39    40    1
    31   107   108    1
    32    44    43   ar
    33    40    41   ar
    34    80    79    1
    35    79    76    1
    36     1     2    1
    37    28    29    1
    38    78    77    2
    39   108   109   ar
    40   108   110   ar
    41     5     2    1
    42     5     6    1
    43    29    30    1
    44    43    41   ar
    45    77    76    1
    46    33    32    1
    47    31    32    2
    48    31    30    1
    49     2     3    1
    50    76    75    1
    51     6     8   ar
    52     6     7   ar
    53     4     3    2
    54     8    10   ar
    55    32    34    1
    56     7     9   ar
    57    68    67    1
    58    91    90   ar
    59    75    71   am
    60    10    11   ar
    61     9    11   ar
    62    11    12    1
    63    67    64    1
    64    92    90   ar
    65    90    89    1
    66    88    87    2
    67    71    72    2
    68    71    70    1
    69    64    65    1
    70    64    63    1
    71    69    65   am
    72    69    70    1
    73    87    86    1
    74    87    93   am
    75    74    73    1
    76    89    86    1
    77    65    66    2
    78    86    85    1
    79    70    73    1
    80    96    95    2
    81    13    14    1
    82    63    61   am
    83    94    95    1
    84    94    93    1
    85    94    97    1
    86    17    14    1
    87    17    18    1
    88   100   102   ar
    89   100    98   ar
    90    19    18   ar
    91    19    21   ar
    92   102   101   ar
    93    14    15    1
    94    18    20   ar
    95    97    98    1
    96    61    60    1
    97    61    62    2
    98    98    99   ar
    99    21    23   ar
   100    60    59    1
   101    20    22   ar
   102    16    15    2
   103   101    99   ar
   104    23    22   ar
   105    84    83    2
   106    58    57    1
   107    83    82    1
   108    82    81    1
   109    57    54    1
   110    54    55    1
   111    54    53    1
   112    55    56    2
