@<TRIPOS>MOLECULE
tmp/3gcmA00.pdb
 104 95 0 0 0
SMALL
GASTEIGER

@<TRIPOS>ATOM
      1  N        -30.1380    6.8140   11.9870 N.3    92  ARG92      -0.1245
      2  CA       -29.5290    7.8590   12.8080 C.3    92  ARG92       0.1563
      3  C        -28.9370    8.9870   11.9630 C.2    92  ARG92       0.2260
      4  O        -28.9170   10.1400   12.3960 O.2    92  ARG92      -0.2867
      5  CB       -28.4650    7.2680   13.7340 C.3    92  ARG92       0.0307
      6  CG       -29.0350    6.5980   14.9770 C.3    92  ARG92       0.0489
      7  CD       -27.9530    5.9080   15.7980 C.3    92  ARG92       0.2205
      8  NE       -26.9270    6.8350   16.2770 N.pl3  92  ARG92      -0.0865
      9  CZ       -26.9990    7.5330   17.4090 C.cat  92  ARG92       0.5346
     10  NH1      -28.0560    7.4230   18.2050 N.pl3  92  ARG92       0.1354
     11  NH2      -26.0070    8.3450   17.7460 N.pl3  92  ARG92       0.1354
     12  N        -31.9860   11.0890   11.3270 N.3    95  ASP95      -0.1225
     13  CA       -32.5330   11.6950   12.5460 C.3    95  ASP95       0.1805
     14  C        -31.7200   12.8860   13.0570 C.2    95  ASP95       0.2597
     15  O        -32.2910   13.9100   13.4360 O.2    95  ASP95      -0.2718
     16  CB       -32.6650   10.6320   13.6480 C.3    95  ASP95       0.1424
     17  CG       -33.2600   11.1850   14.9370 C.2    95  ASP95       0.3668
     18  OD1      -32.5430   11.8850   15.6840 O.co2  95  ASP95      -0.2456
     19  OD2      -34.4430   10.8980   15.2120 O.co2  95  ASP95      -0.2456
     20  N        -30.3970   12.7430   13.0650 N.am   96  ARG96      -0.1979
     21  CA       -29.4980   13.7350   13.6670 C.3    96  ARG96       0.1597
     22  C        -29.5660   15.1560   13.0770 C.2    96  ARG96       0.2287
     23  O        -29.5910   16.1230   13.8410 O.2    96  ARG96      -0.2864
     24  CB       -28.0550   13.2140   13.6930 C.3    96  ARG96       0.0334
     25  CG       -27.7870   12.1890   14.7920 C.3    96  ARG96       0.0492
     26  CD       -26.5760   11.3240   14.4720 C.3    96  ARG96       0.2205
     27  NE       -25.3560   12.1140   14.3210 N.pl3  96  ARG96      -0.0865
     28  CZ       -24.2440   11.6830   13.7330 C.cat  96  ARG96       0.5346
     29  NH1      -23.1930   12.4850   13.6450 N.pl3  96  ARG96       0.1354
     30  NH2      -24.1800   10.4590   13.2250 N.pl3  96  ARG96       0.1354
     31  N        -33.5840   16.6410   13.6320 N.3    99  ARG99      -0.1245
     32  CA       -34.0720   16.8070   15.0080 C.3    99  ARG99       0.1563
     33  C        -33.9990   18.2410   15.5590 C.2    99  ARG99       0.2260
     34  O        -34.9680   18.7060   16.1650 O.2    99  ARG99      -0.2867
     35  CB       -33.3700   15.8200   15.9560 C.3    99  ARG99       0.0307
     36  CG       -33.9300   15.7910   17.3760 C.3    99  ARG99       0.0489
     37  CD       -33.3580   14.6370   18.1880 C.3    99  ARG99       0.2205
     38  NE       -33.9000   13.3440   17.7690 N.pl3  99  ARG99      -0.0865
     39  CZ       -35.0120   12.7950   18.2530 C.cat  99  ARG99       0.5346
     40  NH1      -35.7250   13.4180   19.1840 N.pl3  99  ARG99       0.1354
     41  NH2      -35.4150   11.6160   17.8020 N.pl3  99  ARG99       0.1354
     42  N        -28.5120    3.9640   20.2660 N.3   398  ARG398     -0.1245
     43  CA       -27.4440    4.8650   20.6800 C.3   398  ARG398      0.1563
     44  C        -26.1410    4.1060   20.9130 C.2   398  ARG398      0.2260
     45  O        -25.0600    4.5950   20.5860 O.2   398  ARG398     -0.2867
     46  CB       -27.8430    5.6230   21.9480 C.3   398  ARG398      0.0307
     47  CG       -26.8360    6.6740   22.3860 C.3   398  ARG398      0.0489
     48  CD       -27.4410    7.6260   23.4050 C.3   398  ARG398      0.2205
     49  NE       -28.2980    8.6270   22.7770 N.pl3 398  ARG398     -0.0865
     50  CZ       -28.7410    9.7210   23.3880 C.cat 398  ARG398      0.5346
     51  NH1      -29.5170   10.5780   22.7380 N.pl3 398  ARG398      0.1354
     52  NH2      -28.4080    9.9600   24.6490 N.pl3 398  ARG398      0.1354
     53  N        -22.6070    4.6990   18.8450 N.3   402  HIS402     -0.1241
     54  CA       -21.3500    5.0020   19.5340 C.3   402  HIS402      0.1621
     55  C        -20.3120    3.8970   19.3710 C.2   402  HIS402      0.2264
     56  O        -19.1070    4.1560   19.4320 O.2   402  HIS402     -0.2867
     57  CB       -21.5900    5.2960   21.0170 C.3   402  HIS402      0.0745
     58  CG       -22.4220    6.5160   21.2640 C.ar  402  HIS402      0.0817
     59  ND1      -22.9630    6.8110   22.4960 N.ar  402  HIS402     -0.2268
     60  CD2      -22.8180    7.5080   20.4320 C.ar  402  HIS402      0.1154
     61  CE1      -23.6460    7.9390   22.4150 C.ar  402  HIS402      0.1986
     62  NE2      -23.5770    8.3800   21.1730 N.ar  402  HIS402     -0.2212
     63  N        -22.8380   19.4730   27.6020 N.3   485  ASP485     -0.1239
     64  CA       -23.3620   18.9430   26.3470 C.3   485  ASP485      0.1674
     65  C        -24.8430   19.2850   26.1960 C.2   485  ASP485      0.2266
     66  O        -25.2710   19.7600   25.1420 O.2   485  ASP485     -0.2867
     67  CB       -23.1560   17.4230   26.2830 C.3   485  ASP485      0.1410
     68  CG       -23.5720   16.8210   24.9440 C.2   485  ASP485      0.3668
     69  OD1      -23.5460   17.5350   23.9170 O.co2 485  ASP485     -0.2456
     70  OD2      -23.9150   15.6200   24.9190 O.co2 485  ASP485     -0.2456
     71  N        -22.0690   18.8750   20.2320 N.3   491  ASP491     -0.1239
     72  CA       -21.1400   17.8220   20.6250 C.3   491  ASP491      0.1674
     73  C        -20.2290   17.5390   19.4320 C.2   491  ASP491      0.2266
     74  O        -20.6780   17.0720   18.3810 O.2   491  ASP491     -0.2867
     75  CB       -21.8750   16.5610   21.0880 C.3   491  ASP491      0.1410
     76  CG       -21.0770   15.7580   22.1090 C.2   491  ASP491      0.3668
     77  OD1      -19.8620   16.0100   22.2640 O.co2 491  ASP491     -0.2456
     78  OD2      -21.6650   14.8720   22.7630 O.co2 491  ASP491     -0.2456
     79  N        -16.8770   15.7440   18.2510 N.3   493  LYS493     -0.1245
     80  CA       -15.9460   14.6670   18.5960 C.3   493  LYS493      0.1561
     81  C        -14.8640   14.4480   17.5420 C.2   493  LYS493      0.2260
     82  O        -15.1580   14.2910   16.3550 O.2   493  LYS493     -0.2867
     83  CB       -16.7060   13.3650   18.8570 C.3   493  LYS493      0.0271
     84  CG       -17.7710   13.4770   19.9360 C.3   493  LYS493      0.0035
     85  CD       -18.7910   12.3680   19.8050 C.3   493  LYS493      0.0206
     86  CE       -20.1130   12.7610   20.4310 C.3   493  LYS493      0.1093
     87  NZ       -21.1950   11.7980   20.0880 N.3   493  LYS493     -0.1314
     88  N        -16.8970   13.7170   14.1890 N.3   505  GLN505     -0.1245
     89  CA       -18.3470   13.6910   14.3340 C.3   505  GLN505      0.1566
     90  C        -18.8610   15.0020   14.9180 C.2   505  GLN505      0.2260
     91  O        -18.3570   15.4780   15.9390 O.2   505  GLN505     -0.2867
     92  CB       -18.7790   12.5190   15.2180 C.3   505  GLN505      0.0367
     93  CG       -20.2110   12.0650   14.9850 C.3   505  GLN505      0.0905
     94  CD       -20.7620   11.2260   16.1220 C.2   505  GLN505      0.2608
     95  OE1      -20.8800   11.6940   17.2550 O.2   505  GLN505     -0.2717
     96  NE2      -21.1170    9.9820   15.8210 N.am  505  GLN505     -0.0878
     97  N        -22.4920   17.0760   16.0690 N.3   507  ASP507     -0.1239
     98  CA       -23.9270   17.1470   16.3220 C.3   507  ASP507      0.1674
     99  C        -24.2670   18.5330   16.8580 C.2   507  ASP507      0.2266
    100  O        -24.1550   18.7990   18.0570 O.2   507  ASP507     -0.2867
    101  CB       -24.3730   16.0460   17.2890 C.3   507  ASP507      0.1410
    102  CG       -24.4720   14.6870   16.6200 C.2   507  ASP507      0.3668
    103  OD1      -25.3430   14.5120   15.7410 O.co2 507  ASP507     -0.2456
    104  OD2      -23.6830   13.7890   16.9830 O.co2 507  ASP507     -0.2456
@<TRIPOS>BOND
     1    12    13    1
     2     3     4    2
     3     3     2    1
     4     1     2    1
     5    13    14    1
     6    13    16    1
     7     2     5    1
     8    14    20   am
     9    14    15    2
    10    20    21    1
    11    22    21    1
    12    22    23    2
    13    30    28    1
    14    31    32    1
    15    29    28    1
    16    16    17    1
    17    21    24    1
    18    24    25    1
    19    28    27    2
    20     5     6    1
    21    88    89    1
    22    27    26    1
    23    89    90    1
    24    89    92    1
    25    26    25    1
    26    90    91    2
    27    17    19   ar
    28    17    18   ar
    29     6     7    1
    30    93    92    1
    31    93    94    1
    32    32    33    1
    33    32    35    1
    34    33    34    2
    35   103   102   ar
    36     7     8    1
    37    96    94   am
    38    35    36    1
    39    97    98    1
    40    94    95    2
    41     8     9    2
    42    98    99    1
    43    98   101    1
    44    82    81    2
    45   102   104   ar
    46   102   101    1
    47    99   100    2
    48    36    37    1
    49     9    11    1
    50     9    10    1
    51    81    80    1
    52    38    37    1
    53    38    39    2
    54    41    39    1
    55    79    80    1
    56    39    40    1
    57    74    73    2
    58    80    83    1
    59    53    54    1
    60    83    84    1
    61    55    56    2
    62    55    54    1
    63    73    72    1
    64    54    57    1
    65    85    84    1
    66    85    86    1
    67    87    86    1
    68    71    72    1
    69    42    43    1
    70    60    62   ar
    71    60    58   ar
    72    45    44    2
    73    72    75    1
    74    43    44    1
    75    43    46    1
    76    57    58    1
    77    75    76    1
    78    62    61   ar
    79    58    59   ar
    80    46    47    1
    81    76    77   ar
    82    76    78   ar
    83    47    48    1
    84    61    59   ar
    85    51    50    1
    86    49    50    2
    87    49    48    1
    88    50    52    1
    89    69    68   ar
    90    70    68   ar
    91    68    67    1
    92    66    65    2
    93    65    64    1
    94    67    64    1
    95    64    63    1
