@<TRIPOS>MOLECULE
tmp/3gcmC03.pdb
 93 87 0 0 0
SMALL
GASTEIGER

@<TRIPOS>ATOM
      1  N        -28.3530  -31.5250   42.9310 N.3   192  GLU192     -0.1245
      2  CA       -28.6730  -32.8070   42.3150 C.3   192  GLU192      0.1567
      3  C        -27.7310  -33.8630   42.8940 C.2   192  GLU192      0.2260
      4  O        -26.5600  -33.5810   43.1690 O.2   192  GLU192     -0.2867
      5  CB       -28.5780  -32.7380   40.7850 C.3   192  GLU192      0.0388
      6  CG       -27.1840  -32.9440   40.2050 C.3   192  GLU192      0.1160
      7  CD       -27.1150  -32.6450   38.7230 C.2   192  GLU192      0.3649
      8  OE1      -27.1830  -31.4550   38.3580 O.co2 192  GLU192     -0.2457
      9  OE2      -26.9730  -33.5970   37.9280 O.co2 192  GLU192     -0.2457
     10  N        -24.8550  -26.9270   23.4270 N.3   365  LEU365     -0.1245
     11  CA       -24.7750  -25.8040   24.3570 C.3   365  LEU365      0.1561
     12  C        -23.4120  -25.1230   24.2690 C.2   365  LEU365      0.2260
     13  O        -22.3900  -25.7050   24.6430 O.2   365  LEU365     -0.2867
     14  CB       -25.0590  -26.2640   25.7930 C.3   365  LEU365      0.0270
     15  CG       -26.4790  -26.7390   26.1230 C.3   365  LEU365      0.0019
     16  CD1      -26.4700  -27.6800   27.3170 C.3   365  LEU365      0.0001
     17  CD2      -27.4230  -25.5640   26.3660 C.3   365  LEU365      0.0001
     18  N        -20.7060  -28.2010   25.2020 N.3   372  ARG372     -0.1231
     19  CA       -21.2700  -29.4340   25.7300 C.3   372  ARG372      0.1694
     20  C        -22.5220  -29.7900   24.9350 C.2   372  ARG372      0.2593
     21  O        -23.3110  -28.9080   24.5890 O.2   372  ARG372     -0.2718
     22  CB       -21.6100  -29.2300   27.2090 C.3   372  ARG372      0.0321
     23  CG       -22.0520  -30.4700   27.9700 C.3   372  ARG372      0.0489
     24  CD       -22.0990  -30.2010   29.4740 C.3   372  ARG372      0.2205
     25  NE       -22.9060  -29.0280   29.8180 N.pl3 372  ARG372     -0.0865
     26  CZ       -24.2140  -29.0540   30.0660 C.cat 372  ARG372      0.5346
     27  NH1      -24.8500  -27.9310   30.3700 N.pl3 372  ARG372      0.1354
     28  NH2      -24.8890  -30.1950   30.0120 N.pl3 372  ARG372      0.1354
     29  N        -22.6970  -31.0750   24.6350 N.am  373  THR373     -0.1939
     30  CA       -23.9080  -31.5400   23.9560 C.3   373  THR373      0.2028
     31  C        -24.8380  -32.2420   24.9430 C.2   373  THR373      0.2642
     32  O        -24.4050  -33.1010   25.7160 O.2   373  THR373     -0.2714
     33  CB       -23.6040  -32.4640   22.7500 C.3   373  THR373      0.1808
     34  OG1      -23.0010  -33.6810   23.2070 O.3   373  THR373     -0.2208
     35  CG2      -22.6750  -31.7760   21.7520 C.3   373  THR373      0.0379
     36  N        -26.1150  -31.8670   24.9100 N.am  374  ASP374     -0.1971
     37  CA       -27.1040  -32.3770   25.8570 C.3   374  ASP374      0.1709
     38  C        -28.0190  -33.4190   25.2180 C.2   374  ASP374      0.2293
     39  O        -28.6600  -33.1610   24.1970 O.2   374  ASP374     -0.2864
     40  CB       -27.9270  -31.2230   26.4440 C.3   374  ASP374      0.1436
     41  CG       -28.5780  -31.5760   27.7760 C.2   374  ASP374      0.3671
     42  OD1      -28.6240  -32.7710   28.1420 O.co2 374  ASP374     -0.2456
     43  OD2      -29.0500  -30.6450   28.4620 O.co2 374  ASP374     -0.2456
     44  N        -30.3700  -35.1810   27.1610 N.3   376  PHE376     -0.1241
     45  CA       -31.6100  -35.2120   27.9250 C.3   376  PHE376      0.1605
     46  C        -32.1790  -33.8010   28.0630 C.2   376  PHE376      0.2264
     47  O        -31.5550  -32.9260   28.6630 O.2   376  PHE376     -0.2867
     48  CB       -31.3500  -35.8680   29.2890 C.3   376  PHE376      0.0534
     49  CG       -32.5550  -35.9370   30.1910 C.ar  376  PHE376     -0.0203
     50  CD1      -33.7910  -36.3750   29.7170 C.ar  376  PHE376     -0.0042
     51  CD2      -32.4360  -35.5990   31.5350 C.ar  376  PHE376     -0.0042
     52  CE1      -34.8940  -36.4450   30.5650 C.ar  376  PHE376     -0.0003
     53  CE2      -33.5320  -35.6690   32.3910 C.ar  376  PHE376     -0.0003
     54  CZ       -34.7630  -36.0930   31.9050 C.ar  376  PHE376     -0.0000
     55  N        -35.6340  -27.1420   35.1670 N.3   405  ARG405     -0.1245
     56  CA       -34.3070  -27.6010   35.5560 C.3   405  ARG405      0.1563
     57  C        -34.3380  -28.3930   36.8640 C.2   405  ARG405      0.2260
     58  O        -33.6020  -29.3710   37.0200 O.2   405  ARG405     -0.2867
     59  CB       -33.3530  -26.4060   35.6580 C.3   405  ARG405      0.0307
     60  CG       -31.8850  -26.7520   35.8970 C.3   405  ARG405      0.0489
     61  CD       -31.3620  -27.8370   34.9610 C.3   405  ARG405      0.2205
     62  NE       -31.5410  -27.4940   33.5510 N.pl3 405  ARG405     -0.0865
     63  CZ       -30.6020  -26.9570   32.7760 C.cat 405  ARG405      0.5346
     64  NH1      -29.3930  -26.6970   33.2590 N.pl3 405  ARG405      0.1354
     65  NH2      -30.8740  -26.6840   31.5080 N.pl3 405  ARG405      0.1354
     66  N        -35.8150  -31.7550   36.0890 N.3   408  LYS408     -0.1231
     67  CA       -34.7870  -32.4770   35.3420 C.3   408  LYS408      0.1693
     68  C        -33.7710  -33.1220   36.2830 C.2   408  LYS408      0.2591
     69  O        -33.3640  -34.2680   36.0790 O.2   408  LYS408     -0.2718
     70  CB       -34.0780  -31.5210   34.3800 C.3   408  LYS408      0.0285
     71  CG       -33.0780  -32.1740   33.4450 C.3   408  LYS408      0.0035
     72  CD       -32.5030  -31.1530   32.4860 C.3   408  LYS408      0.0206
     73  CE       -31.4770  -31.7810   31.5700 C.3   408  LYS408      0.1093
     74  NZ       -31.0800  -30.8520   30.4770 N.3   408  LYS408     -0.1314
     75  N        -33.3710  -32.3740   37.3110 N.am  409  ARG409     -0.1980
     76  CA       -32.4260  -32.8540   38.3200 C.3   409  ARG409      0.1597
     77  C        -33.0230  -33.9510   39.1970 C.2   409  ARG409      0.2287
     78  O        -32.2950  -34.7840   39.7420 O.2   409  ARG409     -0.2864
     79  CB       -31.9260  -31.6930   39.1820 C.3   409  ARG409      0.0334
     80  CG       -30.8500  -30.8720   38.5050 C.3   409  ARG409      0.0492
     81  CD       -30.6350  -29.5320   39.1750 C.3   409  ARG409      0.2205
     82  NE       -29.7460  -28.7070   38.3630 N.pl3 409  ARG409     -0.0865
     83  CZ       -29.7520  -27.3790   38.3320 C.cat 409  ARG409      0.5346
     84  NH1      -28.8990  -26.7410   37.5430 N.pl3 409  ARG409      0.1354
     85  NH2      -30.6080  -26.6850   39.0730 N.pl3 409  ARG409      0.1354
     86  N        -32.6330  -37.0570   36.5170 N.3   412  LEU412     -0.1245
     87  CA       -31.3210  -37.3980   35.9460 C.3   412  LEU412      0.1561
     88  C        -30.6110  -38.5860   36.6100 C.2   412  LEU412      0.2260
     89  O        -29.9090  -39.3450   35.9350 O.2   412  LEU412     -0.2867
     90  CB       -30.4010  -36.1680   35.9250 C.3   412  LEU412      0.0270
     91  CG       -29.1180  -36.2380   35.0840 C.3   412  LEU412      0.0019
     92  CD1      -29.4190  -36.4100   33.5970 C.3   412  LEU412      0.0001
     93  CD2      -28.2660  -35.0040   35.3070 C.3   412  LEU412      0.0001
@<TRIPOS>BOND
     1    35    33    1
     2    33    34    1
     3    33    30    1
     4    10    11    1
     5    30    29    1
     6    30    31    1
     7    39    38    2
     8    12    11    1
     9    12    13    2
    10    11    14    1
    11    21    20    2
    12    29    20   am
    13    36    31   am
    14    36    37    1
    15    20    19    1
    16    31    32    2
    17    18    19    1
    18    38    37    1
    19    19    22    1
    20    14    15    1
    21    37    40    1
    22    15    17    1
    23    15    16    1
    24    40    41    1
    25    44    45    1
    26    22    23    1
    27    41    42   ar
    28    41    43   ar
    29    45    46    1
    30    45    48    1
    31    23    24    1
    32    46    47    2
    33    48    49    1
    34    24    25    1
    35    50    49   ar
    36    50    52   ar
    37    25    26    2
    38    28    26    1
    39    26    27    1
    40    49    51   ar
    41    74    73    1
    42    52    54   ar
    43    65    63    1
    44    51    53   ar
    45    73    72    1
    46    54    53   ar
    47    72    71    1
    48    63    64    1
    49    63    62    2
    50    71    70    1
    51    62    61    1
    52    92    91    1
    53    70    67    1
    54    61    60    1
    55    91    93    1
    56    91    90    1
    57    55    56    1
    58    67    66    1
    59    67    68    1
    60    56    59    1
    61    56    57    1
    62    59    60    1
    63    90    87    1
    64    89    88    2
    65    87    86    1
    66    87    88    1
    67    69    68    2
    68    68    75   am
    69    57    58    2
    70    75    76    1
    71    84    83    1
    72     9     7   ar
    73    76    79    1
    74    76    77    1
    75    83    82    2
    76    83    85    1
    77     8     7   ar
    78    82    81    1
    79    80    81    1
    80    80    79    1
    81     7     6    1
    82    77    78    2
    83     6     5    1
    84     5     2    1
    85     2     3    1
    86     2     1    1
    87     3     4    2
