@<TRIPOS>MOLECULE
tmp/3gcmC01.pdb
 123 112 0 0 0
SMALL
GASTEIGER

@<TRIPOS>ATOM
      1  N        -30.6180  -19.2750   35.0220 N.3    90  LEU90      -0.1231
      2  CA       -30.5490  -20.1080   36.2260 C.3    90  LEU90       0.1693
      3  C        -29.6180  -19.5370   37.2940 C.2    90  LEU90       0.2591
      4  O        -29.9240  -19.6000   38.4870 O.2    90  LEU90      -0.2718
      5  CB       -30.1190  -21.5360   35.8710 C.3    90  LEU90       0.0284
      6  CG       -31.1190  -22.4250   35.1260 C.3    90  LEU90       0.0019
      7  CD1      -30.4070  -23.6130   34.5010 C.3    90  LEU90       0.0001
      8  CD2      -32.2500  -22.8840   36.0400 C.3    90  LEU90       0.0001
      9  N        -28.4880  -18.9840   36.8580 N.am   91  ILE91      -0.1980
     10  CA       -27.5050  -18.3840   37.7640 C.3    91  ILE91       0.1595
     11  C        -28.0170  -17.0550   38.3300 C.2    91  ILE91       0.2287
     12  O        -27.7220  -16.7070   39.4760 O.2    91  ILE91      -0.2864
     13  CB       -26.1180  -18.2230   37.0810 C.3    91  ILE91       0.0276
     14  CG1      -25.5530  -19.6000   36.7080 C.3    91  ILE91       0.0022
     15  CG2      -25.1390  -17.4760   37.9900 C.3    91  ILE91       0.0022
     16  CD1      -24.4310  -19.5760   35.6830 C.3    91  ILE91       0.0001
     17  N        -30.0330  -18.1050   41.1150 N.3    94  LEU94      -0.1245
     18  CA       -29.1480  -18.5120   42.2140 C.3    94  LEU94       0.1561
     19  C        -28.6870  -17.3280   43.0590 C.2    94  LEU94       0.2260
     20  O        -28.4060  -17.4780   44.2490 O.2    94  LEU94      -0.2867
     21  CB       -27.9170  -19.2510   41.6820 C.3    94  LEU94       0.0270
     22  CG       -27.9970  -20.7280   41.2890 C.3    94  LEU94       0.0019
     23  CD1      -26.7010  -21.1240   40.6060 C.3    94  LEU94       0.0001
     24  CD2      -28.2650  -21.6280   42.4920 C.3    94  LEU94       0.0001
     25  N        -32.4810  -15.6630   44.7090 N.3    97  ARG97      -0.1245
     26  CA       -33.2040  -16.4450   45.7180 C.3    97  ARG97       0.1563
     27  C        -32.7360  -16.2780   47.1760 C.2    97  ARG97       0.2260
     28  O        -33.5780  -16.1670   48.0690 O.2    97  ARG97      -0.2867
     29  CB       -33.2550  -17.9270   45.3260 C.3    97  ARG97       0.0307
     30  CG       -34.2890  -18.2520   44.2500 C.3    97  ARG97       0.0489
     31  CD       -33.9640  -19.5580   43.5400 C.3    97  ARG97       0.2205
     32  NE       -33.9140  -20.6890   44.4650 N.pl3  97  ARG97      -0.0865
     33  CZ       -33.2780  -21.8330   44.2290 C.cat  97  ARG97       0.5346
     34  NH1      -33.2940  -22.7930   45.1420 N.pl3  97  ARG97       0.1354
     35  NH2      -32.6210  -22.0190   43.0910 N.pl3  97  ARG97       0.1354
     36  N        -16.0320  -22.3680   38.4370 N.3   125  ASN125     -0.1240
     37  CA       -17.3760  -21.9230   38.0550 C.3   125  ASN125      0.1653
     38  C        -17.6650  -20.4950   38.5240 C.2   125  ASN125      0.2266
     39  O        -17.5300  -20.1980   39.7140 O.2   125  ASN125     -0.2867
     40  CB       -18.4270  -22.8940   38.6150 C.3   125  ASN125      0.1155
     41  CG       -19.7590  -22.8320   37.8710 C.2   125  ASN125      0.2627
     42  OD1      -20.2330  -21.7620   37.4880 O.2   125  ASN125     -0.2716
     43  ND2      -20.3780  -23.9920   37.6850 N.am  125  ASN125     -0.0877
     44  N        -20.4500  -18.9690   38.9600 N.3   127  ASP127     -0.1239
     45  CA       -21.7130  -18.7860   39.6920 C.3   127  ASP127      0.1674
     46  C        -21.5430  -18.4930   41.1890 C.2   127  ASP127      0.2266
     47  O        -22.2250  -17.6220   41.7300 O.2   127  ASP127     -0.2867
     48  CB       -22.6950  -19.9480   39.4460 C.3   127  ASP127      0.1410
     49  CG       -22.1840  -21.2910   39.9560 C.2   127  ASP127      0.3668
     50  OD1      -21.0090  -21.3960   40.3670 O.co2 127  ASP127     -0.2456
     51  OD2      -22.9750  -22.2570   39.9380 O.co2 127  ASP127     -0.2456
     52  N        -20.2970  -24.4630   46.9040 N.3   153  ARG153     -0.1245
     53  CA       -20.6380  -25.7070   46.2220 C.3   153  ARG153      0.1563
     54  C        -20.0390  -26.8870   46.9840 C.2   153  ARG153      0.2260
     55  O        -18.8630  -26.8670   47.3530 O.2   153  ARG153     -0.2867
     56  CB       -20.1610  -25.7030   44.7640 C.3   153  ARG153      0.0307
     57  CG       -20.3940  -27.0280   44.0350 C.3   153  ARG153      0.0489
     58  CD       -20.1120  -26.9370   42.5460 C.3   153  ARG153      0.2205
     59  NE       -21.2510  -26.4050   41.8000 N.pl3 153  ARG153     -0.0865
     60  CZ       -21.3580  -25.1470   41.3830 C.cat 153  ARG153      0.5346
     61  NH1      -20.3930  -24.2700   41.6280 N.pl3 153  ARG153      0.1354
     62  NH2      -22.4310  -24.7600   40.7100 N.pl3 153  ARG153      0.1354
     63  N        -23.8160  -32.6110   43.4880 N.3   176  ASP176     -0.1239
     64  CA       -23.5530  -31.2290   43.1020 C.3   176  ASP176      0.1674
     65  C        -24.5590  -30.3350   43.8260 C.2   176  ASP176      0.2266
     66  O        -25.7120  -30.2190   43.4080 O.2   176  ASP176     -0.2867
     67  CB       -23.6540  -31.0580   41.5800 C.3   176  ASP176      0.1410
     68  CG       -23.1220  -29.7130   41.0940 C.2   176  ASP176      0.3668
     69  OD1      -22.7410  -28.8610   41.9270 O.co2 176  ASP176     -0.2456
     70  OD2      -23.0840  -29.5090   39.8630 O.co2 176  ASP176     -0.2456
     71  N        -25.3520  -26.5380   45.9550 N.3   178  VAL178     -0.1245
     72  CA       -25.0220  -25.1460   46.2620 C.3   178  VAL178      0.1561
     73  C        -25.8890  -24.6490   47.4180 C.2   178  VAL178      0.2260
     74  O        -27.1130  -24.7860   47.3910 O.2   178  VAL178     -0.2867
     75  CB       -25.1680  -24.2210   45.0190 C.3   178  VAL178      0.0252
     76  CG1      -25.2140  -22.7460   45.4200 C.3   178  VAL178      0.0019
     77  CG2      -24.0270  -24.4580   44.0440 C.3   178  VAL178      0.0019
     78  N        -29.7260  -25.5000   46.2920 N.3   190  GLU190     -0.1231
     79  CA       -29.9860  -26.0680   44.9720 C.3   190  GLU190      0.1699
     80  C        -29.0280  -27.2350   44.7760 C.2   190  GLU190      0.2593
     81  O        -27.8160  -27.0760   44.9400 O.2   190  GLU190     -0.2718
     82  CB       -29.7790  -25.0110   43.8830 C.3   190  GLU190      0.0402
     83  CG       -30.1260  -25.4680   42.4630 C.3   190  GLU190      0.1161
     84  CD       -31.6210  -25.4840   42.1800 C.2   190  GLU190      0.3649
     85  OE1      -32.3690  -24.7420   42.8500 O.co2 190  GLU190     -0.2457
     86  OE2      -32.0470  -26.2350   41.2790 O.co2 190  GLU190     -0.2457
     87  N        -29.5680  -28.4060   44.4380 N.am  191  SER191     -0.1938
     88  CA       -28.7500  -29.6170   44.3490 C.3   191  SER191      0.2055
     89  C        -29.2800  -30.7030   43.4170 C.2   191  SER191      0.2642
     90  O        -30.4810  -30.7860   43.1470 O.2   191  SER191     -0.2714
     91  CB       -28.5370  -30.2180   45.7420 C.3   191  SER191      0.2130
     92  OG       -29.7530  -30.6890   46.2900 O.3   191  SER191     -0.2179
     93  N        -28.3530  -31.5250   42.9310 N.am  192  GLU192     -0.1976
     94  CA       -28.6730  -32.8070   42.3150 C.3   192  GLU192      0.1602
     95  C        -27.7310  -33.8630   42.8940 C.2   192  GLU192      0.2287
     96  O        -26.5600  -33.5810   43.1690 O.2   192  GLU192     -0.2864
     97  CB       -28.5780  -32.7380   40.7850 C.3   192  GLU192      0.0415
     98  CG       -27.1840  -32.9440   40.2050 C.3   192  GLU192      0.1163
     99  CD       -27.1150  -32.6450   38.7230 C.2   192  GLU192      0.3649
    100  OE1      -27.1830  -31.4550   38.3580 O.co2 192  GLU192     -0.2457
    101  OE2      -26.9730  -33.5970   37.9280 O.co2 192  GLU192     -0.2457
    102  N        -35.6340  -27.1420   35.1670 N.3   405  ARG405     -0.1245
    103  CA       -34.3070  -27.6010   35.5560 C.3   405  ARG405      0.1563
    104  C        -34.3380  -28.3930   36.8640 C.2   405  ARG405      0.2260
    105  O        -33.6020  -29.3710   37.0200 O.2   405  ARG405     -0.2867
    106  CB       -33.3530  -26.4060   35.6580 C.3   405  ARG405      0.0307
    107  CG       -31.8850  -26.7520   35.8970 C.3   405  ARG405      0.0489
    108  CD       -31.3620  -27.8370   34.9610 C.3   405  ARG405      0.2205
    109  NE       -31.5410  -27.4940   33.5510 N.pl3 405  ARG405     -0.0865
    110  CZ       -30.6020  -26.9570   32.7760 C.cat 405  ARG405      0.5346
    111  NH1      -29.3930  -26.6970   33.2590 N.pl3 405  ARG405      0.1354
    112  NH2      -30.8740  -26.6840   31.5080 N.pl3 405  ARG405      0.1354
    113  N        -33.3710  -32.3740   37.3110 N.3   409  ARG409     -0.1245
    114  CA       -32.4260  -32.8540   38.3200 C.3   409  ARG409      0.1563
    115  C        -33.0230  -33.9510   39.1970 C.2   409  ARG409      0.2260
    116  O        -32.2950  -34.7840   39.7420 O.2   409  ARG409     -0.2867
    117  CB       -31.9260  -31.6930   39.1820 C.3   409  ARG409      0.0307
    118  CG       -30.8500  -30.8720   38.5050 C.3   409  ARG409      0.0489
    119  CD       -30.6350  -29.5320   39.1750 C.3   409  ARG409      0.2205
    120  NE       -29.7460  -28.7070   38.3630 N.pl3 409  ARG409     -0.0865
    121  CZ       -29.7520  -27.3790   38.3320 C.cat 409  ARG409      0.5346
    122  NH1      -28.8990  -26.7410   37.5430 N.pl3 409  ARG409      0.1354
    123  NH2      -30.6080  -26.6850   39.0730 N.pl3 409  ARG409      0.1354
@<TRIPOS>BOND
     1   112   110    1
     2   110   111    1
     3   110   109    2
     4   109   108    1
     5     7     6    1
     6   108   107    1
     7     1     2    1
     8     6     5    1
     9     6     8    1
    10   102   103    1
    11   103   106    1
    12   103   104    1
    13   106   107    1
    14    16    14    1
    15     5     2    1
    16     2     3    1
    17    14    13    1
    18     9     3   am
    19     9    10    1
    20   104   105    2
    21    13    10    1
    22    13    15    1
    23     3     4    2
    24   113   114    1
    25    42    41    2
    26   122   121    1
    27    43    41   am
    28    10    11    1
    29    41    40    1
    30   101    99   ar
    31    37    36    1
    32    37    38    1
    33    37    40    1
    34   114   117    1
    35   114   115    1
    36    11    12    2
    37   121   120    2
    38   121   123    1
    39   100    99   ar
    40   120   119    1
    41   118   119    1
    42   118   117    1
    43    38    39    2
    44    99    98    1
    45    44    45    1
    46   115   116    2
    47    48    45    1
    48    48    49    1
    49    45    46    1
    50    70    68   ar
    51    51    49   ar
    52    49    50   ar
    53    98    97    1
    54    23    22    1
    55    62    60    1
    56    97    94    1
    57    68    67    1
    58    68    69   ar
    59    17    18    1
    60    46    47    2
    61    86    84   ar
    62    22    21    1
    63    22    24    1
    64    60    61    1
    65    60    59    2
    66    67    64    1
    67    21    18    1
    68    59    58    1
    69    84    83    1
    70    84    85   ar
    71    18    19    1
    72    94    95    1
    73    94    93    1
    74    83    82    1
    75    58    57    1
    76    95    96    2
    77    93    89   am
    78    19    20    2
    79    35    33    1
    80    64    63    1
    81    64    65    1
    82    90    89    2
    83    66    65    2
    84    89    88    1
    85    31    30    1
    86    31    32    1
    87    82    79    1
    88    57    56    1
    89    77    75    1
    90    33    32    2
    91    33    34    1
    92    30    29    1
    93    88    87    1
    94    88    91    1
    95    87    80   am
    96    25    26    1
    97    56    53    1
    98    80    81    2
    99    80    79    1
   100    79    78    1
   101    75    76    1
   102    75    72    1
   103    29    26    1
   104    26    27    1
   105    91    92    1
   106    71    72    1
   107    53    52    1
   108    53    54    1
   109    72    73    1
   110    54    55    2
   111    27    28    2
   112    74    73    2
