@<TRIPOS>MOLECULE
tmp/3gczA00.pdb
 181 174 0 0 0
SMALL
GASTEIGER

@<TRIPOS>ATOM
      1  N        -16.3420    4.7430   -0.7700 N.3    50  SER50      -0.1217
      2  CA       -16.2840    5.5170    0.4480 C.3    50  SER50       0.1889
      3  C        -17.5720    6.2950    0.6340 C.2    50  SER50       0.2288
      4  O        -18.3080    6.4820   -0.3190 O.2    50  SER50      -0.2866
      5  CB       -15.1470    6.4980    0.3920 C.3    50  SER50       0.2089
      6  OG       -15.4270    7.5230   -0.5350 O.3    50  SER50      -0.2183
      7  N        -17.4950    9.3430    0.9250 N.3    52  GLY52      -0.1225
      8  CA       -17.2680   10.5730    0.1640 C.3    52  GLY52       0.1811
      9  C        -18.0020   10.6850   -1.1530 C.2    52  GLY52       0.2280
     10  O        -18.3260   11.8080   -1.5710 O.2    52  GLY52      -0.2866
     11  N        -21.1710   12.5530   -0.7770 N.3    55  LYS55      -0.1245
     12  CA       -20.9860   14.0050   -0.5910 C.3    55  LYS55       0.1561
     13  C        -20.8080   14.6820   -1.9380 C.2    55  LYS55       0.2260
     14  O        -21.4070   15.7350   -2.2010 O.2    55  LYS55      -0.2867
     15  CB       -19.8170   14.3230    0.3300 C.3    55  LYS55       0.0271
     16  CG       -20.1880   14.0630    1.7930 C.3    55  LYS55       0.0035
     17  CD       -19.0120   13.8550    2.7300 C.3    55  LYS55       0.0206
     18  CE       -18.1090   15.0170    2.7500 C.3    55  LYS55       0.1093
     19  NZ       -16.9050   14.7900    3.6510 N.3    55  LYS55      -0.1314
     20  N         -8.1300   14.9100   -8.9630 N.3    73  ASP73      -0.1239
     21  CA        -8.6700   14.6120   -7.6450 C.3    73  ASP73       0.1674
     22  C         -7.4970   14.5360   -6.6630 C.2    73  ASP73       0.2266
     23  O         -6.7820   13.5450   -6.6120 O.2    73  ASP73      -0.2867
     24  CB        -9.4230   13.2800   -7.7070 C.3    73  ASP73       0.1410
     25  CG       -10.0950   12.9260   -6.4110 C.2    73  ASP73       0.3668
     26  OD1      -10.1210   13.7570   -5.4980 O.co2  73  ASP73      -0.2456
     27  OD2      -10.5770   11.7880   -6.2850 O.co2  73  ASP73      -0.2456
     28  N         -5.8530   14.1790   -3.1400 N.3    75  GLY75      -0.1210
     29  CA        -6.2190   13.5070   -1.9150 C.3    75  GLY75       0.1956
     30  C         -7.3510   12.5290   -2.1530 C.2    75  GLY75       0.2612
     31  O         -8.3500   12.5290   -1.4430 O.2    75  GLY75      -0.2717
     32  N         -7.1940   11.6810   -3.1570 N.am   76  CYS76      -0.1956
     33  CA        -8.2710   10.7710   -3.5530 C.3    76  CYS76       0.1843
     34  C         -8.5940    9.6440   -2.5960 C.2    76  CYS76       0.2626
     35  O         -9.7130    9.1260   -2.6240 O.2    76  CYS76      -0.2714
     36  CB        -8.0120   10.2150   -4.9600 C.3    76  CYS76       0.0997
     37  SG        -6.6440    9.0200   -5.0390 S.3    76  CYS76      -0.0797
     38  N         -7.6570    9.2250   -1.7490 N.am   77  GLY77      -0.1940
     39  CA        -7.9520    8.1410   -0.8480 C.3    77  GLY77       0.2014
     40  C         -8.3350    6.8900   -1.6320 C.2    77  GLY77       0.2639
     41  O         -7.6880    6.5480   -2.6180 O.2    77  GLY77      -0.2714
     42  N         -9.3960    6.2400   -1.2050 N.am   78  ARG78      -0.1963
     43  CA        -9.8540    5.0020   -1.8360 C.3    78  ARG78       0.1729
     44  C        -10.3550    5.3080   -3.2310 C.2    78  ARG78       0.2617
     45  O        -10.4720    4.4080   -4.0650 O.2    78  ARG78      -0.2715
     46  CB       -11.0070    4.4150   -1.0490 C.3    78  ARG78       0.0348
     47  CG       -10.6510    3.9220    0.3270 C.3    78  ARG78       0.0492
     48  CD       -11.9420    3.4560    0.9540 C.3    78  ARG78       0.2205
     49  NE       -11.7210    2.9430    2.2880 N.pl3  78  ARG78      -0.0865
     50  CZ       -12.7130    2.5810    3.0920 C.cat  78  ARG78       0.5346
     51  NH1      -13.9710    2.6740    2.6760 N.pl3  78  ARG78       0.1354
     52  NH2      -12.4330    2.1250    4.3140 N.pl3  78  ARG78       0.1354
     53  N        -10.7400    6.5690   -3.4800 N.am   79  GLY79      -0.1940
     54  CA       -11.1730    6.9530   -4.8240 C.3    79  GLY79       0.2014
     55  C        -12.6510    7.2870   -5.0220 C.2    79  GLY79       0.2639
     56  O        -13.0850    7.3740   -6.1760 O.2    79  GLY79      -0.2714
     57  N        -13.4050    7.5310   -3.9570 N.am   80  GLY80      -0.1939
     58  CA       -14.8600    7.7640   -4.0770 C.3    80  GLY80       0.2014
     59  C        -15.2420    8.9280   -4.9830 C.2    80  GLY80       0.2638
     60  O        -16.2310    8.8590   -5.6940 O.2    80  GLY80      -0.2714
     61  N        -14.4710   10.0090   -4.9620 N.am   81  TRP81      -0.1973
     62  CA       -14.7370   11.1250   -5.8570 C.3    81  TRP81       0.1640
     63  C        -14.2840   10.8020   -7.2690 C.2    81  TRP81       0.2290
     64  O        -14.8860   11.2640   -8.2320 O.2    81  TRP81      -0.2864
     65  CB       -14.0480   12.4010   -5.3640 C.3    81  TRP81       0.0576
     66  CG       -14.7550   13.0480   -4.1830 C.ar   81  TRP81       0.0006
     67  CD1      -15.6490   12.4590   -3.3210 C.ar   81  TRP81       0.0946
     68  CD2      -14.6290   14.4010   -3.7670 C.ar   81  TRP81       0.0152
     69  NE1      -16.0650   13.3770   -2.3670 N.ar   81  TRP81      -0.2442
     70  CE2      -15.4770   14.5830   -2.6440 C.ar   81  TRP81       0.0810
     71  CE3      -13.8890   15.4930   -4.2360 C.ar   81  TRP81       0.0012
     72  CZ2      -15.5890   15.8100   -1.9940 C.ar   81  TRP81       0.0191
     73  CZ3      -14.0280   16.7210   -3.6050 C.ar   81  TRP81       0.0001
     74  CH2      -14.8730   16.8570   -2.4850 C.ar   81  TRP81       0.0015
     75  N         -2.8260   10.5750   -4.1540 N.3    98  THR98      -0.1203
     76  CA        -3.0030   10.4640   -2.7370 C.3    98  THR98       0.1994
     77  C         -1.7500    9.9240   -2.0790 C.2    98  THR98       0.2617
     78  O         -0.8770    9.3820   -2.7540 O.2    98  THR98      -0.2717
     79  CB        -4.2340    9.5640   -2.4540 C.3    98  THR98       0.1784
     80  OG1       -4.7590    9.8630   -1.1690 O.3    98  THR98      -0.2211
     81  CG2       -3.8730    8.1050   -2.5440 C.3    98  THR98       0.0376
     82  N         -1.6390   10.0720   -0.7600 N.am   99  LEU99      -0.1979
     83  CA        -0.4510    9.5540   -0.0380 C.3    99  LEU99       0.1596
     84  C         -0.3580    8.0270   -0.1020 C.2    99  LEU99       0.2287
     85  O          0.6500    7.4730   -0.5640 O.2    99  LEU99      -0.2864
     86  CB        -0.4840   10.0210    1.4350 C.3    99  LEU99       0.0297
     87  CG        -0.3380   11.5240    1.6310 C.3    99  LEU99       0.0022
     88  CD1       -0.6610   11.9020    3.0740 C.3    99  LEU99       0.0001
     89  CD2        1.0760   12.0000    1.2570 C.3    99  LEU99       0.0001
     90  N         -2.7520    5.5580    5.6450 N.3   104  HIS104     -0.1226
     91  CA        -3.5540    6.4220    4.7680 C.3   104  HIS104      0.1752
     92  C         -4.1880    5.5590    3.6640 C.2   104  HIS104      0.2595
     93  O         -3.5430    4.6650    3.1310 O.2   104  HIS104     -0.2718
     94  CB        -2.6840    7.5190    4.1460 C.3   104  HIS104      0.0759
     95  CG        -2.3440    8.6320    5.0860 C.ar  104  HIS104      0.0818
     96  ND1       -3.0640    9.8090    5.1370 N.ar  104  HIS104     -0.2268
     97  CD2       -1.3580    8.7520    6.0070 C.ar  104  HIS104      0.1154
     98  CE1       -2.5380   10.6040    6.0540 C.ar  104  HIS104      0.1986
     99  NE2       -1.5010    9.9880    6.5960 N.ar  104  HIS104     -0.2212
    100  N         -5.4500    5.8270    3.3300 N.am  105  GLU105     -0.1979
    101  CA        -6.2050    4.9920    2.3890 C.3   105  GLU105      0.1602
    102  C         -5.5760    4.9010    1.0210 C.2   105  GLU105      0.2287
    103  O         -5.2410    5.9050    0.4140 O.2   105  GLU105     -0.2864
    104  CB        -7.6310    5.5290    2.2130 C.3   105  GLU105      0.0415
    105  CG        -8.5620    5.3430    3.4220 C.3   105  GLU105      0.1163
    106  CD        -8.8760    3.8640    3.7850 C.2   105  GLU105      0.3649
    107  OE1       -8.7470    2.9290    2.9520 O.co2 105  GLU105     -0.2457
    108  OE2       -9.2620    3.6310    4.9540 O.co2 105  GLU105     -0.2457
    109  N          2.1110   10.1400   -3.3240 N.3   124  THR124     -0.1203
    110  CA         2.1820   11.5080   -3.7950 C.3   124  THR124      0.1994
    111  C          1.7210   12.4750   -2.7060 C.2   124  THR124      0.2618
    112  O          0.6520   12.2920   -2.1020 O.2   124  THR124     -0.2717
    113  CB         1.2930   11.6890   -5.0330 C.3   124  THR124      0.1784
    114  OG1        1.7610   10.8310   -6.0690 O.3   124  THR124     -0.2211
    115  CG2        1.3320   13.0870   -5.5160 C.3   124  THR124      0.0376
    116  N          2.5340   13.4970   -2.4380 N.am  125  ASP125     -0.1959
    117  CA         2.1260   14.5750   -1.5510 C.3   125  ASP125      0.1840
    118  C          1.6620   15.7070   -2.4580 C.2   125  ASP125      0.2622
    119  O          2.4800   16.2680   -3.1920 O.2   125  ASP125     -0.2715
    120  CB         3.3250   15.0240   -0.6900 C.3   125  ASP125      0.1450
    121  CG         3.0450   16.2680    0.1310 C.2   125  ASP125      0.3671
    122  OD1        1.9260   16.8220    0.0720 O.co2 125  ASP125     -0.2456
    123  OD2        3.9660   16.6940    0.8560 O.co2 125  ASP125     -0.2456
    124  N          0.3770   16.0570   -2.4240 N.am  126  VAL126     -0.1963
    125  CA        -0.1210   17.0150   -3.4080 C.3   126  VAL126      0.1727
    126  C          0.3870   18.4180   -3.1070 C.2   126  VAL126      0.2616
    127  O          0.3980   19.2620   -3.9970 O.2   126  VAL126     -0.2715
    128  CB        -1.6680   17.0150   -3.5310 C.3   126  VAL126      0.0290
    129  CG1       -2.1470   15.6530   -3.9910 C.3   126  VAL126      0.0023
    130  CG2       -2.3380   17.4440   -2.2370 C.3   126  VAL126      0.0023
    131  N          0.8270   18.6640   -1.8730 N.am  127  PHE127     -0.1974
    132  CA         1.3640   19.9810   -1.5160 C.3   127  PHE127      0.1639
    133  C          2.7750   20.1830   -2.0540 C.2   127  PHE127      0.2290
    134  O          3.2740   21.3040   -2.0810 O.2   127  PHE127     -0.2864
    135  CB         1.3610   20.1940    0.0170 C.3   127  PHE127      0.0560
    136  CG         0.0020   20.0370    0.6620 C.ar  127  PHE127     -0.0200
    137  CD1       -1.1200   20.6430    0.1230 C.ar  127  PHE127     -0.0042
    138  CD2       -0.1440   19.3000    1.8150 C.ar  127  PHE127     -0.0042
    139  CE1       -2.3690   20.4830    0.7150 C.ar  127  PHE127     -0.0003
    140  CE2       -1.3720   19.1450    2.4190 C.ar  127  PHE127     -0.0003
    141  CZ        -2.4980   19.7410    1.8740 C.ar  127  PHE127     -0.0000
    142  N        -10.2860   17.0150   -1.5320 N.3   140  ASP140     -0.1225
    143  CA       -11.0750   16.6220   -0.3720 C.3   140  ASP140      0.1805
    144  C        -10.1460   16.3150    0.7920 C.2   140  ASP140      0.2598
    145  O        -10.2970   15.3070    1.4510 O.2   140  ASP140     -0.2718
    146  CB       -11.9390   15.3940   -0.7060 C.3   140  ASP140      0.1424
    147  CG       -13.0290   15.1330    0.3190 C.2   140  ASP140      0.3668
    148  OD1      -13.4180   16.1000    1.0070 O.co2 140  ASP140     -0.2456
    149  OD2      -13.4990   13.9600    0.4760 O.co2 140  ASP140     -0.2456
    150  N         -9.1890   17.2100    1.0340 N.am  141  ILE141     -0.1966
    151  CA        -8.1610   17.0310    2.0510 C.3   141  ILE141      0.1727
    152  C         -8.4500   17.9120    3.2400 C.2   141  ILE141      0.2616
    153  O         -8.7800   19.0680    3.0840 O.2   141  ILE141     -0.2715
    154  CB        -6.7620   17.3940    1.5050 C.3   141  ILE141      0.0290
    155  CG1       -6.3500   16.3630    0.4420 C.3   141  ILE141      0.0022
    156  CG2       -5.7590   17.4480    2.6690 C.3   141  ILE141      0.0023
    157  CD1       -5.0440   16.6370   -0.2000 C.3   141  ILE141      0.0001
    158  N         -8.3100   17.3600    4.4360 N.am  142  GLY142     -0.1955
    159  CA        -8.4940   18.1500    5.6510 C.3   142  GLY142      0.1869
    160  C         -8.8410   17.2430    6.8000 C.2   142  GLY142      0.2309
    161  O         -9.9880   16.8610    6.9770 O.2   142  GLY142     -0.2863
    162  N         -3.1080   25.2770    4.0880 N.3   157  ARG157     -0.1245
    163  CA        -2.2740   24.5300    3.1480 C.3   157  ARG157      0.1563
    164  C         -3.0830   24.1560    1.9130 C.2   157  ARG157      0.2260
    165  O         -2.6150   24.2730    0.7940 O.2   157  ARG157     -0.2867
    166  CB        -1.7300   23.2420    3.7850 C.3   157  ARG157      0.0307
    167  CG        -0.4900   23.4090    4.6120 C.3   157  ARG157      0.0489
    168  CD         0.1260   22.0430    4.9830 C.3   157  ARG157      0.2205
    169  NE         1.2100   21.6240    4.0940 N.pl3 157  ARG157     -0.0865
    170  CZ         1.8880   20.4810    4.2240 C.cat 157  ARG157      0.5346
    171  NH1        1.5990   19.6390    5.2090 N.pl3 157  ARG157      0.1354
    172  NH2        2.8630   20.1790    3.3780 N.pl3 157  ARG157      0.1354
    173  N        -12.3290   21.2280   -0.3400 N.3   177  LYS177     -0.1245
    174  CA       -12.6620   21.1280    1.0700 C.3   177  LYS177      0.1561
    175  C        -12.0250   22.2490    1.8740 C.2   177  LYS177      0.2260
    176  O        -10.8200   22.5190    1.7550 O.2   177  LYS177     -0.2867
    177  CB       -12.1970   19.8030    1.6690 C.3   177  LYS177      0.0271
    178  CG       -12.7460   19.5410    3.0510 C.3   177  LYS177      0.0035
    179  CD       -12.2840   18.1840    3.6350 C.3   177  LYS177      0.0206
    180  CE       -12.5760   18.1250    5.1160 C.3   177  LYS177      0.1093
    181  NZ       -12.4020   16.7330    5.7070 N.3   177  LYS177     -0.1314
@<TRIPOS>BOND
     1    20    21    1
     2    64    63    2
     3    24    21    1
     4    24    25    1
     5    21    22    1
     6    63    62    1
     7    22    23    2
     8    25    27   ar
     9    25    26   ar
    10    56    55    2
    11   114   113    1
    12    62    65    1
    13    62    61    1
    14    60    59    2
    15   115   113    1
    16    65    66    1
    17    37    36    1
    18   113   110    1
    19    55    54    1
    20    55    57   am
    21    59    61   am
    22    59    58    1
    23    36    33    1
    24    54    53    1
    25    71    68   ar
    26    71    73   ar
    27    66    68   ar
    28    66    67   ar
    29    75    76    1
    30    58    57    1
    31    45    44    2
    32   127   126    2
    33   129   128    1
    34   110   109    1
    35   110   111    1
    36    68    70   ar
    37    73    74   ar
    38    33    32    1
    39    33    34    1
    40   128   125    1
    41   128   130    1
    42    53    44   am
    43   125   126    1
    44   125   124    1
    45    67    69   ar
    46    44    43    1
    47   119   118    2
    48    32    30   am
    49    28    29    1
    50   126   131   am
    51    78    77    2
    52    76    79    1
    53    76    77    1
    54   111   116   am
    55   111   112    2
    56    70    69   ar
    57    70    72   ar
    58    35    34    2
    59    41    40    2
    60    34    38   am
    61    81    79    1
    62    74    72   ar
    63   118   124   am
    64   118   117    1
    65    79    80    1
    66   116   117    1
    67    14    13    2
    68    30    29    1
    69    30    31    2
    70   134   133    2
    71    77    82   am
    72   133   132    1
    73    13    12    1
    74   131   132    1
    75    43    42    1
    76    43    46    1
    77    38    39    1
    78    40    42   am
    79    40    39    1
    80    10     9    2
    81   117   120    1
    82   142   143    1
    83   132   135    1
    84     9     8    1
    85    46    47    1
    86    11    12    1
    87     1     2    1
    88    82    83    1
    89   146   143    1
    90   146   147    1
    91   120   121    1
    92    12    15    1
    93    85    84    2
    94     6     5    1
    95   143   144    1
    96   173   174    1
    97     4     3    2
    98   157   155    1
    99    84    83    1
   100    83    86    1
   101   135   136    1
   102   122   121   ar
   103   137   136   ar
   104   137   139   ar
   105   121   123   ar
   106     8     7    1
   107   147   149   ar
   108   147   148   ar
   109    47    48    1
   110    15    16    1
   111     5     2    1
   112   103   102    2
   113   155   154    1
   114     2     3    1
   115   136   138   ar
   116   139   141   ar
   117   144   150   am
   118   144   145    2
   119   165   164    2
   120    48    49    1
   121   102   101    1
   122   150   151    1
   123   174   177    1
   124   174   175    1
   125    89    87    1
   126    86    87    1
   127   154   151    1
   128   154   156    1
   129    87    88    1
   130   177   178    1
   131   176   175    2
   132    16    17    1
   133   138   140   ar
   134   141   140   ar
   135   164   163    1
   136   151   152    1
   137   104   101    1
   138   104   105    1
   139    49    50    2
   140   101   100    1
   141    51    50    1
   142    17    18    1
   143    18    19    1
   144   107   106   ar
   145   178   179    1
   146   153   152    2
   147    50    52    1
   148    93    92    2
   149   163   166    1
   150   163   162    1
   151   152   158   am
   152   100    92   am
   153   172   170    1
   154   105   106    1
   155   179   180    1
   156    92    91    1
   157   166   167    1
   158   106   108   ar
   159   169   170    2
   160   169   168    1
   161    94    91    1
   162    94    95    1
   163   170   171    1
   164   158   159    1
   165   167   168    1
   166    91    90    1
   167    95    96   ar
   168    95    97   ar
   169   180   181    1
   170    96    98   ar
   171   159   160    1
   172    97    99   ar
   173    98    99   ar
   174   160   161    2
