@<TRIPOS>MOLECULE
tmp/3gd1C00.pdb
 135 126 0 0 0
SMALL
GASTEIGER

@<TRIPOS>ATOM
      1  N         74.2910   26.4650   58.0260 N.3    48  VAL48      -0.1245
      2  CA        73.0660   25.6960   58.2340 C.3    48  VAL48       0.1561
      3  C         73.2570   24.3310   58.8420 C.2    48  VAL48       0.2260
      4  O         74.0680   23.5450   58.3730 O.2    48  VAL48      -0.2867
      5  CB        72.2980   25.4720   56.9200 C.3    48  VAL48       0.0252
      6  CG1       71.9640   26.8210   56.2900 C.3    48  VAL48       0.0019
      7  CG2       73.1080   24.5680   55.9710 C.3    48  VAL48       0.0019
      8  N         72.0630   20.7040   59.3180 N.3    50  ILE50      -0.1245
      9  CA        71.2370   19.7100   58.6460 C.3    50  ILE50       0.1561
     10  C         71.0910   18.5110   59.5830 C.2    50  ILE50       0.2260
     11  O         71.8350   17.5430   59.4800 O.2    50  ILE50      -0.2867
     12  CB        71.8990   19.2360   57.3120 C.3    50  ILE50       0.0252
     13  CG1       72.5200   20.4200   56.5670 C.3    50  ILE50       0.0019
     14  CG2       70.8850   18.5860   56.4210 C.3    50  ILE50       0.0019
     15  CD1       71.6600   21.6640   56.4540 C.3    50  ILE50       0.0001
     16  N         77.1950   23.5240   57.8250 N.3    62  ARG62      -0.1231
     17  CA        77.8960   23.9360   56.6120 C.3    62  ARG62       0.1679
     18  C         77.7110   25.4380   56.4510 C.2    62  ARG62       0.2434
     19  O         76.9590   26.0560   57.2050 O.2    62  ARG62      -0.2733
     20  CB        77.3380   23.2180   55.3830 C.3    62  ARG62       0.0321
     21  CG        77.5870   21.7500   55.3890 C.3    62  ARG62       0.0489
     22  CD        79.0400   21.4710   55.5730 C.3    62  ARG62       0.2205
     23  NE        79.2470   20.1180   56.0620 N.pl3  62  ARG62      -0.0865
     24  CZ        79.4130   19.0560   55.2820 C.cat  62  ARG62       0.5346
     25  NH1       79.4030   19.1920   53.9580 N.pl3  62  ARG62       0.1354
     26  NH2       79.5880   17.8560   55.8280 N.pl3  62  ARG62       0.1354
     27  N         78.3930   26.0450   55.4620 N.am   63  PRO63      -0.2718
     28  CA        78.3120   27.4860   55.1920 C.3    63  PRO63       0.1535
     29  C         77.2340   27.7840   54.1610 C.2    63  PRO63       0.2598
     30  O         77.1280   27.0810   53.1550 O.2    63  PRO63      -0.2715
     31  CB        79.6850   27.7900   54.6360 C.3    63  PRO63       0.0310
     32  CG        79.8840   26.5840   53.7210 C.3    63  PRO63       0.0237
     33  CD        79.4200   25.4210   54.6020 C.3    63  PRO63       0.0939
     34  N         76.4380   28.8210   54.3950 N.am   64  ILE64      -0.1964
     35  CA        75.3930   29.1600   53.4360 C.3    64  ILE64       0.1727
     36  C         75.2610   30.6460   53.1340 C.2    64  ILE64       0.2617
     37  O         75.7720   31.5020   53.8630 O.2    64  ILE64      -0.2715
     38  CB        74.0040   28.6100   53.8780 C.3    64  ILE64       0.0290
     39  CG1       73.5370   29.2760   55.1830 C.3    64  ILE64       0.0022
     40  CG2       74.0770   27.0980   53.9920 C.3    64  ILE64       0.0023
     41  CD1       72.7680   30.5940   54.9990 C.3    64  ILE64       0.0001
     42  N         74.5670   30.9340   52.0390 N.am   65  SER65      -0.1936
     43  CA        74.3360   32.3000   51.6020 C.3    65  SER65       0.2055
     44  C         72.8350   32.5040   51.4360 C.2    65  SER65       0.2642
     45  O         72.3500   33.6380   51.4370 O.2    65  SER65      -0.2714
     46  CB        75.0320   32.5280   50.2670 C.3    65  SER65       0.2130
     47  OG        76.1910   31.7230   50.1830 O.3    65  SER65      -0.2179
     48  N         72.1160   31.3870   51.3040 N.am   66  ALA66      -0.1977
     49  CA        70.6650   31.3710   51.1020 C.3    66  ALA66       0.1597
     50  C         69.8160   31.9580   52.2390 C.2    66  ALA66       0.2287
     51  O         70.2770   32.0970   53.3820 O.2    66  ALA66      -0.2864
     52  CB        70.2080   29.9360   50.7940 C.3    66  ALA66       0.0319
     53  N         69.0730   18.6450   48.7560 N.3    78  ILE78      -0.1245
     54  CA        68.7260   19.8890   49.4220 C.3    78  ILE78       0.1561
     55  C         68.6770   20.9910   48.3920 C.2    78  ILE78       0.2260
     56  O         69.3860   20.9450   47.3920 O.2    78  ILE78      -0.2867
     57  CB        69.7430   20.2920   50.5030 C.3    78  ILE78       0.0252
     58  CG1       69.3180   21.6090   51.1630 C.3    78  ILE78       0.0019
     59  CG2       71.1010   20.4790   49.8800 C.3    78  ILE78       0.0019
     60  CD1       70.1410   21.9840   52.3620 C.3    78  ILE78       0.0001
     61  N         68.3680   25.3710   48.0900 N.3    80  LEU80      -0.1231
     62  CA        68.4790   26.6400   48.7850 C.3    80  LEU80       0.1693
     63  C         68.2450   27.7360   47.7880 C.2    80  LEU80       0.2592
     64  O         68.5730   27.5940   46.6140 O.2    80  LEU80      -0.2718
     65  CB        69.8680   26.8140   49.3820 C.3    80  LEU80       0.0284
     66  CG        70.3530   25.7030   50.3050 C.3    80  LEU80       0.0019
     67  CD1       70.6840   24.4220   49.5160 C.3    80  LEU80       0.0001
     68  CD2       71.5720   26.2270   51.0380 C.3    80  LEU80       0.0001
     69  N         67.6810   28.8350   48.2550 N.am   81  LYS81      -0.1966
     70  CA        67.4150   29.9500   47.3760 C.3    81  LYS81       0.1728
     71  C         67.9360   31.2020   48.0370 C.2    81  LYS81       0.2616
     72  O         68.1630   31.2390   49.2460 O.2    81  LYS81      -0.2715
     73  CB        65.9040   30.0850   47.1050 C.3    81  LYS81       0.0311
     74  CG        65.0740   30.5360   48.3180 C.3    81  LYS81       0.0038
     75  CD        63.5650   30.4530   48.0810 C.3    81  LYS81       0.0206
     76  CE        62.7940   30.8940   49.3160 C.3    81  LYS81       0.1093
     77  NZ        63.0540   32.3190   49.6280 N.3    81  LYS81      -0.1314
     78  N         68.1370   32.2160   47.2100 N.am   82  ALA82      -0.1977
     79  CA        68.6010   33.5190   47.6390 C.3    82  ALA82       0.1597
     80  C         67.9890   34.4440   46.6060 C.2    82  ALA82       0.2287
     81  O         68.2930   34.3450   45.4150 O.2    82  ALA82      -0.2864
     82  CB        70.1180   33.5910   47.5930 C.3    82  ALA82       0.0319
     83  N         67.6040   33.4540   42.7500 N.3    85  THR85      -0.1218
     84  CA        68.5090   32.3520   42.4750 C.3    85  THR85       0.1862
     85  C         68.2560   31.2210   43.4570 C.2    85  THR85       0.2287
     86  O         68.1610   31.4290   44.6640 O.2    85  THR85      -0.2866
     87  CB        69.9880   32.8060   42.5710 C.3    85  THR85       0.1770
     88  OG1       70.0990   33.8830   43.5180 O.3    85  THR85      -0.2211
     89  CG2       70.5100   33.2450   41.1920 C.3    85  THR85       0.0375
     90  N         69.0660   26.7750   43.9930 N.3    87  GLN87      -0.1245
     91  CA        69.7410   25.5800   43.5250 C.3    87  GLN87       0.1566
     92  C         69.3490   24.3420   44.2810 C.2    87  GLN87       0.2260
     93  O         68.8510   24.4070   45.3950 O.2    87  GLN87      -0.2867
     94  CB        71.2400   25.7690   43.6630 C.3    87  GLN87       0.0367
     95  CG        71.7090   27.1070   43.1380 C.3    87  GLN87       0.0905
     96  CD        72.8010   27.7190   43.9880 C.2    87  GLN87       0.2608
     97  OE1       72.5530   28.1860   45.1060 O.2    87  GLN87      -0.2717
     98  NE2       74.0250   27.7140   43.4640 N.am   87  GLN87      -0.0878
     99  N         71.2370   20.7960   45.2130 N.3    89  PHE89      -0.1241
    100  CA        72.5110   20.0900   45.1770 C.3    89  PHE89       0.1605
    101  C         72.3750   18.5950   45.3970 C.2    89  PHE89       0.2264
    102  O         71.5430   17.9370   44.7730 O.2    89  PHE89      -0.2867
    103  CB        73.4640   20.6700   46.2160 C.3    89  PHE89       0.0534
    104  CG        73.7400   22.1230   46.0230 C.ar   89  PHE89      -0.0203
    105  CD1       72.8220   23.0770   46.4340 C.ar   89  PHE89      -0.0042
    106  CD2       74.9050   22.5400   45.3990 C.ar   89  PHE89      -0.0042
    107  CE1       73.0580   24.4310   46.2260 C.ar   89  PHE89      -0.0003
    108  CE2       75.1510   23.8940   45.1860 C.ar   89  PHE89      -0.0003
    109  CZ        74.2240   24.8400   45.6010 C.ar   89  PHE89      -0.0000
    110  N         73.9240   16.7300   48.9210 N.3    91  ILE91      -0.1245
    111  CA        74.8880   16.6470   50.0090 C.3    91  ILE91       0.1561
    112  C         75.7960   15.4140   49.9100 C.2    91  ILE91       0.2260
    113  O         77.0250   15.5080   50.0360 O.2    91  ILE91      -0.2867
    114  CB        74.1630   16.6120   51.3530 C.3    91  ILE91       0.0252
    115  CG1       73.1040   17.7070   51.3970 C.3    91  ILE91       0.0019
    116  CG2       75.1600   16.8060   52.4780 C.3    91  ILE91       0.0019
    117  CD1       72.3250   17.7220   52.6850 C.3    91  ILE91       0.0001
    118  N         78.2140   16.1310   47.1800 N.3    94  LYS94      -0.1245
    119  CA        78.9160   17.4100   47.2000 C.3    94  LYS94       0.1561
    120  C         78.7750   18.0960   45.8330 C.2    94  LYS94       0.2260
    121  O         79.2010   19.2360   45.6400 O.2    94  LYS94      -0.2867
    122  CB        80.3820   17.1960   47.5460 C.3    94  LYS94       0.0271
    123  CG        80.6240   16.5680   48.9010 C.3    94  LYS94       0.0035
    124  CD        80.0540   17.4350   50.0050 C.3    94  LYS94       0.0206
    125  CE        80.6140   17.0330   51.3580 C.3    94  LYS94       0.1093
    126  NZ        80.4650   15.5640   51.5520 N.3    94  LYS94      -0.1314
    127  N         76.4580   19.7330   42.9470 N.3    96  LYS96      -0.1245
    128  CA        75.1840   20.3950   42.6410 C.3    96  LYS96       0.1561
    129  C         74.4340   19.5490   41.5900 C.2    96  LYS96       0.2260
    130  O         75.0320   18.6530   40.9780 O.2    96  LYS96      -0.2867
    131  CB        75.4420   21.7970   42.0820 C.3    96  LYS96       0.0271
    132  CG        74.2320   22.4140   41.4230 C.3    96  LYS96       0.0035
    133  CD        74.5550   23.7360   40.7830 C.3    96  LYS96       0.0206
    134  CE        75.0080   24.7550   41.8140 C.3    96  LYS96       0.1093
    135  NZ        75.1530   26.1330   41.2520 N.3    96  LYS96      -0.1314
@<TRIPOS>BOND
     1   133   132    1
     2   133   134    1
     3   130   129    2
     4    89    87    1
     5   135   134    1
     6   132   131    1
     7   129   128    1
     8   131   128    1
     9    84    87    1
    10    84    83    1
    11    84    85    1
    12    87    88    1
    13   128   127    1
    14    95    94    1
    15    95    96    1
    16    85    86    2
    17    98    96   am
    18    91    94    1
    19    91    90    1
    20    91    92    1
    21    96    97    2
    22    92    93    2
    23   102   101    2
    24   100    99    1
    25   100   101    1
    26   100   103    1
    27   108   106   ar
    28   108   109   ar
    29   106   104   ar
    30    81    80    2
    31   109   107   ar
    32   121   120    2
    33   120   119    1
    34   104   103    1
    35   104   105   ar
    36   107   105   ar
    37    80    79    1
    38    64    63    2
    39    73    70    1
    40    73    74    1
    41   118   119    1
    42   119   122    1
    43    78    79    1
    44    78    71   am
    45    70    71    1
    46    70    69    1
    47    56    55    2
    48   122   123    1
    49    82    79    1
    50    63    69   am
    51    63    62    1
    52    71    72    2
    53    75    74    1
    54    75    76    1
    55    61    62    1
    56    55    54    1
    57    53    54    1
    58    62    65    1
    59   123   124    1
    60   110   111    1
    61    76    77    1
    62    65    66    1
    63    54    57    1
    64    67    66    1
    65    59    57    1
    66   112   111    1
    67   112   113    2
    68   124   125    1
    69   111   114    1
    70    47    46    1
    71    46    43    1
    72    66    68    1
    73    57    58    1
    74    52    49    1
    75    49    48    1
    76    49    50    1
    77    58    60    1
    78    48    44   am
    79   114   115    1
    80   114   116    1
    81   125   126    1
    82   115   117    1
    83    44    45    2
    84    44    43    1
    85    43    42    1
    86    42    36   am
    87    50    51    2
    88    36    35    1
    89    36    37    2
    90    30    29    2
    91    35    38    1
    92    35    34    1
    93    32    33    1
    94    32    31    1
    95    38    40    1
    96    38    39    1
    97    25    24    1
    98    29    34   am
    99    29    28    1
   100    33    27    1
   101    31    28    1
   102    41    39    1
   103    28    27    1
   104    24    26    1
   105    24    23    2
   106    20    21    1
   107    20    17    1
   108    21    22    1
   109    27    18   am
   110    22    23    1
   111     7     5    1
   112     6     5    1
   113    14    12    1
   114    18    17    1
   115    18    19    2
   116    15    13    1
   117    13    12    1
   118    17    16    1
   119     5     2    1
   120    12     9    1
   121     1     2    1
   122     2     3    1
   123     4     3    2
   124     9     8    1
   125     9    10    1
   126    11    10    2
