@<TRIPOS>MOLECULE
tmp/3gd3A00.pdb
 128 128 0 0 0
SMALL
GASTEIGER

@<TRIPOS>ATOM
      1  N         -6.2020   40.1720   57.1400 N.3   217  PRO217     -0.2116
      2  CA        -7.0700   41.2920   57.4180 C.3   217  PRO217      0.1372
      3  C         -8.4770   40.9540   56.9810 C.2   217  PRO217      0.2244
      4  O         -8.6430   40.1150   56.0940 O.2   217  PRO217     -0.2868
      5  CB        -6.4950   42.4060   56.5410 C.3   217  PRO217      0.0268
      6  CG        -5.1430   41.9340   56.1260 C.3   217  PRO217      0.0207
      7  CD        -5.2200   40.4720   56.0900 C.3   217  PRO217      0.0892
      8  N        -10.8350   42.2300   55.0060 N.3   219  TYR219     -0.1241
      9  CA       -11.1540   42.2290   53.5740 C.3   219  TYR219      0.1605
     10  C        -10.6200   41.0500   52.7320 C.2   219  TYR219      0.2264
     11  O        -11.2050   40.7130   51.7190 O.2   219  TYR219     -0.2867
     12  CB       -10.7640   43.5610   52.9300 C.3   219  TYR219      0.0534
     13  CG        -9.2810   43.8200   52.8930 C.ar  219  TYR219     -0.0201
     14  CD1       -8.5980   44.2260   54.0410 C.ar  219  TYR219     -0.0009
     15  CD2       -8.5570   43.6720   51.7080 C.ar  219  TYR219     -0.0009
     16  CE1       -7.2190   44.4680   54.0200 C.ar  219  TYR219      0.0417
     17  CE2       -7.1780   43.9200   51.6770 C.ar  219  TYR219      0.0417
     18  CZ        -6.5140   44.3150   52.8430 C.ar  219  TYR219      0.1957
     19  OH        -5.1560   44.5720   52.8410 O.3   219  TYR219     -0.2866
     20  N         -4.5710   41.5680   64.1120 N.3   373  SER373     -0.1202
     21  CA        -4.6620   42.7350   65.0080 C.3   373  SER373      0.2020
     22  C         -3.5520   43.7970   64.8720 C.2   373  SER373      0.2619
     23  O         -3.6620   44.8940   65.4230 O.2   373  SER373     -0.2717
     24  CB        -4.7470   42.2730   66.4640 C.3   373  SER373      0.2103
     25  OG        -3.4710   41.8600   66.9300 O.3   373  SER373     -0.2182
     26  N         -2.4830   43.4670   64.1600 N.am  374  LEU374     -0.1966
     27  CA        -1.4040   44.4220   63.9270 C.3   374  LEU374      0.1713
     28  C         -1.7240   45.3400   62.7450 C.2   374  LEU374      0.2458
     29  O         -2.4910   44.9490   61.8530 O.2   374  LEU374     -0.2730
     30  CB        -0.0890   43.6820   63.6790 C.3   374  LEU374      0.0310
     31  CG         0.5220   42.8890   64.8360 C.3   374  LEU374      0.0022
     32  CD1        1.6660   42.0480   64.3090 C.3   374  LEU374      0.0001
     33  CD2        0.9960   43.7870   65.9710 C.3   374  LEU374      0.0001
     34  N         -1.1440   46.5620   62.7300 N.am  375  PRO375     -0.2716
     35  CA        -1.3330   47.5150   61.6280 C.3   375  PRO375      0.1536
     36  C         -0.9210   46.9320   60.2880 C.2   375  PRO375      0.2599
     37  O          0.1060   46.2660   60.1870 O.2   375  PRO375     -0.2715
     38  CB        -0.4220   48.6750   62.0060 C.3   375  PRO375      0.0310
     39  CG        -0.3270   48.5880   63.4830 C.3   375  PRO375      0.0237
     40  CD        -0.2860   47.1270   63.7820 C.3   375  PRO375      0.0939
     41  N         -1.7250   47.2070   59.2730 N.am  376  THR376     -0.1937
     42  CA        -1.7080   46.4560   58.0300 C.3   376  THR376      0.2028
     43  C         -1.6490   47.3860   56.8310 C.2   376  THR376      0.2642
     44  O         -2.3470   48.3990   56.7950 O.2   376  THR376     -0.2714
     45  CB        -2.9980   45.6000   57.9460 C.3   376  THR376      0.1808
     46  OG1       -2.8560   44.4500   58.7840 O.3   376  THR376     -0.2208
     47  CG2       -3.3120   45.1540   56.5180 C.3   376  THR376      0.0379
     48  N         -0.8100   47.0480   55.8580 N.am  377  VAL377     -0.1963
     49  CA        -0.8910   47.6790   54.5480 C.3   377  VAL377      0.1727
     50  C         -0.9360   46.5950   53.5070 C.2   377  VAL377      0.2617
     51  O         -0.1800   45.6360   53.5850 O.2   377  VAL377     -0.2715
     52  CB         0.2850   48.6130   54.2440 C.3   377  VAL377      0.0290
     53  CG1        0.1440   49.1790   52.8410 C.3   377  VAL377      0.0023
     54  CG2        0.3560   49.7520   55.2680 C.3   377  VAL377      0.0023
     55  N         -1.8280   46.7590   52.5360 N.am  378  GLY378     -0.1940
     56  CA        -2.0310   45.7820   51.4780 C.3   378  GLY378      0.2014
     57  C         -2.1860   46.4580   50.1400 C.2   378  GLY378      0.2639
     58  O         -3.0480   47.3310   49.9720 O.2   378  GLY378     -0.2714
     59  N         -1.3350   46.0750   49.1900 N.am  379  VAL379     -0.1963
     60  CA        -1.4330   46.5940   47.8170 C.3   379  VAL379      0.1727
     61  C         -1.8940   45.4600   46.9130 C.2   379  VAL379      0.2616
     62  O         -1.4730   44.3130   47.0920 O.2   379  VAL379     -0.2715
     63  CB        -0.1110   47.2450   47.3070 C.3   379  VAL379      0.0290
     64  CG1       -0.3130   47.8750   45.9380 C.3   379  VAL379      0.0023
     65  CG2        0.3690   48.3110   48.2710 C.3   379  VAL379      0.0023
     66  N         -2.7780   45.7880   45.9710 N.am  380  PHE380     -0.1960
     67  CA        -3.5160   44.7850   45.2070 C.3   380  PHE380      0.1771
     68  C         -3.6380   45.1140   43.7240 C.2   380  PHE380      0.2619
     69  O         -3.7560   46.2850   43.3370 O.2   380  PHE380     -0.2715
     70  CB        -4.9160   44.5890   45.8050 C.3   380  PHE380      0.0574
     71  CG        -4.9180   43.8710   47.1330 C.ar  380  PHE380     -0.0200
     72  CD1       -4.7060   44.5710   48.3240 C.ar  380  PHE380     -0.0042
     73  CD2       -5.1330   42.5010   47.1950 C.ar  380  PHE380     -0.0042
     74  CE1       -4.6940   43.9160   49.5500 C.ar  380  PHE380     -0.0003
     75  CE2       -5.1290   41.8360   48.4210 C.ar  380  PHE380     -0.0003
     76  CZ        -4.9090   42.5430   49.6000 C.ar  380  PHE380     -0.0000
     77  N         -3.6170   44.0680   42.8990 N.am  381  ALA381     -0.1963
     78  CA        -3.8610   44.2060   41.4620 C.3   381  ALA381      0.1728
     79  C         -4.5710   42.9860   40.8720 C.2   381  ALA381      0.2616
     80  O         -4.7290   41.9470   41.5340 O.2   381  ALA381     -0.2715
     81  CB        -2.5540   44.4920   40.7060 C.3   381  ALA381      0.0334
     82  N         -5.0110   43.1430   39.6220 N.am  382  LYS382     -0.1977
     83  CA        -5.6120   42.0640   38.8570 C.3   382  LYS382      0.1596
     84  C         -4.5150   41.0800   38.5330 C.2   382  LYS382      0.2287
     85  O         -3.4470   41.4710   38.0600 O.2   382  LYS382     -0.2864
     86  CB        -6.2450   42.6020   37.5720 C.3   382  LYS382      0.0298
     87  CG        -7.1170   41.5890   36.8380 C.3   382  LYS382      0.0038
     88  CD        -7.6530   42.1420   35.5360 C.3   382  LYS382      0.0206
     89  CE        -8.0090   41.0060   34.5930 C.3   382  LYS382      0.1093
     90  NZ        -8.2270   41.4860   33.1910 N.3   382  LYS382     -0.1314
     91  N         -9.9660   42.0150   41.2850 N.3   412  TYR412     -0.1241
     92  CA        -8.6770   41.8430   41.9810 C.3   412  TYR412      0.1605
     93  C         -8.4200   40.3780   42.2590 C.2   412  TYR412      0.2264
     94  O         -9.3670   39.6070   42.4050 O.2   412  TYR412     -0.2867
     95  CB        -8.6020   42.6550   43.2730 C.3   412  TYR412      0.0534
     96  CG        -8.7900   44.1240   43.0450 C.ar  412  TYR412     -0.0201
     97  CD1       -8.1310   44.7770   41.9990 C.ar  412  TYR412     -0.0009
     98  CD2       -9.6330   44.8640   43.8580 C.ar  412  TYR412     -0.0009
     99  CE1       -8.3160   46.1350   41.7690 C.ar  412  TYR412      0.0417
    100  CE2       -9.8220   46.2230   43.6380 C.ar  412  TYR412      0.0417
    101  CZ        -9.1610   46.8510   42.5960 C.ar  412  TYR412      0.1957
    102  OH        -9.3520   48.1970   42.3840 O.3   412  TYR412     -0.2866
    103  N          4.0510   51.4570   48.6690 N.3   454  ASN454     -0.1240
    104  CA         3.7050   51.0870   47.2990 C.3   454  ASN454      0.1653
    105  C          4.9230   50.6330   46.5230 C.2   454  ASN454      0.2266
    106  O          4.8850   49.5910   45.8750 O.2   454  ASN454     -0.2867
    107  CB         3.0540   52.2530   46.5540 C.3   454  ASN454      0.1155
    108  CG         1.6670   52.5640   47.0580 C.2   454  ASN454      0.2627
    109  OD1        1.4780   53.4940   47.8480 O.2   454  ASN454     -0.2716
    110  ND2        0.6850   51.7780   46.6180 N.am  454  ASN454     -0.0877
    111  N          3.4380   44.3690   40.8870 N.3   462  ILE462     -0.1231
    112  CA         2.2050   45.0410   41.3140 C.3   462  ILE462      0.1692
    113  C          2.2400   46.4980   40.8170 C.2   462  ILE462      0.2592
    114  O          2.9990   47.3230   41.3370 O.2   462  ILE462     -0.2718
    115  CB         2.0590   45.0550   42.8590 C.3   462  ILE462      0.0266
    116  CG1        2.4240   43.7040   43.5020 C.3   462  ILE462      0.0019
    117  CG2        0.6800   45.5390   43.2500 C.3   462  ILE462      0.0020
    118  CD1        1.3840   42.5980   43.3890 C.3   462  ILE462      0.0001
    119  N          1.4270   46.8130   39.8090 N.am  463  HIS463     -0.1976
    120  CA         1.4470   48.1380   39.1740 C.3   463  HIS463      0.1656
    121  C          0.0350   48.6630   38.8560 C.2   463  HIS463      0.2291
    122  O         -0.9710   48.1340   39.3500 O.2   463  HIS463     -0.2864
    123  CB         2.2880   48.1160   37.8900 C.3   463  HIS463      0.0771
    124  CG         3.4240   47.1410   37.9190 C.ar  463  HIS463      0.0820
    125  ND1        3.2400   45.7850   37.7490 N.ar  463  HIS463     -0.2267
    126  CD2        4.7560   47.3230   38.0820 C.ar  463  HIS463      0.1154
    127  CE1        4.4080   45.1730   37.8170 C.ar  463  HIS463      0.1986
    128  NE2        5.3450   46.0820   38.0200 N.ar  463  HIS463     -0.2212
@<TRIPOS>BOND
     1    90    89    1
     2    89    88    1
     3    88    87    1
     4    87    86    1
     5    86    83    1
     6   125   127   ar
     7   125   124   ar
     8   127   128   ar
     9   123   124    1
    10   123   120    1
    11   124   126   ar
    12   128   126   ar
    13    85    84    2
    14    84    83    1
    15   121   120    1
    16   121   122    2
    17    83    82    1
    18   120   119    1
    19    82    79   am
    20   119   113   am
    21    81    78    1
    22   113   112    1
    23   113   114    2
    24    79    78    1
    25    79    80    2
    26   111   112    1
    27    91    92    1
    28   112   115    1
    29    78    77    1
    30    99    97   ar
    31    99   101   ar
    32    92    93    1
    33    92    95    1
    34    97    96   ar
    35    93    94    2
    36   102   101    1
    37   101   100   ar
    38   115   117    1
    39   115   116    1
    40    77    68   am
    41    96    95    1
    42    96    98   ar
    43    69    68    2
    44   118   116    1
    45   100    98   ar
    46    68    67    1
    47    67    70    1
    48    67    66    1
    49    70    71    1
    50   106   105    2
    51    64    63    1
    52    66    61   am
    53   105   104    1
    54   107   108    1
    55   107   104    1
    56   110   108   am
    57    61    62    2
    58    61    60    1
    59   108   109    2
    60    71    73   ar
    61    71    72   ar
    62    73    75   ar
    63   104   103    1
    64    63    60    1
    65    63    65    1
    66    60    59    1
    67    72    74   ar
    68    75    76   ar
    69    59    57   am
    70    74    76   ar
    71    58    57    2
    72    57    56    1
    73    56    55    1
    74    17    15   ar
    75    17    18   ar
    76    15    13   ar
    77    11    10    2
    78    55    50   am
    79    10     9    1
    80    53    52    1
    81    19    18    1
    82    18    16   ar
    83    13    12    1
    84    13    14   ar
    85    12     9    1
    86    50    51    2
    87    50    49    1
    88     9     8    1
    89    16    14   ar
    90    52    49    1
    91    52    54    1
    92    49    48    1
    93    48    43   am
    94     7     6    1
    95     7     1    1
    96     4     3    2
    97     6     5    1
    98    47    45    1
    99     5     2    1
   100    44    43    2
   101    43    42    1
   102     3     2    1
   103     1     2    1
   104    45    42    1
   105    45    46    1
   106    42    41    1
   107    41    36   am
   108    37    36    2
   109    36    35    1
   110    35    38    1
   111    35    34    1
   112    29    28    2
   113    38    39    1
   114    34    28   am
   115    34    40    1
   116    28    27    1
   117    39    40    1
   118    30    27    1
   119    30    31    1
   120    27    26    1
   121    20    21    1
   122    26    22   am
   123    32    31    1
   124    31    33    1
   125    22    21    1
   126    22    23    2
   127    21    24    1
   128    24    25    1
