@<TRIPOS>MOLECULE
tmp/3gd7A00.pdb
 101 96 0 0 0
SMALL
GASTEIGER

@<TRIPOS>ATOM
      1  N        -59.8260   62.3540    4.9360 N.3    18  TYR18      -0.1227
      2  CA       -59.3910   63.1020    6.1200 C.3    18  TYR18       0.1736
      3  C        -60.2320   64.3480    6.3690 C.2    18  TYR18       0.2596
      4  O        -60.4330   64.7530    7.5160 O.2    18  TYR18      -0.2718
      5  CB       -57.9130   63.4790    6.0230 C.3    18  TYR18       0.0548
      6  CG       -56.9770   62.3360    6.3250 C.ar   18  TYR18      -0.0200
      7  CD1      -56.4490   61.5610    5.3000 C.ar   18  TYR18      -0.0009
      8  CD2      -56.6270   62.0220    7.6380 C.ar   18  TYR18      -0.0009
      9  CE1      -55.5910   60.5010    5.5660 C.ar   18  TYR18       0.0417
     10  CE2      -55.7640   60.9660    7.9180 C.ar   18  TYR18       0.0417
     11  CZ       -55.2500   60.2100    6.8760 C.ar   18  TYR18       0.1957
     12  OH       -54.3960   59.1630    7.1360 O.3    18  TYR18      -0.2866
     13  N        -60.7030   64.9650    5.2910 N.am   19  THR19      -0.1953
     14  CA       -61.6320   66.0870    5.3870 C.3    19  THR19       0.1897
     15  C        -62.8290   65.8510    4.4820 C.2    19  THR19       0.2313
     16  O        -62.6730   65.6140    3.2800 O.2    19  THR19      -0.2863
     17  CB       -60.9790   67.4370    5.0060 C.3    19  THR19       0.1794
     18  OG1      -60.3080   67.3120    3.7460 O.3    19  THR19      -0.2208
     19  CG2      -59.9910   67.8890    6.0760 C.3    19  THR19       0.0378
     20  N        -58.5000   58.7550   -0.1570 N.3    25  ILE25      -0.1245
     21  CA       -57.2010   58.0850   -0.2290 C.3    25  ILE25       0.1561
     22  C        -57.4290   56.5980   -0.4750 C.2    25  ILE25       0.2260
     23  O        -56.6430   55.9360   -1.1610 O.2    25  ILE25      -0.2867
     24  CB       -56.3620   58.3170    1.0570 C.3    25  ILE25       0.0252
     25  CG1      -56.1480   59.8120    1.3060 C.3    25  ILE25       0.0019
     26  CG2      -55.0070   57.6460    0.9570 C.3    25  ILE25       0.0019
     27  CD1      -57.2460   60.4730    2.1120 C.3    25  ILE25       0.0001
     28  N        -45.4120   54.5390   -1.9150 N.3    45  THR45      -0.1203
     29  CA       -45.2340   55.5650   -0.8960 C.3    45  THR45       0.1994
     30  C        -46.2910   56.6600   -1.0530 C.2    45  THR45       0.2618
     31  O        -46.2120   57.4950   -1.9530 O.2    45  THR45      -0.2717
     32  CB       -43.7780   56.1250   -0.8500 C.3    45  THR45       0.1784
     33  OG1      -43.7380   57.3050   -0.0380 O.3    45  THR45      -0.2211
     34  CG2      -43.2420   56.4480   -2.2480 C.3    45  THR45       0.0376
     35  N        -47.3000   56.6100   -0.1840 N.am   46  GLY46      -0.1942
     36  CA       -48.4150   57.5580   -0.2070 C.3    46  GLY46       0.2014
     37  C        -49.7630   56.9430   -0.5460 C.2    46  GLY46       0.2640
     38  O        -50.7610   57.6550   -0.6520 O.2    46  GLY46      -0.2714
     39  N        -49.8000   55.6200   -0.7030 N.am   47  SER47      -0.1935
     40  CA       -51.0180   54.9160   -1.1310 C.3    47  SER47       0.2055
     41  C        -52.1110   54.8130   -0.0600 C.2    47  SER47       0.2644
     42  O        -53.2760   54.5840   -0.3870 O.2    47  SER47      -0.2714
     43  CB       -50.6800   53.5290   -1.6940 C.3    47  SER47       0.2130
     44  OG       -49.8030   52.8190   -0.8400 O.3    47  SER47      -0.2179
     45  N        -51.7320   54.9690    1.2080 N.am   48  GLY48      -0.1939
     46  CA       -52.6920   54.9770    2.3150 C.3    48  GLY48       0.2014
     47  C        -52.6240   53.7970    3.2710 C.2    48  GLY48       0.2639
     48  O        -53.6600   53.2920    3.7180 O.2    48  GLY48      -0.2714
     49  N        -51.4070   53.3660    3.5960 N.am   49  LYS49      -0.1963
     50  CA       -51.2040   52.2620    4.5380 C.3    49  LYS49       0.1728
     51  C        -51.6290   52.6420    5.9610 C.2    49  LYS49       0.2617
     52  O        -52.4780   51.9740    6.5580 O.2    49  LYS49      -0.2715
     53  CB       -49.7510   51.7820    4.5080 C.3    49  LYS49       0.0311
     54  CG       -49.3560   51.0830    3.2150 C.3    49  LYS49       0.0038
     55  CD       -47.8490   50.9710    3.0800 C.3    49  LYS49       0.0206
     56  CE       -47.2480   52.2380    2.4940 C.3    49  LYS49       0.1093
     57  NZ       -45.7630   52.1960    2.4840 N.3    49  LYS49      -0.1314
     58  N        -51.0420   53.7180    6.4870 N.am   50  SER50      -0.1936
     59  CA       -51.4240   54.2670    7.7900 C.3    50  SER50       0.2055
     60  C        -52.9150   54.5910    7.8380 C.2    50  SER50       0.2643
     61  O        -53.5850   54.3410    8.8500 O.2    50  SER50      -0.2714
     62  CB       -50.6160   55.5250    8.0980 C.3    50  SER50       0.2130
     63  OG       -49.2970   55.1970    8.4770 O.3    50  SER50      -0.2179
     64  N        -53.4180   55.1400    6.7310 N.am   51  THR51      -0.1950
     65  CA       -54.8310   55.4620    6.5720 C.3    51  THR51       0.1897
     66  C        -55.7030   54.2310    6.8030 C.2    51  THR51       0.2313
     67  O        -56.6670   54.3000    7.5600 O.2    51  THR51      -0.2863
     68  CB       -55.1200   56.0830    5.1860 C.3    51  THR51       0.1794
     69  OG1      -54.3280   57.2630    5.0190 O.3    51  THR51      -0.2208
     70  CG2      -56.5850   56.4590    5.0490 C.3    51  THR51       0.0378
     71  N        -55.7820   53.5570   10.3830 N.3    54  SER54      -0.1217
     72  CA       -56.6250   54.5830   10.9930 C.3    54  SER54       0.1889
     73  C        -58.1050   54.3190   10.7170 C.2    54  SER54       0.2288
     74  O        -58.9600   54.5990   11.5600 O.2    54  SER54      -0.2866
     75  CB       -56.2450   55.9720   10.4760 C.3    54  SER54       0.2089
     76  OG       -55.0410   56.4320   11.0630 O.3    54  SER54      -0.2183
     77  N        -60.7160   56.7720   12.8350 N.3    59  LEU59      -0.1231
     78  CA       -60.0520   57.9920   13.2860 C.3    59  LEU59       0.1693
     79  C        -60.2350   59.1140   12.2660 C.2    59  LEU59       0.2591
     80  O        -59.8370   60.2610   12.4990 O.2    59  LEU59      -0.2718
     81  CB       -58.5620   57.7350   13.5300 C.3    59  LEU59       0.0284
     82  CG       -58.1610   56.7170   14.6020 C.3    59  LEU59       0.0019
     83  CD1      -56.6660   56.4330   14.5220 C.3    59  LEU59       0.0001
     84  CD2      -58.5530   57.1710   16.0050 C.3    59  LEU59       0.0001
     85  N        -60.8350   58.7650   11.1320 N.am   60  LEU60      -0.1980
     86  CA       -61.1360   59.7150   10.0730 C.3    60  LEU60       0.1596
     87  C        -62.5330   59.4420    9.5140 C.2    60  LEU60       0.2287
     88  O        -63.2330   58.5410    9.9950 O.2    60  LEU60      -0.2864
     89  CB       -60.0640   59.6520    8.9770 C.3    60  LEU60       0.0297
     90  CG       -59.9600   58.4800    7.9910 C.3    60  LEU60       0.0022
     91  CD1      -58.9060   58.8000    6.9480 C.3    60  LEU60       0.0001
     92  CD2      -59.6320   57.1640    8.6680 C.3    60  LEU60       0.0001
     93  N        -45.2510   50.1710   11.5720 N.3   170  GLU170     -0.1245
     94  CA       -43.7910   50.3090   11.6250 C.3   170  GLU170      0.1567
     95  C        -43.2170   50.1610   13.0360 C.2   170  GLU170      0.2260
     96  O        -42.5490   51.0710   13.5360 O.2   170  GLU170     -0.2867
     97  CB       -43.3460   51.6300   10.9940 C.3   170  GLU170      0.0388
     98  CG       -43.3780   51.6340    9.4850 C.3   170  GLU170      0.1160
     99  CD       -43.0260   52.9870    8.9140 C.2   170  GLU170      0.3649
    100  OE1      -43.8750   53.9020    8.9880 O.co2 170  GLU170     -0.2457
    101  OE2      -41.9000   53.1310    8.3880 O.co2 170  GLU170     -0.2457
@<TRIPOS>BOND
     1    34    32    1
     2    31    30    2
     3    28    29    1
     4    43    40    1
     5    43    44    1
     6    23    22    2
     7    40    39    1
     8    40    41    1
     9    30    29    1
    10    30    35   am
    11    29    32    1
    12    32    33    1
    13    39    37   am
    14    38    37    2
    15    37    36    1
    16    22    21    1
    17    42    41    2
    18    21    20    1
    19    21    24    1
    20    36    35    1
    21    41    45   am
    22    26    24    1
    23    24    25    1
    24    45    46    1
    25    25    27    1
    26    46    47    1
    27    57    56    1
    28    56    55    1
    29    55    54    1
    30    54    53    1
    31    47    49   am
    32    47    48    2
    33    16    15    2
    34    49    50    1
    35    18    17    1
    36    15    14    1
    37    53    50    1
    38    50    51    1
    39     1     2    1
    40    17    14    1
    41    17    19    1
    42    69    68    1
    43    70    68    1
    44    68    65    1
    45    13    14    1
    46    13     3   am
    47     7     9   ar
    48     7     6   ar
    49     9    11   ar
    50    51    58   am
    51    51    52    2
    52     5     2    1
    53     5     6    1
    54     2     3    1
    55     6     8   ar
    56     3     4    2
    57    58    59    1
    58    65    64    1
    59    65    66    1
    60    64    60   am
    61    66    67    2
    62    11    12    1
    63    11    10   ar
    64    91    90    1
    65     8    10   ar
    66    59    60    1
    67    59    62    1
    68    60    61    2
    69    90    92    1
    70    90    89    1
    71    62    63    1
    72   101    99   ar
    73    99   100   ar
    74    99    98    1
    75    89    86    1
    76    98    97    1
    77    87    88    2
    78    87    86    1
    79    86    85    1
    80    71    72    1
    81    75    72    1
    82    75    76    1
    83    73    72    1
    84    73    74    2
    85    97    94    1
    86    85    79   am
    87    93    94    1
    88    94    95    1
    89    79    80    2
    90    79    78    1
    91    77    78    1
    92    95    96    2
    93    78    81    1
    94    81    82    1
    95    83    82    1
    96    82    84    1
