@<TRIPOS>MOLECULE
tmp/3gd9A00.pdb
 158 152 0 0 0
SMALL
GASTEIGER

@<TRIPOS>ATOM
      1  N         11.6370   -4.6770   23.1890 N.3   118  GLU118     -0.1231
      2  CA        10.9480   -4.8960   21.9030 C.3   118  GLU118      0.1699
      3  C         11.8910   -5.6670   21.0070 C.2   118  GLU118      0.2592
      4  O         13.0910   -5.4110   21.0110 O.2   118  GLU118     -0.2718
      5  CB        10.5640   -3.5350   21.2900 C.3   118  GLU118      0.0402
      6  CG         9.6600   -2.7160   22.2680 C.3   118  GLU118      0.1161
      7  CD         9.4020   -1.2840   21.8370 C.2   118  GLU118      0.3649
      8  OE1       10.2160   -0.7180   21.0720 O.co2 118  GLU118     -0.2457
      9  OE2        8.3690   -0.7030   22.3070 O.co2 118  GLU118     -0.2457
     10  N         11.3740   -6.6730   20.3100 N.am  119  TYR119     -0.1962
     11  CA        12.2180   -7.4410   19.3830 C.3   119  TYR119      0.1771
     12  C         11.4690   -7.8900   18.1590 C.2   119  TYR119      0.2620
     13  O         10.2320   -8.0380   18.1770 O.2   119  TYR119     -0.2715
     14  CB        12.8480   -8.6540   20.0840 C.3   119  TYR119      0.0574
     15  CG        11.9260   -9.8530   20.2380 C.ar  119  TYR119     -0.0198
     16  CD1       10.9540   -9.8930   21.2610 C.ar  119  TYR119     -0.0009
     17  CD2       12.0090  -10.9330   19.3650 C.ar  119  TYR119     -0.0009
     18  CE1       10.1180  -11.0080   21.4310 C.ar  119  TYR119      0.0417
     19  CE2       11.1420  -12.0450   19.4910 C.ar  119  TYR119      0.0417
     20  CZ        10.2210  -12.0790   20.5350 C.ar  119  TYR119      0.1957
     21  OH         9.4180  -13.1630   20.6980 O.3   119  TYR119     -0.2866
     22  N         12.2260   -8.1240   17.0910 N.am  120  THR120     -0.1951
     23  CA        11.7350   -8.8610   15.9260 C.3   120  THR120      0.1897
     24  C         12.7610   -9.9180   15.5530 C.2   120  THR120      0.2313
     25  O         13.9530   -9.6180   15.4490 O.2   120  THR120     -0.2863
     26  CB        11.5510   -7.8980   14.7350 C.3   120  THR120      0.1794
     27  OG1       10.5500   -6.9260   15.0670 O.3   120  THR120     -0.2208
     28  CG2       11.1270   -8.6680   13.4510 C.3   120  THR120      0.0378
     29  N         13.1710  -12.6270   12.4510 N.3   122  ASN122     -0.1240
     30  CA        12.6250  -13.1190   11.1770 C.3   122  ASN122      0.1653
     31  C         13.6960  -13.7230   10.3070 C.2   122  ASN122      0.2266
     32  O         14.7860  -14.0030   10.7870 O.2   122  ASN122     -0.2867
     33  CB        11.8370  -12.0160   10.4460 C.3   122  ASN122      0.1155
     34  CG        12.6990  -10.8130   10.0610 C.2   122  ASN122      0.2627
     35  OD1       13.9080  -10.9260    9.8430 O.2   122  ASN122     -0.2716
     36  ND2       12.0510   -9.6650    9.9030 N.am  122  ASN122     -0.0877
     37  N         15.5640  -12.5030    8.2400 N.3   124  SER124     -0.1217
     38  CA        16.6960  -11.5810    8.0340 C.3   124  SER124      0.1889
     39  C         17.5110  -11.3350    9.3030 C.2   124  SER124      0.2288
     40  O         18.4920  -10.5870    9.2710 O.2   124  SER124     -0.2866
     41  CB        16.1940  -10.2430    7.4930 C.3   124  SER124      0.2089
     42  OG        15.6650  -10.4140    6.1830 O.3   124  SER124     -0.2183
     43  N         16.3970   -8.1190   15.5960 N.3   127  TRP127     -0.1227
     44  CA        16.5250   -6.7440   16.1310 C.3   127  TRP127      0.1737
     45  C         15.9740   -6.7640   17.5390 C.2   127  TRP127      0.2595
     46  O         14.9140   -7.3360   17.7700 O.2   127  TRP127     -0.2718
     47  CB        15.7300   -5.7550   15.2580 C.3   127  TRP127      0.0564
     48  CG        16.3240   -5.5730   13.8810 C.ar  127  TRP127      0.0003
     49  CD1       17.0970   -4.5370   13.4520 C.ar  127  TRP127      0.0946
     50  CD2       16.2400   -6.5020   12.7780 C.ar  127  TRP127      0.0152
     51  NE1       17.4620   -4.7330   12.1250 N.ar  127  TRP127     -0.2442
     52  CE2       16.9520   -5.9370   11.6970 C.ar  127  TRP127      0.0810
     53  CE3       15.5800   -7.7310   12.5860 C.ar  127  TRP127      0.0012
     54  CZ2       17.0660   -6.5840   10.4460 C.ar  127  TRP127      0.0191
     55  CZ3       15.6900   -8.3640   11.3380 C.ar  127  TRP127      0.0001
     56  CH2       16.4340   -7.7890   10.2970 C.ar  127  TRP127      0.0015
     57  N         16.7020   -6.1910   18.5000 N.am  128  ILE128     -0.1966
     58  CA        16.2210   -6.1600   19.8790 C.3   128  ILE128      0.1727
     59  C         16.6470   -4.8590   20.5430 C.2   128  ILE128      0.2616
     60  O         17.7620   -4.3720   20.3240 O.2   128  ILE128     -0.2715
     61  CB        16.7000   -7.4310   20.6830 C.3   128  ILE128      0.0290
     62  CG1       16.1130   -7.4410   22.1010 C.3   128  ILE128      0.0022
     63  CG2       18.2650   -7.5390   20.6760 C.3   128  ILE128      0.0023
     64  CD1       16.2690   -8.8040   22.8340 C.3   128  ILE128      0.0001
     65  N         15.7190   -4.2380   21.2720 N.am  129  ASN129     -0.1972
     66  CA        15.9530   -2.9000   21.7810 C.3   129  ASN129      0.1688
     67  C         15.6240   -2.7370   23.2520 C.2   129  ASN129      0.2292
     68  O         14.8940   -3.5570   23.8540 O.2   129  ASN129     -0.2864
     69  CB        15.1990   -1.8480   20.9340 C.3   129  ASN129      0.1181
     70  CG        13.7730   -1.5510   21.4830 C.2   129  ASN129      0.2629
     71  OD1       13.3210   -2.1600   22.4700 O.2   129  ASN129     -0.2716
     72  ND2       13.0970   -0.6480   20.8660 N.am  129  ASN129     -0.0877
     73  N         13.9780    0.3570   25.3790 N.3   131  THR131     -0.1218
     74  CA        13.2080    1.5400   25.0310 C.3   131  THR131      0.1862
     75  C         12.7340    2.2970   26.2430 C.2   131  THR131      0.2287
     76  O         12.4380    1.7070   27.2830 O.2   131  THR131     -0.2866
     77  CB        11.9850    1.2020   24.1170 C.3   131  THR131      0.1770
     78  OG1       11.3090    2.4140   23.7520 O.3   131  THR131     -0.2211
     79  CG2       10.9970    0.2470   24.8660 C.3   131  THR131      0.0375
     80  N         10.5680    5.0070   25.3650 N.3   133  VAL133     -0.1245
     81  CA         9.6490    5.9150   24.6410 C.3   133  VAL133      0.1561
     82  C          8.3620    6.1540   25.4170 C.2   133  VAL133      0.2260
     83  O          7.7720    7.2440   25.3550 O.2   133  VAL133     -0.2867
     84  CB         9.3520    5.4160   23.2080 C.3   133  VAL133      0.0252
     85  CG1        8.3030    6.2830   22.5570 C.3   133  VAL133      0.0019
     86  CG2       10.6110    5.4750   22.3950 C.3   133  VAL133      0.0019
     87  N          5.8290   13.2130   21.0090 N.3   269  GLY269     -0.1210
     88  CA         5.2830   11.9540   20.5230 C.3   269  GLY269      0.1956
     89  C          5.6600   11.6330   19.0920 C.2   269  GLY269      0.2612
     90  O          5.3000   10.5570   18.5880 O.2   269  GLY269     -0.2717
     91  N          6.3910   12.5500   18.4270 N.am  270  CYS270     -0.1956
     92  CA         6.7350   12.3710   17.0050 C.3   270  CYS270      0.1843
     93  C          5.5100   11.9940   16.1760 C.2   270  CYS270      0.2625
     94  O          5.5180   11.0110   15.4160 O.2   270  CYS270     -0.2714
     95  CB         7.8380   11.3160   16.8500 C.3   270  CYS270      0.0997
     96  SG         9.3710   11.8150   17.6620 S.3   270  CYS270     -0.0797
     97  N          4.4620   12.7930   16.3100 N.am  271  HIS271     -0.1973
     98  CA         3.1690   12.4530   15.7380 C.3   271  HIS271      0.1656
     99  C          2.3070   13.6950   15.6050 C.2   271  HIS271      0.2291
    100  O          2.8070   14.8010   15.7790 O.2   271  HIS271     -0.2864
    101  CB         2.4750   11.3380   16.5650 C.3   271  HIS271      0.0771
    102  CG         1.9030   11.7860   17.8820 C.ar  271  HIS271      0.0820
    103  ND1        2.4130   12.8420   18.6140 N.ar  271  HIS271     -0.2267
    104  CD2        0.9090   11.2540   18.6370 C.ar  271  HIS271      0.1154
    105  CE1        1.7050   12.9870   19.7240 C.ar  271  HIS271      0.1986
    106  NE2        0.8050   12.0190   19.7730 N.ar  271  HIS271     -0.2212
    107  N          4.7280   11.0310   10.7590 N.3   276  ALA276     -0.1245
    108  CA         5.7820   10.5300    9.8740 C.3   276  ALA276      0.1562
    109  C          5.3030    9.2780    9.1330 C.2   276  ALA276      0.2260
    110  O          5.7260    8.1560    9.4600 O.2   276  ALA276     -0.2867
    111  CB         7.0520   10.2240   10.6740 C.3   276  ALA276      0.0290
    112  N         10.6690   12.6210   10.2900 N.3   284  ARG284     -0.1245
    113  CA        11.6000   11.9440   11.2060 C.3   284  ARG284      0.1563
    114  C         12.7900   12.8290   11.5630 C.2   284  ARG284      0.2260
    115  O         13.1330   12.9830   12.7170 O.2   284  ARG284     -0.2867
    116  CB        12.1100   10.6570   10.5900 C.3   284  ARG284      0.0307
    117  CG        11.0900    9.5800   10.5010 C.3   284  ARG284      0.0489
    118  CD        11.7430    8.2610   10.0710 C.3   284  ARG284      0.2205
    119  NE        10.8960    7.1090   10.3830 N.pl3 284  ARG284     -0.0865
    120  CZ         9.7940    6.7770    9.7080 C.cat 284  ARG284      0.5346
    121  NH1        9.4000    7.4990    8.6550 N.pl3 284  ARG284      0.1354
    122  NH2        9.0900    5.7140   10.0810 N.pl3 284  ARG284      0.1354
    123  N         16.4900    5.1210   23.8210 N.3   332  TYR332     -0.1241
    124  CA        15.3210    5.3660   23.0050 C.3   332  TYR332      0.1605
    125  C         14.4240    6.3160   23.7820 C.2   332  TYR332      0.2264
    126  O         13.4260    5.9240   24.3570 O.2   332  TYR332     -0.2867
    127  CB        14.6090    4.0540   22.6520 C.3   332  TYR332      0.0534
    128  CG        14.5890    3.7630   21.1640 C.ar  332  TYR332     -0.0201
    129  CD1       14.1160    4.7180   20.2630 C.ar  332  TYR332     -0.0009
    130  CD2       15.0220    2.5340   20.6570 C.ar  332  TYR332     -0.0009
    131  CE1       14.0440    4.4600   18.8910 C.ar  332  TYR332      0.0417
    132  CE2       14.9480    2.2660   19.2710 C.ar  332  TYR332      0.0417
    133  CZ        14.4560    3.2530   18.4070 C.ar  332  TYR332      0.1957
    134  OH        14.3670    3.0220   17.0460 O.3   332  TYR332     -0.2866
    135  N         10.6180    8.6820   19.9800 N.3   335  ALA335     -0.1231
    136  CA        10.3940    7.6570   18.9390 C.3   335  ALA335      0.1694
    137  C         11.4770    7.6350   17.8410 C.2   335  ALA335      0.2592
    138  O         11.7930    6.5690   17.2840 O.2   335  ALA335     -0.2718
    139  CB         9.0150    7.8260   18.3180 C.3   335  ALA335      0.0304
    140  N         12.0490    8.7940   17.5350 N.am  336  PHE336     -0.1976
    141  CA        13.0470    8.8740   16.4460 C.3   336  PHE336      0.1639
    142  C         14.4570    9.1530   16.9120 C.2   336  PHE336      0.2290
    143  O         15.2530    9.7450   16.1920 O.2   336  PHE336     -0.2864
    144  CB        12.6030    9.8750   15.3680 C.3   336  PHE336      0.0560
    145  CG        11.4060    9.4190   14.5940 C.ar  336  PHE336     -0.0200
    146  CD1       11.3660    8.1300   14.0500 C.ar  336  PHE336     -0.0042
    147  CD2       10.3100   10.2490   14.4280 C.ar  336  PHE336     -0.0042
    148  CE1       10.2500    7.6850   13.3370 C.ar  336  PHE336     -0.0003
    149  CE2        9.1830    9.8150   13.7150 C.ar  336  PHE336     -0.0003
    150  CZ         9.1460    8.5280   13.1810 C.ar  336  PHE336     -0.0000
    151  N         19.4950   -0.0280   20.2750 N.3   345  LEU345     -0.1245
    152  CA        19.0460   -1.1990   19.5520 C.3   345  LEU345      0.1561
    153  C         20.2690   -1.9520   19.1170 C.2   345  LEU345      0.2260
    154  O         21.2550   -1.3370   18.7090 O.2   345  LEU345     -0.2867
    155  CB        18.2420   -0.7850   18.3180 C.3   345  LEU345      0.0270
    156  CG        17.6750   -1.9580   17.4790 C.3   345  LEU345      0.0019
    157  CD1       16.2790   -1.6670   16.9550 C.3   345  LEU345      0.0001
    158  CD2       18.6190   -2.2890   16.3310 C.3   345  LEU345      0.0001
@<TRIPOS>BOND
     1    42    41    1
     2    41    38    1
     3    38    37    1
     4    38    39    1
     5   121   120    1
     6   109   110    2
     7   109   108    1
     8    40    39    2
     9   120   122    1
    10   120   119    2
    11    35    34    2
    12   108   111    1
    13   108   107    1
    14    36    34   am
    15    34    33    1
    16   118   119    1
    17   118   117    1
    18   112   113    1
    19    56    54   ar
    20    56    55   ar
    21    31    32    2
    22    31    30    1
    23    33    30    1
    24    54    52   ar
    25   117   116    1
    26   116   113    1
    27    30    29    1
    28   113   114    1
    29    55    53   ar
    30   114   115    2
    31    52    51   ar
    32    52    50   ar
    33    51    49   ar
    34    53    50   ar
    35    50    48   ar
    36   150   148   ar
    37   150   149   ar
    38   148   146   ar
    39    28    26    1
    40    49    48   ar
    41   149   147   ar
    42    48    47    1
    43   146   145   ar
    44   147   145   ar
    45   145   144    1
    46    26    27    1
    47    26    23    1
    48    47    44    1
    49   144   141    1
    50    94    93    2
    51    25    24    2
    52    24    23    1
    53    43    44    1
    54    99    98    1
    55    99   100    2
    56    98    97    1
    57    98   101    1
    58    23    22    1
    59    44    45    1
    60    93    97   am
    61    93    92    1
    62   143   142    2
    63   158   156    1
    64   141   142    1
    65   141   140    1
    66   101   102    1
    67    95    92    1
    68    95    96    1
    69   157   156    1
    70    92    91    1
    71   134   133    1
    72    22    12   am
    73   138   137    2
    74   156   155    1
    75   140   137   am
    76    45    46    2
    77    45    57   am
    78   137   136    1
    79   102   103   ar
    80   102   104   ar
    81    12    13    2
    82    12    11    1
    83   139   136    1
    84   155   152    1
    85   133   131   ar
    86   133   132   ar
    87    91    89   am
    88    57    58    1
    89    90    89    2
    90   103   105   ar
    91   104   106   ar
    92   154   153    2
    93   131   129   ar
    94   136   135    1
    95    89    88    1
    96   153   152    1
    97   132   130   ar
    98    17    19   ar
    99    17    15   ar
   100    11    14    1
   101    11    10    1
   102    19    20   ar
   103   152   151    1
   104   105   106   ar
   105    58    59    1
   106    58    61    1
   107    14    15    1
   108    15    16   ar
   109   129   128   ar
   110    10     3   am
   111    60    59    2
   112    88    87    1
   113    20    21    1
   114    20    18   ar
   115    59    65   am
   116   130   128   ar
   117    63    61    1
   118    61    62    1
   119    72    70   am
   120    69    70    1
   121    69    66    1
   122     3     4    2
   123     3     2    1
   124     8     7   ar
   125   128   127    1
   126    16    18   ar
   127    65    66    1
   128     5     2    1
   129     5     6    1
   130    70    71    2
   131    66    67    1
   132     7     6    1
   133     7     9   ar
   134     2     1    1
   135    62    64    1
   136    86    84    1
   137    85    84    1
   138   127   124    1
   139   124   125    1
   140   124   123    1
   141    84    81    1
   142    67    68    2
   143    78    77    1
   144   125   126    2
   145    77    79    1
   146    77    74    1
   147    81    80    1
   148    81    82    1
   149    74    73    1
   150    74    75    1
   151    83    82    2
   152    75    76    2
