@<TRIPOS>MOLECULE
tmp/3gdhA01.pdb
 203 199 0 0 0
SMALL
GASTEIGER

@<TRIPOS>ATOM
      1  N         21.0440   15.9700  -56.9660 N.3    34  GLU34      -0.1245
      2  CA        21.5170   17.0020  -56.0480 C.3    34  GLU34       0.1567
      3  C         23.0260   17.1620  -56.1280 C.2    34  GLU34       0.2260
      4  O         23.5490   18.2700  -56.0110 O.2    34  GLU34      -0.2867
      5  CB        21.1000   16.7060  -54.5970 C.3    34  GLU34       0.0388
      6  CG        21.8410   17.5700  -53.5640 C.3    34  GLU34       0.1160
      7  CD        21.2760   17.4570  -52.1510 C.2    34  GLU34       0.3649
      8  OE1       21.5220   18.3730  -51.3390 O.co2  34  GLU34      -0.2457
      9  OE2       20.5840   16.4630  -51.8460 O.co2  34  GLU34      -0.2457
     10  N         25.1170   20.7280  -56.8360 N.3    38  SER38      -0.1202
     11  CA        25.7850   21.2650  -55.6480 C.3    38  SER38       0.2020
     12  C         27.2980   21.1480  -55.6230 C.2    38  SER38       0.2619
     13  O         27.9610   21.8160  -54.8210 O.2    38  SER38      -0.2717
     14  CB        25.2070   20.6040  -54.3970 C.3    38  SER38       0.2103
     15  OG        23.8190   20.8690  -54.3020 O.3    38  SER38      -0.2182
     16  N         27.8540   20.3050  -56.4890 N.am   39  VAL39      -0.1965
     17  CA        29.2820   20.0270  -56.4190 C.3    39  VAL39       0.1727
     18  C         30.0880   21.2760  -56.7650 C.2    39  VAL39       0.2616
     19  O         29.7620   21.9890  -57.7120 O.2    39  VAL39      -0.2715
     20  CB        29.6910   18.8140  -57.3050 C.3    39  VAL39       0.0290
     21  CG1       29.4450   19.0960  -58.7750 C.3    39  VAL39       0.0023
     22  CG2       31.1540   18.4270  -57.0550 C.3    39  VAL39       0.0023
     23  N         31.1190   21.5470  -55.9710 N.am   40  THR40      -0.1951
     24  CA        32.0120   22.6730  -56.2200 C.3    40  THR40       0.1897
     25  C         32.8830   22.3650  -57.4320 C.2    40  THR40       0.2313
     26  O         33.5600   21.3470  -57.4560 O.2    40  THR40      -0.2863
     27  CB        32.9360   22.9310  -55.0200 C.3    40  THR40       0.1794
     28  OG1       32.1520   23.1380  -53.8370 O.3    40  THR40      -0.2208
     29  CG2       33.8200   24.1620  -55.2720 C.3    40  THR40       0.0378
     30  N         35.1370   18.2520  -43.5950 N.3    63  ASP63      -0.1225
     31  CA        34.2190   18.6720  -44.6430 C.3    63  ASP63       0.1805
     32  C         32.8280   18.2730  -44.1860 C.2    63  ASP63       0.2598
     33  O         32.3970   17.1300  -44.3850 O.2    63  ASP63      -0.2718
     34  CB        34.5760   17.9950  -45.9690 C.3    63  ASP63       0.1424
     35  CG        33.8290   18.5830  -47.1490 C.2    63  ASP63       0.3668
     36  OD1       32.8180   19.2730  -46.9310 O.co2  63  ASP63      -0.2456
     37  OD2       34.2490   18.3470  -48.3010 O.co2  63  ASP63      -0.2456
     38  N         32.1300   19.2270  -43.5730 N.am   64  ALA64      -0.1966
     39  CA        30.9360   18.9490  -42.7800 C.3    64  ALA64       0.1728
     40  C         29.7030   18.5600  -43.5910 C.2    64  ALA64       0.2616
     41  O         28.8000   17.9000  -43.0770 O.2    64  ALA64      -0.2715
     42  CB        30.6220   20.1410  -41.8830 C.3    64  ALA64       0.0334
     43  N         29.6650   18.9950  -44.8460 N.am   65  PHE65      -0.1960
     44  CA        28.5680   18.6950  -45.7530 C.3    65  PHE65       0.1771
     45  C         29.2200   18.3030  -47.0760 C.2    65  PHE65       0.2620
     46  O         29.1640   19.0470  -48.0560 O.2    65  PHE65      -0.2715
     47  CB        27.6740   19.9330  -45.9540 C.3    65  PHE65       0.0574
     48  CG        27.0690   20.4690  -44.6890 C.ar   65  PHE65      -0.0200
     49  CD1       25.7350   20.2260  -44.3830 C.ar   65  PHE65      -0.0042
     50  CD2       27.8260   21.2310  -43.8070 C.ar   65  PHE65      -0.0042
     51  CE1       25.1720   20.7210  -43.2150 C.ar   65  PHE65      -0.0003
     52  CE2       27.2690   21.7300  -42.6350 C.ar   65  PHE65      -0.0003
     53  CZ        25.9410   21.4810  -42.3410 C.ar   65  PHE65      -0.0000
     54  N         29.8480   17.1330  -47.1010 N.am   66  CYS66      -0.1954
     55  CA        30.7960   16.8070  -48.1640 C.3    66  CYS66       0.1843
     56  C         30.1750   16.4910  -49.5290 C.2    66  CYS66       0.2626
     57  O         30.8800   16.4720  -50.5380 O.2    66  CYS66      -0.2714
     58  CB        31.7210   15.6680  -47.7250 C.3    66  CYS66       0.0997
     59  SG        30.9000   14.0370  -47.6880 S.3    66  CYS66      -0.0797
     60  N         28.8720   16.2300  -49.5700 N.am   67  GLY67      -0.1940
     61  CA        28.2160   15.8930  -50.8250 C.3    67  GLY67       0.2014
     62  C         28.9310   14.8040  -51.6220 C.2    67  GLY67       0.2638
     63  O         29.2390   13.7420  -51.0770 O.2    67  GLY67      -0.2714
     64  N         29.2000   15.0540  -52.9050 N.am   68  VAL68      -0.1977
     65  CA        29.8700   14.0500  -53.7380 C.3    68  VAL68       0.1596
     66  C         31.3930   14.1680  -53.7470 C.2    68  VAL68       0.2287
     67  O         32.0720   13.5270  -54.5550 O.2    68  VAL68      -0.2864
     68  CB        29.3040   13.9810  -55.1780 C.3    68  VAL68       0.0276
     69  CG1       27.8070   13.7230  -55.1420 C.3    68  VAL68       0.0022
     70  CG2       29.6240   15.2590  -55.9680 C.3    68  VAL68       0.0022
     71  N         33.4820   17.0220  -54.0480 N.3    70  GLY70      -0.1210
     72  CA        34.1800   18.0800  -54.7680 C.3    70  GLY70       0.1956
     73  C         35.3080   18.7110  -53.9630 C.2    70  GLY70       0.2611
     74  O         36.4700   18.6750  -54.3560 O.2    70  GLY70      -0.2717
     75  N         34.9570   19.2950  -52.8240 N.am   71  ASN71      -0.1974
     76  CA        35.9330   19.8950  -51.9210 C.3    71  ASN71       0.1688
     77  C         36.7890   18.8730  -51.1810 C.2    71  ASN71       0.2292
     78  O         37.9940   19.0660  -51.0150 O.2    71  ASN71      -0.2864
     79  CB        35.2170   20.7960  -50.9110 C.3    71  ASN71       0.1181
     80  CG        34.5400   21.9770  -51.5780 C.2    71  ASN71       0.2629
     81  OD1       33.3290   21.9720  -51.7950 O.2    71  ASN71      -0.2716
     82  ND2       35.3310   22.9790  -51.9430 N.am   71  ASN71      -0.0877
     83  N         31.7840   14.2790  -44.0230 N.3    85  ILE85      -0.1231
     84  CA        30.4970   14.0120  -43.3960 C.3    85  ILE85       0.1692
     85  C         29.3390   14.3750  -44.3140 C.2    85  ILE85       0.2592
     86  O         29.2890   15.4680  -44.8730 O.2    85  ILE85      -0.2718
     87  CB        30.3480   14.8260  -42.0930 C.3    85  ILE85       0.0266
     88  CG1       31.5220   14.5590  -41.1560 C.3    85  ILE85       0.0019
     89  CG2       29.0040   14.5400  -41.4100 C.3    85  ILE85       0.0020
     90  CD1       31.5300   15.4470  -39.9240 C.3    85  ILE85       0.0001
     91  N         28.4080   13.4530  -44.4810 N.am   86  ASP86      -0.1960
     92  CA        27.1560   13.7850  -45.1430 C.3    86  ASP86       0.1840
     93  C         26.0070   13.0000  -44.5340 C.2    86  ASP86       0.2622
     94  O         26.1650   11.8350  -44.1760 O.2    86  ASP86      -0.2715
     95  CB        27.2360   13.5350  -46.6500 C.3    86  ASP86       0.1450
     96  CG        26.2090   14.3340  -47.4100 C.2    86  ASP86       0.3671
     97  OD1       24.9980   14.0310  -47.2800 O.co2  86  ASP86      -0.2456
     98  OD2       26.6130   15.2780  -48.1230 O.co2  86  ASP86      -0.2456
     99  N         24.8530   13.6470  -44.4130 N.am   87  ILE87      -0.1963
    100  CA        23.6830   13.0240  -43.8060 C.3    87  ILE87       0.1727
    101  C         23.0360   12.0000  -44.7380 C.2    87  ILE87       0.2616
    102  O         22.3020   11.1170  -44.2960 O.2    87  ILE87      -0.2715
    103  CB        22.6440   14.0850  -43.3750 C.3    87  ILE87       0.0290
    104  CG1       21.7500   13.5410  -42.2540 C.3    87  ILE87       0.0022
    105  CG2       21.8340   14.5650  -44.5730 C.3    87  ILE87       0.0023
    106  CD1       20.9040   14.6270  -41.5770 C.3    87  ILE87       0.0001
    107  N         23.3330   12.1090  -46.0280 N.am   88  ASP88      -0.1971
    108  CA        22.7900   11.1970  -47.0290 C.3    88  ASP88       0.1709
    109  C         23.7860   10.0690  -47.3290 C.2    88  ASP88       0.2293
    110  O         24.9010   10.3250  -47.7680 O.2    88  ASP88      -0.2864
    111  CB        22.4620   11.9810  -48.3050 C.3    88  ASP88       0.1436
    112  CG        21.7560   11.1410  -49.3470 C.2    88  ASP88       0.3671
    113  OD1       21.6180    9.9130  -49.1480 O.co2  88  ASP88      -0.2456
    114  OD2       21.3370   11.7180  -50.3710 O.co2  88  ASP88      -0.2456
    115  N         25.2070   10.0090  -50.8290 N.3    91  LYS91      -0.1245
    116  CA        26.2940   10.9570  -51.0820 C.3    91  LYS91       0.1561
    117  C         27.6310   10.3770  -50.6560 C.2    91  LYS91       0.2260
    118  O         28.6320   10.5270  -51.3570 O.2    91  LYS91      -0.2867
    119  CB        26.0580   12.2890  -50.3600 C.3    91  LYS91       0.0271
    120  CG        24.7960   13.0190  -50.7880 C.3    91  LYS91       0.0035
    121  CD        24.8200   13.3760  -52.2600 C.3    91  LYS91       0.0206
    122  CE        23.5870   14.1940  -52.6390 C.3    91  LYS91       0.1093
    123  NZ        22.3190   13.4100  -52.5520 N.3    91  LYS91      -0.1314
    124  N         26.2420   10.8810  -41.3520 N.3   113  GLY113     -0.1210
    125  CA        25.7560   11.4330  -40.1000 C.3   113  GLY113      0.1956
    126  C         25.3220   12.8890  -40.2180 C.2   113  GLY113      0.2612
    127  O         25.5260   13.5300  -41.2460 O.2   113  GLY113     -0.2717
    128  N         24.7240   13.4000  -39.1460 N.am  114  ASP114     -0.1959
    129  CA        24.2120   14.7610  -39.0830 C.3   114  ASP114      0.1840
    130  C         25.2570   15.6690  -38.4460 C.2   114  ASP114      0.2622
    131  O         25.5560   15.5460  -37.2520 O.2   114  ASP114     -0.2715
    132  CB        22.9200   14.7730  -38.2640 C.3   114  ASP114      0.1450
    133  CG        22.2770   16.1430  -38.1930 C.2   114  ASP114      0.3671
    134  OD1       22.9100   17.1430  -38.6010 O.co2 114  ASP114     -0.2456
    135  OD2       21.1290   16.2160  -37.7150 O.co2 114  ASP114     -0.2456
    136  N         25.8170   16.5840  -39.2330 N.am  115  PHE115     -0.1960
    137  CA        26.8950   17.4200  -38.7120 C.3   115  PHE115      0.1771
    138  C         26.4650   18.1870  -37.4740 C.2   115  PHE115      0.2619
    139  O         27.2780   18.4410  -36.5920 O.2   115  PHE115     -0.2715
    140  CB        27.4200   18.4050  -39.7610 C.3   115  PHE115      0.0574
    141  CG        28.4270   19.3890  -39.2110 C.ar  115  PHE115     -0.0200
    142  CD1       29.7120   18.9760  -38.8860 C.ar  115  PHE115     -0.0042
    143  CD2       28.0830   20.7190  -39.0060 C.ar  115  PHE115     -0.0042
    144  CE1       30.6370   19.8670  -38.3780 C.ar  115  PHE115     -0.0003
    145  CE2       29.0090   21.6200  -38.4990 C.ar  115  PHE115     -0.0003
    146  CZ        30.2850   21.1990  -38.1880 C.ar  115  PHE115     -0.0000
    147  N         25.1900   18.5700  -37.4240 N.am  116  LEU116     -0.1977
    148  CA        24.6790   19.3630  -36.3090 C.3   116  LEU116      0.1596
    149  C         24.8170   18.6160  -34.9830 C.2   116  LEU116      0.2287
    150  O         24.9720   19.2330  -33.9270 O.2   116  LEU116     -0.2864
    151  CB        23.2080   19.7230  -36.5340 C.3   116  LEU116      0.0297
    152  CG        22.8660   20.5620  -37.7690 C.3   116  LEU116      0.0022
    153  CD1       21.3550   20.7460  -37.8930 C.3   116  LEU116      0.0001
    154  CD2       23.5830   21.8970  -37.7020 C.3   116  LEU116      0.0001
    155  N         35.3530   23.0570  -42.9560 N.3   128  PHE128     -0.1241
    156  CA        34.8400   23.5740  -44.2130 C.3   128  PHE128      0.1605
    157  C         33.3380   23.3370  -44.3160 C.2   128  PHE128      0.2264
    158  O         32.8670   22.2120  -44.1460 O.2   128  PHE128     -0.2867
    159  CB        35.5540   22.9230  -45.3980 C.3   128  PHE128      0.0534
    160  CG        34.9590   23.2910  -46.7210 C.ar  128  PHE128     -0.0203
    161  CD1       35.2660   24.5080  -47.3170 C.ar  128  PHE128     -0.0042
    162  CD2       34.0670   22.4410  -47.3550 C.ar  128  PHE128     -0.0042
    163  CE1       34.7020   24.8610  -48.5220 C.ar  128  PHE128     -0.0003
    164  CE2       33.5040   22.7840  -48.5610 C.ar  128  PHE128     -0.0003
    165  CZ        33.8230   24.0020  -49.1510 C.ar  128  PHE128     -0.0000
    166  N         30.0140   23.6010  -46.6670 N.3   130  SER130     -0.1203
    167  CA        29.3080   23.7530  -47.9340 C.3   130  SER130      0.2005
    168  C         27.8980   23.1560  -47.8800 C.2   130  SER130      0.2461
    169  O         27.6000   22.2000  -48.5930 O.2   130  SER130     -0.2732
    170  CB        30.1100   23.1150  -49.0710 C.3   130  SER130      0.2103
    171  OG        30.2140   21.7100  -48.9040 O.3   130  SER130     -0.2182
    172  N         27.0200   23.7420  -47.0520 N.am  131  PRO131     -0.2718
    173  CA        25.6680   23.2300  -46.7670 C.3   131  PRO131      0.1520
    174  C         24.6900   23.3540  -47.9390 C.2   131  PRO131      0.2440
    175  O         24.9970   24.0160  -48.9250 O.2   131  PRO131     -0.2731
    176  CB        25.1840   24.1270  -45.6130 C.3   131  PRO131      0.0310
    177  CG        26.3840   24.9360  -45.1800 C.3   131  PRO131      0.0237
    178  CD        27.2790   25.0170  -46.3640 C.3   131  PRO131      0.0939
    179  N         23.5050   22.7340  -47.8190 N.am  132  PRO132     -0.2727
    180  CA        22.4590   22.9100  -48.8270 C.3   132  PRO132      0.1402
    181  C         21.9510   24.3530  -48.8060 C.2   132  PRO132      0.2269
    182  O         21.7630   24.9160  -47.7280 O.2   132  PRO132     -0.2865
    183  CB        21.3310   21.9770  -48.3510 C.3   132  PRO132      0.0296
    184  CG        21.8900   21.1860  -47.2190 C.3   132  PRO132      0.0237
    185  CD        23.0350   21.9470  -46.6650 C.3   132  PRO132      0.0939
    186  N         20.0700   23.3980  -42.6160 N.3   152  PRO152     -0.2116
    187  CA        20.0470   24.0930  -41.3240 C.3   152  PRO152      0.1372
    188  C         20.4090   25.5730  -41.4330 C.2   152  PRO152      0.2244
    189  O         21.0750   25.9930  -42.3820 O.2   152  PRO152     -0.2868
    190  CB        21.1380   23.3770  -40.5170 C.3   152  PRO152      0.0268
    191  CG        21.5130   22.1670  -41.3100 C.3   152  PRO152      0.0207
    192  CD        21.2090   22.4740  -42.7210 C.3   152  PRO152      0.0892
    193  N         31.3470   28.2060  -47.7190 N.3   171  PHE171     -0.1241
    194  CA        31.1020   28.2290  -49.1570 C.3   171  PHE171      0.1605
    195  C         29.6320   28.5910  -49.3620 C.2   171  PHE171      0.2264
    196  O         28.7430   27.8630  -48.9320 O.2   171  PHE171     -0.2867
    197  CB        31.4380   26.8560  -49.7520 C.3   171  PHE171      0.0534
    198  CG        31.3680   26.7960  -51.2610 C.ar  171  PHE171     -0.0203
    199  CD1       32.3280   27.4200  -52.0420 C.ar  171  PHE171     -0.0042
    200  CD2       30.3600   26.0790  -51.8930 C.ar  171  PHE171     -0.0042
    201  CE1       32.2720   27.3530  -53.4360 C.ar  171  PHE171     -0.0003
    202  CE2       30.2970   26.0080  -53.2820 C.ar  171  PHE171     -0.0003
    203  CZ        31.2590   26.6480  -54.0530 C.ar  171  PHE171     -0.0000
@<TRIPOS>BOND
     1    21    20    1
     2    19    18    2
     3    26    25    2
     4    25    24    1
     5    20    22    1
     6    20    17    1
     7     1     2    1
     8    10    11    1
     9    18    17    1
    10    18    23   am
    11    16    17    1
    12    16    12   am
    13    24    23    1
    14    24    27    1
    15     3     2    1
    16     3     4    2
    17     2     5    1
    18    70    68    1
    19    11    12    1
    20    11    14    1
    21    12    13    2
    22    29    27    1
    23    68    69    1
    24    68    65    1
    25    27    28    1
    26    72    71    1
    27    72    73    1
    28     5     6    1
    29    67    66    2
    30    14    15    1
    31    74    73    2
    32   203   201   ar
    33   203   202   ar
    34    73    75   am
    35    66    65    1
    36    65    64    1
    37     6     7    1
    38   201   199   ar
    39   202   200   ar
    40    64    62   am
    41    75    76    1
    42   122   123    1
    43   122   121    1
    44   121   120    1
    45     7     9   ar
    46     7     8   ar
    47   199   198   ar
    48    82    80   am
    49    76    77    1
    50    76    79    1
    51   200   198   ar
    52    81    80    2
    53    62    63    2
    54    62    61    1
    55    80    79    1
    56   118   117    2
    57   198   197    1
    58    77    78    2
    59   116   115    1
    60   116   117    1
    61   116   119    1
    62    61    60    1
    63   120   119    1
    64    57    56    2
    65   114   112   ar
    66   197   194    1
    67    60    56   am
    68    56    55    1
    69   195   194    1
    70   195   196    2
    71   112   113   ar
    72   112   111    1
    73   194   193    1
    74   165   164   ar
    75   165   163   ar
    76   170   171    1
    77   170   167    1
    78   175   174    2
    79   180   181    1
    80   180   183    1
    81   180   179    1
    82   181   182    2
    83   169   168    2
    84   164   162   ar
    85   163   161   ar
    86   183   184    1
    87   111   108    1
    88    37    35   ar
    89    55    58    1
    90    55    54    1
    91    98    96   ar
    92    46    45    2
    93   174   179   am
    94   174   173    1
    95   167   168    1
    96   167   166    1
    97   168   172   am
    98   179   185    1
    99   110   109    2
   100    58    59    1
   101    96    97   ar
   102    96    95    1
   103   162   160   ar
   104   109   108    1
   105   161   160   ar
   106   184   185    1
   107    35    36   ar
   108    35    34    1
   109    54    45   am
   110    45    44    1
   111   172   173    1
   112   172   178    1
   113   108   107    1
   114   173   176    1
   115   160   159    1
   116    95    92    1
   117   178   177    1
   118   107   101   am
   119    34    31    1
   120    47    44    1
   121    47    48    1
   122    44    43    1
   123   176   177    1
   124   159   156    1
   125    92    93    1
   126    92    91    1
   127    86    85    2
   128    43    40   am
   129   101   102    2
   130   101   100    1
   131    48    49   ar
   132    48    50   ar
   133    31    32    1
   134    31    30    1
   135   105   103    1
   136    93    99   am
   137    93    94    2
   138    91    85   am
   139    99   100    1
   140    33    32    2
   141    49    51   ar
   142   157   156    1
   143   157   158    2
   144    85    84    1
   145   156   155    1
   146    32    38   am
   147    83    84    1
   148    50    52   ar
   149   100   103    1
   150    40    41    2
   151    40    39    1
   152    38    39    1
   153    84    87    1
   154   103   104    1
   155    51    53   ar
   156    39    42    1
   157   192   186    1
   158   192   191    1
   159    52    53   ar
   160   186   187    1
   161   189   188    2
   162   104   106    1
   163    87    89    1
   164    87    88    1
   165   188   187    1
   166   124   125    1
   167   187   190    1
   168   191   190    1
   169   127   126    2
   170    88    90    1
   171   126   125    1
   172   126   128   am
   173   140   141    1
   174   140   137    1
   175   136   137    1
   176   136   130   am
   177   141   143   ar
   178   141   142   ar
   179   128   129    1
   180   129   130    1
   181   129   132    1
   182   143   145   ar
   183   142   144   ar
   184   137   138    1
   185   134   133   ar
   186   145   146   ar
   187   130   131    2
   188   144   146   ar
   189   132   133    1
   190   133   135   ar
   191   153   152    1
   192   152   154    1
   193   152   151    1
   194   138   147   am
   195   138   139    2
   196   147   148    1
   197   151   148    1
   198   148   149    1
   199   149   150    2
