@<TRIPOS>MOLECULE
tmp/3gdhA00.pdb
 211 214 0 0 0
SMALL
GASTEIGER

@<TRIPOS>ATOM
      1  N         23.0180   21.6520  -68.5040 N.3    13  LYS13      -0.1231
      2  CA        24.1740   22.5430  -68.3770 C.3    13  LYS13       0.1693
      3  C         25.2620   21.9710  -67.4690 C.2    13  LYS13       0.2592
      4  O         26.4440   22.2870  -67.6280 O.2    13  LYS13      -0.2718
      5  CB        23.7750   23.9630  -67.9330 C.3    13  LYS13       0.0285
      6  CG        23.3230   24.0930  -66.4840 C.3    13  LYS13       0.0035
      7  CD        23.1990   25.5620  -66.1000 C.3    13  LYS13       0.0206
      8  CE        22.5240   25.7430  -64.7580 C.3    13  LYS13       0.1093
      9  NZ        22.4300   27.1920  -64.4110 N.3    13  LYS13      -0.1314
     10  N         24.8680   21.1430  -66.5100 N.am   14  TYR14      -0.1976
     11  CA        25.8530   20.5080  -65.6390 C.3    14  TYR14       0.1639
     12  C         26.6090   19.4210  -66.4020 C.2    14  TYR14       0.2290
     13  O         27.8330   19.3070  -66.2910 O.2    14  TYR14      -0.2864
     14  CB        25.1950   19.9700  -64.3630 C.3    14  TYR14       0.0560
     15  CG        24.5090   21.0630  -63.5710 C.ar   14  TYR14      -0.0198
     16  CD1       25.1770   21.7420  -62.5580 C.ar   14  TYR14      -0.0009
     17  CD2       23.2000   21.4360  -63.8570 C.ar   14  TYR14      -0.0009
     18  CE1       24.5560   22.7560  -61.8450 C.ar   14  TYR14       0.0417
     19  CE2       22.5740   22.4410  -63.1510 C.ar   14  TYR14       0.0417
     20  CZ        23.2540   23.0990  -62.1480 C.ar   14  TYR14       0.1957
     21  OH        22.6240   24.1040  -61.4460 O.3    14  TYR14      -0.2866
     22  N         29.1800   20.8950  -68.6340 N.3    17  GLN17      -0.1245
     23  CA        30.3650   21.3480  -67.9210 C.3    17  GLN17       0.1566
     24  C         30.9870   20.2530  -67.0520 C.2    17  GLN17       0.2260
     25  O         31.7480   20.5470  -66.1380 O.2    17  GLN17      -0.2867
     26  CB        30.0280   22.5830  -67.0790 C.3    17  GLN17       0.0367
     27  CG        29.4440   23.7110  -67.9130 C.3    17  GLN17       0.0905
     28  CD        29.2420   24.9830  -67.1260 C.2    17  GLN17       0.2608
     29  OE1       30.1960   25.7130  -66.8500 O.2    17  GLN17      -0.2717
     30  NE2       27.9920   25.2710  -66.7770 N.am   17  GLN17      -0.0878
     31  N         33.5280   20.4160  -63.6990 N.3    21  LEU21      -0.1245
     32  CA        33.1670   19.8650  -62.3980 C.3    21  LEU21       0.1561
     33  C         34.2120   18.8620  -61.9060 C.2    21  LEU21       0.2260
     34  O         34.7190   18.9890  -60.7930 O.2    21  LEU21      -0.2867
     35  CB        31.7690   19.2540  -62.4360 C.3    21  LEU21       0.0270
     36  CG        30.6770   20.2830  -62.7410 C.3    21  LEU21       0.0019
     37  CD1       29.2880   19.6600  -62.7010 C.3    21  LEU21       0.0001
     38  CD2       30.7740   21.4820  -61.7890 C.3    21  LEU21       0.0001
     39  N         24.9510   16.8720  -58.7470 N.3    36  TRP36      -0.1227
     40  CA        25.2680   17.7030  -59.9090 C.3    36  TRP36       0.1737
     41  C         25.0630   19.1900  -59.6040 C.2    36  TRP36       0.2595
     42  O         25.9310   20.0160  -59.8970 O.2    36  TRP36      -0.2718
     43  CB        24.4010   17.3140  -61.1120 C.3    36  TRP36       0.0564
     44  CG        24.8350   16.0640  -61.8620 C.ar   36  TRP36       0.0003
     45  CD1       24.2290   14.8340  -61.8290 C.ar   36  TRP36       0.0946
     46  CD2       25.9360   15.9420  -62.7790 C.ar   36  TRP36       0.0152
     47  NE1       24.8930   13.9570  -62.6560 N.ar   36  TRP36      -0.2442
     48  CE2       25.9440   14.6080  -63.2480 C.ar   36  TRP36       0.0810
     49  CE3       26.9190   16.8250  -63.2420 C.ar   36  TRP36       0.0012
     50  CZ2       26.8910   14.1400  -64.1590 C.ar   36  TRP36       0.0191
     51  CZ3       27.8680   16.3530  -64.1480 C.ar   36  TRP36       0.0001
     52  CH2       27.8420   15.0230  -64.5960 C.ar   36  TRP36       0.0015
     53  N         23.9110   19.5250  -59.0230 N.am   37  PHE37      -0.1962
     54  CA        23.5770   20.9160  -58.7010 C.3    37  PHE37       0.1771
     55  C         24.5410   21.5440  -57.7090 C.2    37  PHE37       0.2620
     56  O         24.7520   22.7610  -57.7250 O.2    37  PHE37      -0.2715
     57  CB        22.1710   21.0320  -58.1040 C.3    37  PHE37       0.0574
     58  CG        21.0630   20.6940  -59.0610 C.ar   37  PHE37      -0.0200
     59  CD1       21.1390   21.0550  -60.3940 C.ar   37  PHE37      -0.0042
     60  CD2       19.9260   20.0440  -58.6130 C.ar   37  PHE37      -0.0042
     61  CE1       20.1090   20.7510  -61.2710 C.ar   37  PHE37      -0.0003
     62  CE2       18.8940   19.7370  -59.4830 C.ar   37  PHE37      -0.0003
     63  CZ        18.9840   20.0920  -60.8130 C.ar   37  PHE37      -0.0000
     64  N         25.1170   20.7280  -56.8360 N.am   38  SER38      -0.1936
     65  CA        25.7850   21.2650  -55.6480 C.3    38  SER38       0.2055
     66  C         27.2980   21.1480  -55.6230 C.2    38  SER38       0.2643
     67  O         27.9610   21.8160  -54.8210 O.2    38  SER38      -0.2714
     68  CB        25.2070   20.6040  -54.3970 C.3    38  SER38       0.2130
     69  OG        23.8190   20.8690  -54.3020 O.3    38  SER38      -0.2179
     70  N         27.8540   20.3050  -56.4890 N.am   39  VAL39      -0.1963
     71  CA        29.2820   20.0270  -56.4190 C.3    39  VAL39       0.1727
     72  C         30.0880   21.2760  -56.7650 C.2    39  VAL39       0.2617
     73  O         29.7620   21.9890  -57.7120 O.2    39  VAL39      -0.2715
     74  CB        29.6910   18.8140  -57.3050 C.3    39  VAL39       0.0290
     75  CG1       29.4450   19.0960  -58.7750 C.3    39  VAL39       0.0023
     76  CG2       31.1540   18.4270  -57.0550 C.3    39  VAL39       0.0023
     77  N         31.1190   21.5470  -55.9710 N.am   40  THR40      -0.1937
     78  CA        32.0120   22.6730  -56.2200 C.3    40  THR40       0.2013
     79  C         32.8830   22.3650  -57.4320 C.2    40  THR40       0.2484
     80  O         33.5600   21.3470  -57.4560 O.2    40  THR40      -0.2729
     81  CB        32.9360   22.9310  -55.0200 C.3    40  THR40       0.1807
     82  OG1       32.1520   23.1380  -53.8370 O.3    40  THR40      -0.2208
     83  CG2       33.8200   24.1620  -55.2720 C.3    40  THR40       0.0379
     84  N         32.8670   23.2460  -58.4460 N.am   41  PRO41      -0.2726
     85  CA        33.6790   23.0240  -59.6490 C.3    41  PRO41       0.1402
     86  C         35.1350   22.8310  -59.2600 C.2    41  PRO41       0.2269
     87  O         35.5850   23.4500  -58.2960 O.2    41  PRO41      -0.2865
     88  CB        33.4980   24.3240  -60.4420 C.3    41  PRO41       0.0296
     89  CG        32.1830   24.8800  -59.9670 C.3    41  PRO41       0.0237
     90  CD        32.0890   24.4960  -58.5120 C.3    41  PRO41       0.0939
     91  N         30.0140   23.6010  -46.6670 N.3   130  SER130     -0.1203
     92  CA        29.3080   23.7530  -47.9340 C.3   130  SER130      0.2005
     93  C         27.8980   23.1560  -47.8800 C.2   130  SER130      0.2461
     94  O         27.6000   22.2000  -48.5930 O.2   130  SER130     -0.2732
     95  CB        30.1100   23.1150  -49.0710 C.3   130  SER130      0.2103
     96  OG        30.2140   21.7100  -48.9040 O.3   130  SER130     -0.2182
     97  N         27.0200   23.7420  -47.0520 N.am  131  PRO131     -0.2718
     98  CA        25.6680   23.2300  -46.7670 C.3   131  PRO131      0.1520
     99  C         24.6900   23.3540  -47.9390 C.2   131  PRO131      0.2440
    100  O         24.9970   24.0160  -48.9250 O.2   131  PRO131     -0.2731
    101  CB        25.1840   24.1270  -45.6130 C.3   131  PRO131      0.0310
    102  CG        26.3840   24.9360  -45.1800 C.3   131  PRO131      0.0237
    103  CD        27.2790   25.0170  -46.3640 C.3   131  PRO131      0.0939
    104  N         23.5050   22.7340  -47.8190 N.am  132  PRO132     -0.2716
    105  CA        22.4590   22.9100  -48.8270 C.3   132  PRO132      0.1536
    106  C         21.9510   24.3530  -48.8060 C.2   132  PRO132      0.2599
    107  O         21.7630   24.9160  -47.7280 O.2   132  PRO132     -0.2715
    108  CB        21.3310   21.9770  -48.3510 C.3   132  PRO132      0.0310
    109  CG        21.8900   21.1860  -47.2190 C.3   132  PRO132      0.0237
    110  CD        23.0350   21.9470  -46.6650 C.3   132  PRO132      0.0939
    111  N         21.7330   24.9370  -49.9780 N.am  133  TRP133     -0.1960
    112  CA        21.2150   26.2940  -50.0730 C.3   133  TRP133      0.1771
    113  C         19.7360   26.3090  -50.4530 C.2   133  TRP133      0.2620
    114  O         19.1020   27.3570  -50.4210 O.2   133  TRP133     -0.2715
    115  CB        21.9800   27.1040  -51.1180 C.3   133  TRP133      0.0590
    116  CG        23.4690   27.1690  -50.9450 C.ar  133  TRP133      0.0006
    117  CD1       24.1830   26.9520  -49.8060 C.ar  133  TRP133      0.0946
    118  CD2       24.4190   27.5130  -51.9580 C.ar  133  TRP133      0.0152
    119  NE1       25.5300   27.1170  -50.0530 N.ar  133  TRP133     -0.2442
    120  CE2       25.6970   27.4690  -51.3660 C.ar  133  TRP133      0.0810
    121  CE3       24.3130   27.8490  -53.3110 C.ar  133  TRP133      0.0012
    122  CZ2       26.8560   27.7510  -52.0810 C.ar  133  TRP133      0.0191
    123  CZ3       25.4690   28.1250  -54.0200 C.ar  133  TRP133      0.0001
    124  CH2       26.7200   28.0750  -53.4050 C.ar  133  TRP133      0.0015
    125  N         19.1930   25.1590  -50.8400 N.am  134  GLY134     -0.1940
    126  CA        17.7930   25.0850  -51.2280 C.3   134  GLY134      0.2014
    127  C         17.6010   24.7770  -52.7040 C.2   134  GLY134      0.2639
    128  O         16.5860   25.1450  -53.2970 O.2   134  GLY134     -0.2714
    129  N         18.5750   24.0900  -53.2940 N.am  135  GLY135     -0.1940
    130  CA        18.5240   23.7370  -54.7040 C.3   135  GLY135      0.1998
    131  C         18.7910   24.9460  -55.5820 C.2   135  GLY135      0.2480
    132  O         19.0510   26.0310  -55.0660 O.2   135  GLY135     -0.2729
    133  N         18.7330   24.7650  -56.9130 N.am  136  PRO136     -0.2726
    134  CA        18.9710   25.8470  -57.8780 C.3   136  PRO136      0.1402
    135  C         18.0750   27.0750  -57.6620 C.2   136  PRO136      0.2269
    136  O         18.4350   28.1700  -58.0980 O.2   136  PRO136     -0.2865
    137  CB        18.6470   25.1880  -59.2250 C.3   136  PRO136      0.0296
    138  CG        18.8840   23.7420  -59.0020 C.3   136  PRO136      0.0237
    139  CD        18.4750   23.4780  -57.5820 C.3   136  PRO136      0.0939
    140  N         17.5970   28.7780  -55.1030 N.3   138  TYR138     -0.1227
    141  CA        18.1910   29.7360  -54.1750 C.3   138  TYR138      0.1736
    142  C         18.4840   31.0800  -54.8550 C.2   138  TYR138      0.2595
    143  O         18.5460   32.1180  -54.1970 O.2   138  TYR138     -0.2718
    144  CB        19.5030   29.1790  -53.6300 C.3   138  TYR138      0.0548
    145  CG        20.6570   29.4550  -54.5620 C.ar  138  TYR138     -0.0200
    146  CD1       20.9530   28.5890  -55.6130 C.ar  138  TYR138     -0.0009
    147  CD2       21.4270   30.6060  -54.4200 C.ar  138  TYR138     -0.0009
    148  CE1       22.0010   28.8550  -56.4880 C.ar  138  TYR138      0.0417
    149  CE2       22.4720   30.8780  -55.2820 C.ar  138  TYR138      0.0417
    150  CZ        22.7580   30.0020  -56.3140 C.ar  138  TYR138      0.1957
    151  OH        23.8030   30.2850  -57.1720 O.3   138  TYR138     -0.2866
    152  N         18.6910   31.0470  -56.1690 N.am  139  ALA139     -0.1980
    153  CA        19.1370   32.2230  -56.9130 C.3   139  ALA139      0.1597
    154  C         17.9960   33.1890  -57.2180 C.2   139  ALA139      0.2287
    155  O         18.2260   34.3470  -57.5670 O.2   139  ALA139     -0.2864
    156  CB        19.8370   31.8010  -58.1990 C.3   139  ALA139      0.0319
    157  N         31.3470   28.2060  -47.7190 N.3   171  PHE171     -0.1241
    158  CA        31.1020   28.2290  -49.1570 C.3   171  PHE171      0.1605
    159  C         29.6320   28.5910  -49.3620 C.2   171  PHE171      0.2264
    160  O         28.7430   27.8630  -48.9320 O.2   171  PHE171     -0.2867
    161  CB        31.4380   26.8560  -49.7520 C.3   171  PHE171      0.0534
    162  CG        31.3680   26.7960  -51.2610 C.ar  171  PHE171     -0.0203
    163  CD1       32.3280   27.4200  -52.0420 C.ar  171  PHE171     -0.0042
    164  CD2       30.3600   26.0790  -51.8930 C.ar  171  PHE171     -0.0042
    165  CE1       32.2720   27.3530  -53.4360 C.ar  171  PHE171     -0.0003
    166  CE2       30.2970   26.0080  -53.2820 C.ar  171  PHE171     -0.0003
    167  CZ        31.2590   26.6480  -54.0530 C.ar  171  PHE171     -0.0000
    168  N         26.3440   33.3040  -54.4100 N.3   174  ARG174     -0.1245
    169  CA        26.8870   34.5700  -54.8970 C.3   174  ARG174      0.1563
    170  C         25.9490   35.7480  -54.6250 C.2   174  ARG174      0.2260
    171  O         26.3310   36.9050  -54.7930 O.2   174  ARG174     -0.2867
    172  CB        27.2370   34.4890  -56.3910 C.3   174  ARG174      0.0307
    173  CG        26.0670   34.1160  -57.2980 C.3   174  ARG174      0.0489
    174  CD        26.4730   34.1920  -58.7830 C.3   174  ARG174      0.2205
    175  NE        25.3880   33.7690  -59.6670 N.pl3 174  ARG174     -0.0865
    176  CZ        25.1780   32.5120  -60.0480 C.cat 174  ARG174      0.5346
    177  NH1       25.9860   31.5450  -59.6360 N.pl3 174  ARG174      0.1354
    178  NH2       24.1640   32.2210  -60.8480 N.pl3 174  ARG174      0.1354
    179  N         32.8740   34.1980  -65.0510 N.3   201  LYS201     -0.1231
    180  CA        31.4770   34.2450  -64.6210 C.3   201  LYS201      0.1693
    181  C         31.3920   34.0450  -63.1040 C.2   201  LYS201      0.2592
    182  O         31.9150   33.0660  -62.5790 O.2   201  LYS201     -0.2718
    183  CB        30.6490   33.1860  -65.3560 C.3   201  LYS201      0.0285
    184  CG        29.1400   33.3900  -65.2700 C.3   201  LYS201      0.0035
    185  CD        28.3910   32.2450  -65.9470 C.3   201  LYS201      0.0206
    186  CE        26.9180   32.5790  -66.1690 C.3   201  LYS201      0.1093
    187  NZ        26.1830   32.8330  -64.8950 N.3   201  LYS201     -0.1314
    188  N         30.7460   34.9750  -62.4050 N.am  202  LEU202     -0.1966
    189  CA        30.6080   34.8690  -60.9520 C.3   202  LEU202      0.1728
    190  C         29.8210   33.6080  -60.5860 C.2   202  LEU202      0.2616
    191  O         28.7230   33.3880  -61.0930 O.2   202  LEU202     -0.2715
    192  CB        29.9190   36.1100  -60.3810 C.3   202  LEU202      0.0311
    193  CG        29.6790   36.1220  -58.8630 C.3   202  LEU202      0.0022
    194  CD1       30.9920   36.0070  -58.1230 C.3   202  LEU202      0.0001
    195  CD2       28.9490   37.3860  -58.4440 C.3   202  LEU202      0.0001
    196  N         30.3850   32.7840  -59.7080 N.am  203  LYS203     -0.1963
    197  CA        29.7550   31.5150  -59.3250 C.3   203  LYS203      0.1728
    198  C         29.2070   31.5130  -57.9000 C.2   203  LYS203      0.2616
    199  O         28.0170   31.2740  -57.6780 O.2   203  LYS203     -0.2715
    200  CB        30.7550   30.3650  -59.4720 C.3   203  LYS203      0.0311
    201  CG        30.8470   29.8080  -60.8730 C.3   203  LYS203      0.0038
    202  CD        29.6210   28.9680  -61.2050 C.3   203  LYS203      0.0206
    203  CE        29.5590   28.6710  -62.6920 C.3   203  LYS203      0.1093
    204  NZ        28.2350   28.1510  -63.1460 N.3   203  LYS203     -0.1314
    205  N         30.0930   31.7790  -56.9440 N.am  204  THR204     -0.1951
    206  CA        29.7960   31.6430  -55.5250 C.3   204  THR204      0.1897
    207  C         30.7220   32.5710  -54.7410 C.2   204  THR204      0.2313
    208  O         31.5730   33.2340  -55.3250 O.2   204  THR204     -0.2863
    209  CB        30.0950   30.1970  -55.0460 C.3   204  THR204      0.1794
    210  OG1       31.4920   29.9280  -55.2090 O.3   204  THR204     -0.2208
    211  CG2       29.3090   29.1830  -55.8510 C.3   204  THR204      0.0378
@<TRIPOS>BOND
     1    22    23    1
     2     1     2    1
     3     2     5    1
     4     2     3    1
     5     5     6    1
     6    23    26    1
     7    23    24    1
     8    27    28    1
     9    27    26    1
    10     4     3    2
    11     3    10   am
    12    28    29    2
    13    28    30   am
    14    24    25    2
    15    10    11    1
    16     6     7    1
    17    12    13    2
    18    12    11    1
    19   186   185    1
    20   186   187    1
    21     7     8    1
    22   185   184    1
    23    11    14    1
    24   183   184    1
    25   183   180    1
    26   179   180    1
    27     8     9    1
    28   180   181    1
    29    52    50   ar
    30    52    51   ar
    31    14    15    1
    32    50    48   ar
    33    51    49   ar
    34    17    15   ar
    35    17    19   ar
    36    31    32    1
    37    15    16   ar
    38    48    46   ar
    39    48    47   ar
    40    49    46   ar
    41    19    20   ar
    42   204   203    1
    43   181   182    2
    44   181   188   am
    45    46    44   ar
    46    36    37    1
    47    36    35    1
    48    36    38    1
    49   203   202    1
    50    47    45   ar
    51    16    18   ar
    52    35    32    1
    53   188   189    1
    54    32    33    1
    55    20    18   ar
    56    20    21    1
    57    33    34    2
    58    44    45   ar
    59    44    43    1
    60    61    63   ar
    61    61    59   ar
    62   202   201    1
    63    43    40    1
    64   191   190    2
    65   189   190    1
    66   189   192    1
    67   201   200    1
    68   178   176    1
    69    63    62   ar
    70   190   196   am
    71    88    89    1
    72    88    85    1
    73    59    58   ar
    74   192   193    1
    75   176   175    2
    76   176   177    1
    77    89    90    1
    78    40    41    1
    79    40    39    1
    80    42    41    2
    81   196   197    1
    82   175   174    1
    83    85    86    1
    84    85    84    1
    85    41    53   am
    86    62    60   ar
    87   200   197    1
    88   197   198    1
    89    86    87    2
    90   137   138    1
    91   137   134    1
    92    58    60   ar
    93    58    57    1
    94    53    54    1
    95   138   139    1
    96   193   195    1
    97   193   194    1
    98   174   173    1
    99    75    74    1
   100    54    57    1
   101    54    55    1
   102    90    84    1
   103    84    79   am
   104   156   153    1
   105   136   135    2
   106   198   199    2
   107   198   205   am
   108   134   135    1
   109   134   133    1
   110    56    55    2
   111    73    72    2
   112    55    64   am
   113   139   133    1
   114   155   154    2
   115    80    79    2
   116    79    78    1
   117    74    76    1
   118    74    71    1
   119   173   172    1
   120   154   153    1
   121   151   150    1
   122   205   206    1
   123   133   131   am
   124   153   152    1
   125    64    65    1
   126    72    71    1
   127    72    77   am
   128    70    71    1
   129    70    66   am
   130   148   150   ar
   131   148   146   ar
   132   172   169    1
   133   150   149   ar
   134    78    77    1
   135    78    81    1
   136   152   142   am
   137   211   209    1
   138    65    66    1
   139    65    68    1
   140    66    67    2
   141   146   145   ar
   142   131   132    2
   143   131   130    1
   144   206   209    1
   145   206   207    1
   146   208   207    2
   147   149   147   ar
   148    83    81    1
   149   210   209    1
   150   140   141    1
   151    81    82    1
   152   169   170    1
   153   169   168    1
   154   142   143    2
   155   142   141    1
   156   171   170    2
   157   130   129    1
   158   145   147   ar
   159   145   144    1
   160    68    69    1
   161   141   144    1
   162   167   165   ar
   163   167   166   ar
   164   123   124   ar
   165   123   121   ar
   166   165   163   ar
   167   124   122   ar
   168   121   118   ar
   169   128   127    2
   170   129   127   am
   171   166   164   ar
   172   127   126    1
   173   122   120   ar
   174   163   162   ar
   175   118   120   ar
   176   118   116   ar
   177   164   162   ar
   178   120   119   ar
   179   162   161    1
   180   126   125    1
   181   115   116    1
   182   115   112    1
   183   116   117   ar
   184   125   113   am
   185   113   114    2
   186   113   112    1
   187   112   111    1
   188   119   117   ar
   189   111   106   am
   190   161   158    1
   191   159   158    1
   192   159   160    2
   193   158   157    1
   194    95    96    1
   195    95    92    1
   196   100    99    2
   197   105   106    1
   198   105   108    1
   199   105   104    1
   200   106   107    2
   201    94    93    2
   202   108   109    1
   203    99   104   am
   204    99    98    1
   205    92    93    1
   206    92    91    1
   207    93    97   am
   208   104   110    1
   209   109   110    1
   210    97    98    1
   211    97   103    1
   212    98   101    1
   213   103   102    1
   214   101   102    1
