@<TRIPOS>MOLECULE
tmp/3gdnA01.pdb
 84 81 0 0 0
SMALL
GASTEIGER

@<TRIPOS>ATOM
      1  N         64.5050  -16.0390  -20.0160 N.3   118  ASN118     -0.1240
      2  CA        63.5920  -16.9910  -19.3920 C.3   118  ASN118      0.1653
      3  C         64.4990  -18.1450  -18.9570 C.2   118  ASN118      0.2266
      4  O         65.1610  -18.7570  -19.7930 O.2   118  ASN118     -0.2867
      5  CB        62.6000  -17.4790  -20.4510 C.3   118  ASN118      0.1155
      6  CG        61.6070  -18.4900  -19.9170 C.2   118  ASN118      0.2627
      7  OD1       61.9070  -19.2660  -19.0140 O.2   118  ASN118     -0.2716
      8  ND2       60.4170  -18.4950  -20.5090 N.am  118  ASN118     -0.0877
      9  N         63.9430  -21.0780  -18.2990 N.3   120  SER120     -0.1202
     10  CA        63.5450  -22.3860  -18.8070 C.3   120  SER120      0.2020
     11  C         63.9870  -22.6840  -20.2400 C.2   120  SER120      0.2618
     12  O         63.8210  -23.8080  -20.7140 O.2   120  SER120     -0.2717
     13  CB        62.0220  -22.5360  -18.7190 C.3   120  SER120      0.2103
     14  OG        61.5670  -22.4120  -17.3840 O.3   120  SER120     -0.2182
     15  N         64.5560  -21.6980  -20.9280 N.am  121  ILE121     -0.1979
     16  CA        64.9610  -21.8970  -22.3200 C.3   121  ILE121      0.1595
     17  C         66.3210  -22.5420  -22.5630 C.2   121  ILE121      0.2287
     18  O         66.5660  -23.0870  -23.6400 O.2   121  ILE121     -0.2864
     19  CB        64.9420  -20.5680  -23.1070 C.3   121  ILE121      0.0276
     20  CG1       66.0840  -19.6650  -22.6380 C.3   121  ILE121      0.0022
     21  CG2       63.6030  -19.8750  -22.9170 C.3   121  ILE121      0.0022
     22  CD1       66.1620  -18.3400  -23.3730 C.3   121  ILE121      0.0001
     23  N         62.6330  -12.6830  -16.4150 N.3   177  HIS177     -0.1226
     24  CA        61.4990  -12.8300  -17.3140 C.3   177  HIS177      0.1752
     25  C         60.5730  -13.8880  -16.7260 C.2   177  HIS177      0.2596
     26  O         60.8280  -15.0860  -16.8500 O.2   177  HIS177     -0.2718
     27  CB        61.9690  -13.2870  -18.6940 C.3   177  HIS177      0.0759
     28  CG        60.8510  -13.5380  -19.6570 C.ar  177  HIS177      0.0818
     29  ND1       60.3070  -12.5440  -20.4430 N.ar  177  HIS177     -0.2268
     30  CD2       60.1500  -14.6630  -19.9330 C.ar  177  HIS177      0.1154
     31  CE1       59.3190  -13.0470  -21.1620 C.ar  177  HIS177      0.1986
     32  NE2       59.2020  -14.3320  -20.8710 N.ar  177  HIS177     -0.2212
     33  N         59.5110  -13.4410  -16.0670 N.am  178  GLU178     -0.1965
     34  CA        58.5450  -14.3520  -15.4680 C.3   178  GLU178      0.1733
     35  C         57.1370  -13.8620  -15.7440 C.2   178  GLU178      0.2616
     36  O         56.9010  -12.6630  -15.8860 O.2   178  GLU178     -0.2715
     37  CB        58.7310  -14.4300  -13.9510 C.3   178  GLU178      0.0429
     38  CG        60.0970  -14.8780  -13.4810 C.3   178  GLU178      0.1163
     39  CD        60.1630  -14.9720  -11.9690 C.2   178  GLU178      0.3649
     40  OE1       59.6230  -15.9490  -11.4050 O.co2 178  GLU178     -0.2457
     41  OE2       60.7400  -14.0600  -11.3440 O.co2 178  GLU178     -0.2457
     42  N         56.2010  -14.8010  -15.8030 N.am  179  GLU179     -0.1977
     43  CA        54.8080  -14.4640  -16.0210 C.3   179  GLU179      0.1602
     44  C         54.3580  -13.5160  -14.9130 C.2   179  GLU179      0.2287
     45  O         54.6510  -13.7480  -13.7410 O.2   179  GLU179     -0.2864
     46  CB        53.9630  -15.7350  -16.0030 C.3   179  GLU179      0.0415
     47  CG        52.4860  -15.4990  -16.2030 C.3   179  GLU179      0.1163
     48  CD        51.7030  -16.7940  -16.2500 C.2   179  GLU179      0.3649
     49  OE1       52.3130  -17.8700  -16.0610 O.co2 179  GLU179     -0.2457
     50  OE2       50.4790  -16.7350  -16.4730 O.co2 179  GLU179     -0.2457
     51  N         53.9780   -9.5850  -18.4730 N.3   321  ILE321     -0.1231
     52  CA        54.3470  -10.8290  -19.1330 C.3   321  ILE321      0.1692
     53  C         53.3510  -11.9800  -19.0770 C.2   321  ILE321      0.2593
     54  O         52.9120  -12.3950  -18.0050 O.2   321  ILE321     -0.2718
     55  CB        55.6930  -11.3460  -18.5640 C.3   321  ILE321      0.0266
     56  CG1       56.7600  -10.2550  -18.6890 C.3   321  ILE321      0.0019
     57  CG2       56.1230  -12.6170  -19.2830 C.3   321  ILE321      0.0020
     58  CD1       57.0420   -9.8120  -20.1220 C.3   321  ILE321      0.0001
     59  N         53.0020  -12.4900  -20.2520 N.am  322  SER322     -0.1938
     60  CA        52.1170  -13.6380  -20.3590 C.3   322  SER322      0.2055
     61  C         52.9620  -14.6930  -21.0650 C.2   322  SER322      0.2643
     62  O         54.0090  -14.3750  -21.6280 O.2   322  SER322     -0.2714
     63  CB        50.8730  -13.2920  -21.1760 C.3   322  SER322      0.2130
     64  OG        50.0600  -12.3640  -20.4760 O.3   322  SER322     -0.2179
     65  N         52.5340  -15.9470  -21.0280 N.am  323  ASN323     -0.1971
     66  CA        53.3020  -17.0050  -21.6720 C.3   323  ASN323      0.1688
     67  C         53.3970  -16.8600  -23.1850 C.2   323  ASN323      0.2292
     68  O         54.4200  -17.2000  -23.7840 O.2   323  ASN323     -0.2864
     69  CB        52.6990  -18.3730  -21.3430 C.3   323  ASN323      0.1181
     70  CG        53.0330  -18.8330  -19.9410 C.2   323  ASN323      0.2629
     71  OD1       54.2030  -18.9750  -19.5850 O.2   323  ASN323     -0.2716
     72  ND2       52.0060  -19.0700  -19.1360 N.am  323  ASN323     -0.0877
     73  N         54.1800  -10.5740  -24.6640 N.3   326  TYR326     -0.1241
     74  CA        54.7790   -9.6870  -23.6690 C.3   326  TYR326      0.1605
     75  C         54.3260   -8.2690  -23.9610 C.2   326  TYR326      0.2264
     76  O         54.3410   -7.8320  -25.1110 O.2   326  TYR326     -0.2867
     77  CB        56.2970   -9.7940  -23.7480 C.3   326  TYR326      0.0534
     78  CG        56.7680  -11.2060  -24.0150 C.ar  326  TYR326     -0.0201
     79  CD1       57.6050  -11.4810  -25.0910 C.ar  326  TYR326     -0.0009
     80  CD2       56.3600  -12.2700  -23.2060 C.ar  326  TYR326     -0.0009
     81  CE1       58.0280  -12.7740  -25.3610 C.ar  326  TYR326      0.0417
     82  CE2       56.7810  -13.5780  -23.4700 C.ar  326  TYR326      0.0417
     83  CZ        57.6170  -13.8150  -24.5530 C.ar  326  TYR326      0.1957
     84  OH        58.0550  -15.0880  -24.8430 O.3   326  TYR326     -0.2866
@<TRIPOS>BOND
     1    81    79   ar
     2    81    83   ar
     3    76    75    2
     4    79    78   ar
     5    84    83    1
     6    73    74    1
     7    83    82   ar
     8    78    77    1
     9    78    80   ar
    10    75    74    1
    11    68    67    2
    12    77    74    1
    13    18    17    2
    14    82    80   ar
    15    22    20    1
    16    67    66    1
    17    19    21    1
    18    19    20    1
    19    19    16    1
    20    17    16    1
    21    16    15    1
    22    66    69    1
    23    66    65    1
    24    62    61    2
    25    69    70    1
    26    63    64    1
    27    63    60    1
    28    31    32   ar
    29    31    29   ar
    30    61    65   am
    31    61    60    1
    32    15    11   am
    33    32    30   ar
    34    12    11    2
    35     8     6   am
    36     5     6    1
    37     5     2    1
    38    29    28   ar
    39    60    59    1
    40    59    53   am
    41    11    10    1
    42    58    56    1
    43     1     2    1
    44    70    71    2
    45    70    72   am
    46    30    28   ar
    47     6     7    2
    48     4     3    2
    49    28    27    1
    50     2     3    1
    51    57    55    1
    52    52    53    1
    53    52    55    1
    54    52    51    1
    55    53    54    2
    56    10    13    1
    57    10     9    1
    58    13    14    1
    59    27    24    1
    60    56    55    1
    61    24    25    1
    62    24    23    1
    63    26    25    2
    64    25    33   am
    65    50    48   ar
    66    48    47    1
    67    48    49   ar
    68    47    46    1
    69    33    34    1
    70    43    46    1
    71    43    42    1
    72    43    44    1
    73    36    35    2
    74    42    35   am
    75    35    34    1
    76    34    37    1
    77    44    45    2
    78    37    38    1
    79    38    39    1
    80    39    40   ar
    81    39    41   ar
