@<TRIPOS>MOLECULE
tmp/3gdnA05.pdb
 107 111 0 0 0
SMALL
GASTEIGER

@<TRIPOS>ATOM
      1  N         64.5560  -21.6980  -20.9280 N.3   121  ILE121     -0.1231
      2  CA        64.9610  -21.8970  -22.3200 C.3   121  ILE121      0.1692
      3  C         66.3210  -22.5420  -22.5630 C.2   121  ILE121      0.2592
      4  O         66.5660  -23.0870  -23.6400 O.2   121  ILE121     -0.2718
      5  CB        64.9420  -20.5680  -23.1070 C.3   121  ILE121      0.0266
      6  CG1       66.0840  -19.6650  -22.6380 C.3   121  ILE121      0.0019
      7  CG2       63.6030  -19.8750  -22.9170 C.3   121  ILE121      0.0020
      8  CD1       66.1620  -18.3400  -23.3730 C.3   121  ILE121      0.0001
      9  N         67.2030  -22.4870  -21.5740 N.am  122  TYR122     -0.1976
     10  CA        68.5400  -23.0480  -21.7360 C.3   122  TYR122      0.1639
     11  C         68.5760  -24.5570  -21.9670 C.2   122  TYR122      0.2290
     12  O         69.3590  -25.0500  -22.7770 O.2   122  TYR122     -0.2864
     13  CB        69.4030  -22.7350  -20.5120 C.3   122  TYR122      0.0560
     14  CG        69.5320  -21.2640  -20.2060 C.ar  122  TYR122     -0.0198
     15  CD1       68.7030  -20.6520  -19.2690 C.ar  122  TYR122     -0.0009
     16  CD2       70.4880  -20.4820  -20.8540 C.ar  122  TYR122     -0.0009
     17  CE1       68.8230  -19.2930  -18.9800 C.ar  122  TYR122      0.0417
     18  CE2       70.6160  -19.1230  -20.5740 C.ar  122  TYR122      0.0417
     19  CZ        69.7830  -18.5370  -19.6360 C.ar  122  TYR122      0.1957
     20  OH        69.9210  -17.2000  -19.3440 O.3   122  TYR122     -0.2866
     21  N         68.3130  -26.1710  -25.7450 N.3   125  SER125     -0.1217
     22  CA        68.7110  -25.1580  -26.7160 C.3   125  SER125      0.1889
     23  C         69.8210  -25.5750  -27.6720 C.2   125  SER125      0.2288
     24  O         70.1000  -24.8720  -28.6430 O.2   125  SER125     -0.2866
     25  CB        69.1530  -23.9000  -25.9790 C.3   125  SER125      0.2089
     26  OG        70.2720  -24.1800  -25.1580 O.3   125  SER125     -0.2183
     27  N         74.7160  -25.3310  -21.3110 N.3   129  TRP129     -0.1241
     28  CA        74.9730  -24.1440  -20.5090 C.3   129  TRP129      0.1605
     29  C         75.5320  -24.3720  -19.1180 C.2   129  TRP129      0.2264
     30  O         75.0940  -25.2620  -18.3940 O.2   129  TRP129     -0.2867
     31  CB        73.6980  -23.3060  -20.3780 C.3   129  TRP129      0.0550
     32  CG        73.1730  -22.7970  -21.6770 C.ar  129  TRP129      0.0003
     33  CD1       72.2470  -23.3950  -22.4850 C.ar  129  TRP129      0.0946
     34  CD2       73.5670  -21.5920  -22.3400 C.ar  129  TRP129      0.0152
     35  NE1       72.0410  -22.6350  -23.6110 N.ar  129  TRP129     -0.2442
     36  CE2       72.8400  -21.5230  -23.5480 C.ar  129  TRP129      0.0810
     37  CE3       74.4680  -20.5640  -22.0310 C.ar  129  TRP129      0.0012
     38  CZ2       72.9840  -20.4630  -24.4500 C.ar  129  TRP129      0.0191
     39  CZ3       74.6130  -19.5090  -22.9280 C.ar  129  TRP129      0.0001
     40  CH2       73.8730  -19.4690  -24.1240 C.ar  129  TRP129      0.0015
     41  N         69.8880  -18.2760  -32.2840 N.3   490  PHE490     -0.1228
     42  CA        68.7450  -19.0340  -31.7800 C.3   490  PHE490      0.1721
     43  C         67.4520  -18.6560  -32.4880 C.2   490  PHE490      0.2437
     44  O         67.2720  -17.5140  -32.9030 O.2   490  PHE490     -0.2733
     45  CB        68.6090  -18.8530  -30.2660 C.3   490  PHE490      0.0547
     46  CG        69.7570  -19.4280  -29.4940 C.ar  490  PHE490     -0.0202
     47  CD1       70.7480  -18.6020  -28.9710 C.ar  490  PHE490     -0.0042
     48  CD2       69.8780  -20.8040  -29.3320 C.ar  490  PHE490     -0.0042
     49  CE1       71.8460  -19.1380  -28.2990 C.ar  490  PHE490     -0.0003
     50  CE2       70.9740  -21.3500  -28.6610 C.ar  490  PHE490     -0.0003
     51  CZ        71.9600  -20.5140  -28.1440 C.ar  490  PHE490     -0.0000
     52  N         66.5270  -19.6220  -32.6350 N.am  491  PRO491     -0.2718
     53  CA        65.2410  -19.4080  -33.3070 C.3   491  PRO491      0.1535
     54  C         64.2020  -18.5670  -32.5840 C.2   491  PRO491      0.2599
     55  O         63.4180  -17.8640  -33.2250 O.2   491  PRO491     -0.2715
     56  CB        64.7420  -20.8280  -33.5450 C.3   491  PRO491      0.0310
     57  CG        65.2350  -21.5420  -32.3280 C.3   491  PRO491      0.0237
     58  CD        66.6540  -21.0220  -32.1860 C.3   491  PRO491      0.0939
     59  N         64.1800  -18.6360  -31.2590 N.am  492  TYR492     -0.1960
     60  CA        63.1890  -17.8830  -30.5100 C.3   492  TYR492      0.1771
     61  C         63.8040  -16.8200  -29.6130 C.2   492  TYR492      0.2620
     62  O         64.9710  -16.9090  -29.2330 O.2   492  TYR492     -0.2715
     63  CB        62.3240  -18.8590  -29.7080 C.3   492  TYR492      0.0574
     64  CG        61.7440  -19.9490  -30.5880 C.ar  492  TYR492     -0.0198
     65  CD1       61.9780  -21.2950  -30.3160 C.ar  492  TYR492     -0.0009
     66  CD2       61.0080  -19.6260  -31.7280 C.ar  492  TYR492     -0.0009
     67  CE1       61.4950  -22.2980  -31.1650 C.ar  492  TYR492      0.0417
     68  CE2       60.5220  -20.6160  -32.5820 C.ar  492  TYR492      0.0417
     69  CZ        60.7710  -21.9480  -32.2960 C.ar  492  TYR492      0.1957
     70  OH        60.3070  -22.9250  -33.1540 O.3   492  TYR492     -0.2866
     71  N         63.0190  -15.7940  -29.3030 N.am  493  THR493     -0.1937
     72  CA        63.4990  -14.7120  -28.4550 C.3   493  THR493      0.2013
     73  C         63.6420  -15.2320  -27.0160 C.2   493  THR493      0.2484
     74  O         62.7660  -15.9300  -26.4980 O.2   493  THR493     -0.2729
     75  CB        62.5440  -13.4920  -28.5390 C.3   493  THR493      0.1807
     76  OG1       63.2120  -12.3290  -28.0370 O.3   493  THR493     -0.2208
     77  CG2       61.2710  -13.7350  -27.7480 C.3   493  THR493      0.0379
     78  N         64.7550  -14.8890  -26.3500 N.am  494  PRO494     -0.2726
     79  CA        65.0290  -15.3290  -24.9780 C.3   494  PRO494      0.1402
     80  C         64.1920  -14.7120  -23.8630 C.2   494  PRO494      0.2269
     81  O         64.1410  -15.2480  -22.7550 O.2   494  PRO494     -0.2865
     82  CB        66.5160  -15.0330  -24.8210 C.3   494  PRO494      0.0296
     83  CG        66.6830  -13.7810  -25.6160 C.3   494  PRO494      0.0237
     84  CD        65.8480  -14.0410  -26.8630 C.3   494  PRO494      0.0939
     85  N         70.2570  -11.0080  -22.7030 N.3   501  PHE501     -0.1227
     86  CA        70.8110  -12.2980  -23.0810 C.3   501  PHE501      0.1736
     87  C         71.9660  -12.1650  -24.0820 C.2   501  PHE501      0.2595
     88  O         72.9930  -12.8310  -23.9420 O.2   501  PHE501     -0.2718
     89  CB        69.7170  -13.2000  -23.6650 C.3   501  PHE501      0.0547
     90  CG        70.2470  -14.4870  -24.2160 C.ar  501  PHE501     -0.0202
     91  CD1       70.6000  -15.5300  -23.3670 C.ar  501  PHE501     -0.0042
     92  CD2       70.4910  -14.6180  -25.5790 C.ar  501  PHE501     -0.0042
     93  CE1       71.1980  -16.6830  -23.8690 C.ar  501  PHE501     -0.0003
     94  CE2       71.0890  -15.7640  -26.0930 C.ar  501  PHE501     -0.0003
     95  CZ        71.4460  -16.7990  -25.2360 C.ar  501  PHE501     -0.0000
     96  N         71.8130  -11.3060  -25.0870 N.am  502  TYR502     -0.1976
     97  CA        72.8730  -11.1290  -26.0800 C.3   502  TYR502      0.1639
     98  C         74.1210  -10.4990  -25.4630 C.2   502  TYR502      0.2290
     99  O         75.2400  -10.8040  -25.8730 O.2   502  TYR502     -0.2864
    100  CB        72.3670  -10.2810  -27.2550 C.3   502  TYR502      0.0560
    101  CG        71.2110  -10.9170  -28.0050 C.ar  502  TYR502     -0.0198
    102  CD1       70.2330  -10.1300  -28.6090 C.ar  502  TYR502     -0.0009
    103  CD2       71.0660  -12.3050  -28.0670 C.ar  502  TYR502     -0.0009
    104  CE1       69.1350  -10.7040  -29.2430 C.ar  502  TYR502      0.0417
    105  CE2       69.9660  -12.8900  -28.7040 C.ar  502  TYR502      0.0417
    106  CZ        69.0040  -12.0810  -29.2840 C.ar  502  TYR502      0.1957
    107  OH        67.8900  -12.6350  -29.8810 O.3   502  TYR502     -0.2866
@<TRIPOS>BOND
     1    56    53    1
     2    56    57    1
     3    53    52    1
     4    53    54    1
     5    55    54    2
     6    70    69    1
     7    44    43    2
     8    52    43   am
     9    52    58    1
    10    54    59   am
    11    68    69   ar
    12    68    66   ar
    13    43    42    1
    14    57    58    1
    15    69    67   ar
    16    41    42    1
    17    42    45    1
    18    66    64   ar
    19    59    60    1
    20    67    65   ar
    21    64    65   ar
    22    64    63    1
    23    60    63    1
    24    60    61    1
    25    45    46    1
    26   107   106    1
    27    61    71   am
    28    61    62    2
    29    46    48   ar
    30    46    47   ar
    31    48    50   ar
    32    71    72    1
    33   106   104   ar
    34   106   105   ar
    35   104   102   ar
    36    47    49   ar
    37   105   103   ar
    38    50    51   ar
    39    24    23    2
    40   102   101   ar
    41    75    72    1
    42    75    76    1
    43    75    77    1
    44    72    73    1
    45    49    51   ar
    46   103   101   ar
    47   101   100    1
    48    23    22    1
    49   100    97    1
    50    73    74    2
    51    73    78   am
    52    84    78    1
    53    84    83    1
    54    22    25    1
    55    22    21    1
    56    78    79    1
    57    94    92   ar
    58    94    95   ar
    59    97    98    1
    60    97    96    1
    61    25    26    1
    62    99    98    2
    63    83    82    1
    64    92    90   ar
    65    95    93   ar
    66    96    87   am
    67    79    82    1
    68    79    80    1
    69    38    40   ar
    70    38    36   ar
    71    90    89    1
    72    90    91   ar
    73    40    39   ar
    74    87    88    2
    75    87    86    1
    76    93    91   ar
    77    80    81    2
    78    89    86    1
    79     4     3    2
    80    35    36   ar
    81    35    33   ar
    82    36    34   ar
    83     8     6    1
    84     5     7    1
    85     5     6    1
    86     5     2    1
    87    86    85    1
    88    39    37   ar
    89    12    11    2
    90     3     2    1
    91     3     9   am
    92    33    32   ar
    93    34    37   ar
    94    34    32   ar
    95     2     1    1
    96    11    10    1
    97    10     9    1
    98    10    13    1
    99    32    31    1
   100    27    28    1
   101    16    18   ar
   102    16    14   ar
   103    18    19   ar
   104    13    14    1
   105    28    31    1
   106    28    29    1
   107    14    15   ar
   108    19    20    1
   109    19    17   ar
   110    15    17   ar
   111    29    30    2
