@<TRIPOS>MOLECULE
tmp/3gdnB02.pdb
 100 96 0 0 0
SMALL
GASTEIGER

@<TRIPOS>ATOM
      1  N         42.1200   36.2650    0.7240 N.3   116  ARG116     -0.1245
      2  CA        42.8970   35.0390    0.6240 C.3   116  ARG116      0.1563
      3  C         42.0090   34.0780   -0.1490 C.2   116  ARG116      0.2260
      4  O         40.7840   34.2040   -0.1270 O.2   116  ARG116     -0.2867
      5  CB        43.2000   34.4510    2.0020 C.3   116  ARG116      0.0307
      6  CG        44.2370   35.2170    2.7920 C.3   116  ARG116      0.0489
      7  CD        44.6480   34.4340    4.0270 C.3   116  ARG116      0.2205
      8  NE        45.7140   35.1050    4.7660 N.pl3 116  ARG116     -0.0865
      9  CZ        46.3310   34.5810    5.8200 C.cat 116  ARG116      0.5346
     10  NH1       45.9880   33.3750    6.2610 N.pl3 116  ARG116      0.1354
     11  NH2       47.2950   35.2580    6.4310 N.pl3 116  ARG116      0.1354
     12  N         39.9040   28.3790    0.9880 N.3   119  THR119     -0.1218
     13  CA        40.7350   27.2830    1.4830 C.3   119  THR119      0.1862
     14  C         40.3830   25.8840    0.9700 C.2   119  THR119      0.2287
     15  O         41.1560   24.9460    1.1540 O.2   119  THR119     -0.2866
     16  CB        40.7360   27.2460    3.0260 C.3   119  THR119      0.1770
     17  OG1       39.3930   27.1020    3.5040 O.3   119  THR119     -0.2211
     18  CG2       41.3430   28.5240    3.5900 C.3   119  THR119      0.0375
     19  N         50.6390   23.8920    2.6910 N.3   131  MET131     -0.1230
     20  CA        49.7870   24.8820    3.3420 C.3   131  MET131      0.1702
     21  C         50.4840   25.7590    4.3700 C.2   131  MET131      0.2592
     22  O         50.0680   26.8970    4.5980 O.2   131  MET131     -0.2718
     23  CB        48.5640   24.2050    3.9670 C.3   131  MET131      0.0401
     24  CG        47.6250   23.5720    2.9410 C.3   131  MET131      0.0596
     25  SD        47.2380   24.6670    1.5400 S.3   131  MET131     -0.1393
     26  CE        46.2240   25.8770    2.3280 C.3   131  MET131      0.0692
     27  N         51.5340   25.2430    5.0010 N.am  132  ASP132     -0.1974
     28  CA        52.2580   26.0550    5.9660 C.3   132  ASP132      0.1709
     29  C         52.9360   27.1750    5.1930 C.2   132  ASP132      0.2293
     30  O         52.9220   28.3330    5.6160 O.2   132  ASP132     -0.2864
     31  CB        53.3180   25.2350    6.7110 C.3   132  ASP132      0.1436
     32  CG        52.7150   24.2530    7.6910 C.2   132  ASP132      0.3671
     33  OD1       51.6460   24.5550    8.2590 O.co2 132  ASP132     -0.2456
     34  OD2       53.3230   23.1830    7.9100 O.co2 132  ASP132     -0.2456
     35  N         50.3870   29.9160    3.8260 N.3   135  ASN135     -0.1240
     36  CA        50.0470   30.9160    4.8280 C.3   135  ASN135      0.1653
     37  C         51.2100   31.8220    5.2000 C.2   135  ASN135      0.2266
     38  O         51.0170   33.0150    5.4180 O.2   135  ASN135     -0.2867
     39  CB        49.4870   30.2430    6.0730 C.3   135  ASN135      0.1155
     40  CG        48.0580   29.7960    5.8880 C.2   135  ASN135      0.2627
     41  OD1       47.4950   29.8930    4.7940 O.2   135  ASN135     -0.2716
     42  ND2       47.4670   29.3030    6.9640 N.am  135  ASN135     -0.0877
     43  N         26.9640   33.9020    7.4210 N.3   169  PRO169     -0.2102
     44  CA        26.9550   34.7470    8.6190 C.3   169  PRO169      0.1504
     45  C         27.8040   36.0040    8.4570 C.2   169  PRO169      0.2576
     46  O         28.3100   36.3000    7.3710 O.2   169  PRO169     -0.2718
     47  CB        27.5300   33.8200    9.6790 C.3   169  PRO169      0.0282
     48  CG        28.5880   33.0970    8.9000 C.3   169  PRO169      0.0208
     49  CD        27.8660   32.7500    7.6060 C.3   169  PRO169      0.0893
     50  N         27.9450   36.7460    9.5500 N.am  170  ASN170     -0.1961
     51  CA        28.7700   37.9480    9.5570 C.3   170  ASN170      0.1819
     52  C         30.1280   37.5000   10.0780 C.2   170  ASN170      0.2621
     53  O         30.2040   36.7940   11.0810 O.2   170  ASN170     -0.2715
     54  CB        28.1690   39.0070   10.4860 C.3   170  ASN170      0.1195
     55  CG        29.0520   40.2340   10.6190 C.2   170  ASN170      0.2630
     56  OD1       29.8770   40.5180    9.7500 O.2   170  ASN170     -0.2716
     57  ND2       28.8740   40.9760   11.7030 N.am  170  ASN170     -0.0877
     58  N         31.1940   37.8970    9.3900 N.am  171  HIS171     -0.1973
     59  CA        32.5460   37.5130    9.7840 C.3   171  HIS171      0.1656
     60  C         33.3300   38.6740   10.3780 C.2   171  HIS171      0.2291
     61  O         34.5000   38.5150   10.7260 O.2   171  HIS171     -0.2864
     62  CB        33.3130   36.9750    8.5710 C.3   171  HIS171      0.0771
     63  CG        32.7320   35.7230    7.9940 C.ar  171  HIS171      0.0820
     64  ND1       32.9340   34.4800    8.5550 N.ar  171  HIS171     -0.2267
     65  CD2       31.9400   35.5240    6.9140 C.ar  171  HIS171      0.1154
     66  CE1       32.2900   33.5700    7.8450 C.ar  171  HIS171      0.1986
     67  NE2       31.6790   34.1780    6.8450 N.ar  171  HIS171     -0.2212
     68  N         37.7260   40.1190    8.2110 N.3   174  SER174     -0.1217
     69  CA        38.4190   38.8810    7.8920 C.3   174  SER174      0.1889
     70  C         38.9190   38.9040    6.4560 C.2   174  SER174      0.2288
     71  O         38.2560   39.4420    5.5720 O.2   174  SER174     -0.2866
     72  CB        37.4740   37.6940    8.0820 C.3   174  SER174      0.2089
     73  OG        38.1100   36.4820    7.7260 O.3   174  SER174     -0.2183
     74  N         39.6650   36.0770    4.8220 N.3   176  ASP176     -0.1225
     75  CA        39.2520   34.8270    4.1990 C.3   176  ASP176      0.1805
     76  C         37.9740   34.8280    3.3840 C.2   176  ASP176      0.2598
     77  O         36.9590   35.3960    3.7880 O.2   176  ASP176     -0.2718
     78  CB        39.1590   33.7350    5.2600 C.3   176  ASP176      0.1424
     79  CG        40.5100   33.3500    5.8040 C.2   176  ASP176      0.3668
     80  OD1       41.3830   32.9770    4.9920 O.co2 176  ASP176     -0.2456
     81  OD2       40.6940   33.4200    7.0370 O.co2 176  ASP176     -0.2456
     82  N         38.0450   34.1590    2.2350 N.am  177  HIS177     -0.1961
     83  CA        36.9110   34.0190    1.3310 C.3   177  HIS177      0.1787
     84  C         35.9840   32.9680    1.9270 C.2   177  HIS177      0.2620
     85  O         36.2320   31.7640    1.8050 O.2   177  HIS177     -0.2715
     86  CB        37.3830   33.5480   -0.0450 C.3   177  HIS177      0.0785
     87  CG        36.2680   33.3020   -1.0150 C.ar  177  HIS177      0.0821
     88  ND1       35.7690   34.2860   -1.8430 N.ar  177  HIS177     -0.2267
     89  CD2       35.5270   32.1950   -1.2570 C.ar  177  HIS177      0.1154
     90  CE1       34.7690   33.7950   -2.5520 C.ar  177  HIS177      0.1986
     91  NE2       34.6000   32.5280   -2.2170 N.ar  177  HIS177     -0.2212
     92  N         34.9290   33.4260    2.5870 N.am  178  GLU178     -0.1977
     93  CA        33.9620   32.5240    3.1980 C.3   178  GLU178      0.1602
     94  C         32.5570   33.0330    2.9370 C.2   178  GLU178      0.2287
     95  O         32.3230   34.2380    2.8390 O.2   178  GLU178     -0.2864
     96  CB        34.1650   32.4400    4.7110 C.3   178  GLU178      0.0415
     97  CG        35.5320   31.9710    5.1580 C.3   178  GLU178      0.1163
     98  CD        35.6150   31.8510    6.6670 C.2   178  GLU178      0.3649
     99  OE1       35.0860   30.8620    7.2190 O.co2 178  GLU178     -0.2457
    100  OE2       36.1900   32.7550    7.3030 O.co2 178  GLU178     -0.2457
@<TRIPOS>BOND
     1    90    91   ar
     2    90    88   ar
     3    91    89   ar
     4    88    87   ar
     5    89    87   ar
     6    87    86    1
     7     3     4    2
     8     3     2    1
     9    86    83    1
    10     2     1    1
    11     2     5    1
    12    14    15    2
    13    14    13    1
    14    12    13    1
    15    83    84    1
    16    83    82    1
    17    13    16    1
    18    25    26    1
    19    25    24    1
    20    85    84    2
    21    84    92   am
    22     5     6    1
    23    82    76   am
    24    92    93    1
    25    19    20    1
    26     6     7    1
    27    95    94    2
    28    94    93    1
    29    24    23    1
    30    16    17    1
    31    16    18    1
    32    93    96    1
    33    20    23    1
    34    20    21    1
    35    76    77    2
    36    76    75    1
    37    35    36    1
    38     7     8    1
    39    75    74    1
    40    75    78    1
    41    21    22    2
    42    21    27   am
    43    96    97    1
    44     8     9    2
    45    41    40    2
    46    36    37    1
    47    36    39    1
    48    80    79   ar
    49    27    28    1
    50    97    98    1
    51    29    30    2
    52    29    28    1
    53    37    38    2
    54    78    79    1
    55    71    70    2
    56    79    81   ar
    57     9    10    1
    58     9    11    1
    59    40    39    1
    60    40    42   am
    61    28    31    1
    62    70    69    1
    63    98    99   ar
    64    98   100   ar
    65    31    32    1
    66    67    65   ar
    67    67    66   ar
    68    65    63   ar
    69    46    45    2
    70    43    49    1
    71    43    44    1
    72    49    48    1
    73    32    34   ar
    74    32    33   ar
    75    73    72    1
    76    66    64   ar
    77    69    72    1
    78    69    68    1
    79    63    64   ar
    80    63    62    1
    81    45    44    1
    82    45    50   am
    83    62    59    1
    84    44    47    1
    85    48    47    1
    86    58    59    1
    87    58    52   am
    88    50    51    1
    89    51    52    1
    90    51    54    1
    91    56    55    2
    92    59    60    1
    93    52    53    2
    94    60    61    2
    95    54    55    1
    96    55    57   am
