@<TRIPOS>MOLECULE
tmp/3gdnA04.pdb
 130 127 0 0 0
SMALL
GASTEIGER

@<TRIPOS>ATOM
      1  N         66.1320    8.8950  -27.8960 N.3    72  PHE72      -0.1241
      2  CA        65.6680    7.6480  -28.5000 C.3    72  PHE72       0.1605
      3  C         64.9080    7.8470  -29.8100 C.2    72  PHE72       0.2264
      4  O         65.2860    7.3050  -30.8510 O.2    72  PHE72      -0.2867
      5  CB        64.7830    6.8830  -27.5090 C.3    72  PHE72       0.0534
      6  CG        64.1370    5.6570  -28.0930 C.ar   72  PHE72      -0.0203
      7  CD1       64.9150    4.6180  -28.5950 C.ar   72  PHE72      -0.0042
      8  CD2       62.7490    5.5450  -28.1510 C.ar   72  PHE72      -0.0042
      9  CE1       64.3270    3.4870  -29.1460 C.ar   72  PHE72      -0.0003
     10  CE2       62.1450    4.4160  -28.7000 C.ar   72  PHE72      -0.0003
     11  CZ        62.9350    3.3820  -29.2000 C.ar   72  PHE72      -0.0000
     12  N         65.5190    0.7890  -26.8080 N.3   111  ALA111     -0.1245
     13  CA        64.6390    1.3420  -25.7830 C.3   111  ALA111      0.1562
     14  C         65.1230    1.1360  -24.3460 C.2   111  ALA111      0.2260
     15  O         64.4020    1.4380  -23.3950 O.2   111  ALA111     -0.2867
     16  CB        63.2300    0.7750  -25.9530 C.3   111  ALA111      0.0290
     17  N         65.2820   -1.3090  -22.2890 N.3   113  VAL113     -0.1245
     18  CA        64.7100   -2.3120  -21.3900 C.3   113  VAL113      0.1561
     19  C         65.6630   -3.4910  -21.1850 C.2   113  VAL113      0.2260
     20  O         66.1320   -4.0970  -22.1490 O.2   113  VAL113     -0.2867
     21  CB        63.3610   -2.8440  -21.9250 C.3   113  VAL113      0.0252
     22  CG1       62.7130   -3.7590  -20.8890 C.3   113  VAL113      0.0019
     23  CG2       62.4350   -1.6840  -22.2460 C.3   113  VAL113      0.0019
     24  N         54.8990   -6.9610  -33.5500 N.3   300  ARG300     -0.1245
     25  CA        54.4580   -6.0110  -32.5490 C.3   300  ARG300      0.1563
     26  C         53.1080   -5.4790  -33.0020 C.2   300  ARG300      0.2260
     27  O         52.9520   -5.0370  -34.1430 O.2   300  ARG300     -0.2867
     28  CB        55.4440   -4.8390  -32.4210 C.3   300  ARG300      0.0307
     29  CG        54.9010   -3.6430  -31.6100 C.3   300  ARG300      0.0489
     30  CD        56.0210   -2.6910  -31.1940 C.3   300  ARG300      0.2205
     31  NE        56.8050   -2.2470  -32.3410 N.pl3 300  ARG300     -0.0865
     32  CZ        56.6030   -1.1130  -33.0080 C.cat 300  ARG300      0.5346
     33  NH1       55.6410   -0.2800  -32.6410 N.pl3 300  ARG300      0.1354
     34  NH2       57.3520   -0.8290  -34.0650 N.pl3 300  ARG300      0.1354
     35  N         60.4360    2.7540  -20.8740 N.3   316  VAL316     -0.1245
     36  CA        59.7050    1.5520  -20.5120 C.3   316  VAL316      0.1561
     37  C         60.3980    0.8040  -19.3820 C.2   316  VAL316      0.2260
     38  O         61.5840    0.4870  -19.4710 O.2   316  VAL316     -0.2867
     39  CB        59.5550    0.6040  -21.7190 C.3   316  VAL316      0.0252
     40  CG1       58.9410   -0.7160  -21.2670 C.3   316  VAL316      0.0019
     41  CG2       58.6770    1.2560  -22.7820 C.3   316  VAL316      0.0019
     42  N         53.8360   -3.8600  -22.7270 N.3   328  CYS328     -0.1235
     43  CA        54.3540   -2.6920  -22.0290 C.3   328  CYS328      0.1677
     44  C         53.7000   -1.4550  -22.6300 C.2   328  CYS328      0.2270
     45  O         52.9370   -1.5530  -23.5900 O.2   328  CYS328     -0.2867
     46  CB        55.8710   -2.5950  -22.2030 C.3   328  CYS328      0.0956
     47  SG        56.3910   -2.1930  -23.8890 S.3   328  CYS328     -0.0801
     48  N         54.6360    2.6700  -23.7590 N.3   330  PHE330     -0.1241
     49  CA        55.6230    3.7190  -23.9650 C.3   330  PHE330      0.1605
     50  C         54.8830    5.0460  -24.1210 C.2   330  PHE330      0.2264
     51  O         54.0220    5.1760  -24.9890 O.2   330  PHE330     -0.2867
     52  CB        56.4230    3.3990  -25.2370 C.3   330  PHE330      0.0534
     53  CG        57.3850    4.4780  -25.6570 C.ar  330  PHE330     -0.0203
     54  CD1       58.5130    4.7660  -24.8970 C.ar  330  PHE330     -0.0042
     55  CD2       57.1750    5.1860  -26.8390 C.ar  330  PHE330     -0.0042
     56  CE1       59.4220    5.7430  -25.3100 C.ar  330  PHE330     -0.0003
     57  CE2       58.0760    6.1620  -27.2590 C.ar  330  PHE330     -0.0003
     58  CZ        59.2010    6.4410  -26.4940 C.ar  330  PHE330     -0.0000
     59  N         59.0840    2.8910  -36.0870 N.3   342  PHE342     -0.1241
     60  CA        58.1500    2.9440  -34.9630 C.3   342  PHE342      0.1605
     61  C         56.7870    2.4600  -35.4520 C.2   342  PHE342      0.2264
     62  O         56.1690    1.5850  -34.8470 O.2   342  PHE342     -0.2867
     63  CB        58.0380    4.3650  -34.4150 C.3   342  PHE342      0.0534
     64  CG        57.4400    4.4280  -33.0390 C.ar  342  PHE342     -0.0203
     65  CD1       58.2310    4.2210  -31.9120 C.ar  342  PHE342     -0.0042
     66  CD2       56.0800    4.6530  -32.8730 C.ar  342  PHE342     -0.0042
     67  CE1       57.6720    4.2390  -30.6330 C.ar  342  PHE342     -0.0003
     68  CE2       55.5070    4.6710  -31.6010 C.ar  342  PHE342     -0.0003
     69  CZ        56.3040    4.4640  -30.4790 C.ar  342  PHE342     -0.0000
     70  N         51.7230    4.4210  -26.1930 N.3   357  HIS357     -0.1241
     71  CA        51.8040    3.3180  -27.1410 C.3   357  HIS357      0.1621
     72  C         51.7810    1.9910  -26.3790 C.2   357  HIS357      0.2264
     73  O         52.7870    1.6010  -25.7930 O.2   357  HIS357     -0.2867
     74  CB        53.1240    3.4660  -27.9120 C.3   357  HIS357      0.0745
     75  CG        53.3850    2.3970  -28.9270 C.ar  357  HIS357      0.0817
     76  ND1       52.7700    2.3700  -30.1610 N.ar  357  HIS357     -0.2268
     77  CD2       54.2560    1.3600  -28.9180 C.ar  357  HIS357      0.1154
     78  CE1       53.2560    1.3650  -30.8700 C.ar  357  HIS357      0.1986
     79  NE2       54.1590    0.7370  -30.1390 N.ar  357  HIS357     -0.2212
     80  N         52.1090   -1.6780  -26.4190 N.3   359  ALA359     -0.1245
     81  CA        52.6780   -2.6670  -27.3280 C.3   359  ALA359      0.1562
     82  C         52.5610   -4.1070  -26.8430 C.2   359  ALA359      0.2260
     83  O         52.6190   -4.3860  -25.6440 O.2   359  ALA359     -0.2867
     84  CB        54.1380   -2.3250  -27.5880 C.3   359  ALA359      0.0290
     85  N         58.8350   -5.6630  -33.6420 N.3   457  TYR457     -0.1227
     86  CA        59.1720   -5.3290  -32.2650 C.3   457  TYR457      0.1736
     87  C         60.6760   -5.0500  -32.2190 C.2   457  TYR457      0.2595
     88  O         61.2310   -4.7410  -31.1690 O.2   457  TYR457     -0.2718
     89  CB        58.8170   -6.4670  -31.3060 C.3   457  TYR457      0.0548
     90  CG        58.3640   -5.9510  -29.9590 C.ar  457  TYR457     -0.0200
     91  CD1       57.0100   -5.8000  -29.6670 C.ar  457  TYR457     -0.0009
     92  CD2       59.2950   -5.5320  -29.0080 C.ar  457  TYR457     -0.0009
     93  CE1       56.5910   -5.2360  -28.4610 C.ar  457  TYR457      0.0417
     94  CE2       58.8870   -4.9680  -27.8060 C.ar  457  TYR457      0.0417
     95  CZ        57.5380   -4.8200  -27.5410 C.ar  457  TYR457      0.1957
     96  OH        57.1430   -4.2340  -26.3610 O.3   457  TYR457     -0.2866
     97  N         61.3190   -5.1630  -33.3800 N.am  458  TRP458     -0.1962
     98  CA        62.7520   -4.9050  -33.5380 C.3   458  TRP458      0.1771
     99  C         63.6400   -5.9410  -32.8550 C.2   458  TRP458      0.2619
    100  O         64.8500   -5.7400  -32.7180 O.2   458  TRP458     -0.2715
    101  CB        63.1130   -3.5310  -32.9750 C.3   458  TRP458      0.0590
    102  CG        62.2130   -2.4020  -33.3800 C.ar  458  TRP458      0.0006
    103  CD1       61.8940   -2.0130  -34.6510 C.ar  458  TRP458      0.0946
    104  CD2       61.5550   -1.4820  -32.5010 C.ar  458  TRP458      0.0152
    105  NE1       61.0800   -0.9030  -34.6150 N.ar  458  TRP458     -0.2442
    106  CE2       60.8580   -0.5560  -33.3080 C.ar  458  TRP458      0.0810
    107  CE3       61.4910   -1.3480  -31.1060 C.ar  458  TRP458      0.0012
    108  CZ2       60.1020    0.4910  -32.7670 C.ar  458  TRP458      0.0191
    109  CZ3       60.7400   -0.3060  -30.5670 C.ar  458  TRP458      0.0001
    110  CH2       60.0570    0.6000  -31.4000 C.ar  458  TRP458      0.0015
    111  N         63.0500   -7.0460  -32.4240 N.am  459  HIS459     -0.1973
    112  CA        63.8220   -8.0760  -31.7480 C.3   459  HIS459      0.1656
    113  C         64.1030   -9.2650  -32.6540 C.2   459  HIS459      0.2291
    114  O         64.1860  -10.4050  -32.1900 O.2   459  HIS459     -0.2864
    115  CB        63.0880   -8.5260  -30.4820 C.3   459  HIS459      0.0771
    116  CG        62.9200   -7.4410  -29.4660 C.ar  459  HIS459      0.0820
    117  ND1       62.2360   -7.6280  -28.2840 N.ar  459  HIS459     -0.2267
    118  CD2       63.3390   -6.1520  -29.4570 C.ar  459  HIS459      0.1154
    119  CE1       62.2380   -6.5010  -27.5920 C.ar  459  HIS459      0.1986
    120  NE2       62.9010   -5.5900  -28.2820 N.ar  459  HIS459     -0.2212
    121  N         62.5460   -8.8290  -23.8140 N.3   497  HIS497     -0.1241
    122  CA        63.5800   -7.9380  -24.3240 C.3   497  HIS497      0.1621
    123  C         64.8770   -8.7360  -24.2740 C.2   497  HIS497      0.2264
    124  O         65.3550   -9.1060  -23.2040 O.2   497  HIS497     -0.2867
    125  CB        63.6220   -6.6750  -23.4700 C.3   497  HIS497      0.0745
    126  CG        62.3580   -5.8770  -23.5530 C.ar  497  HIS497      0.0817
    127  ND1       61.2040   -6.2390  -22.8890 N.ar  497  HIS497     -0.2268
    128  CD2       62.0410   -4.7870  -24.2900 C.ar  497  HIS497      0.1154
    129  CE1       60.2320   -5.4060  -23.2150 C.ar  497  HIS497      0.1986
    130  NE2       60.7130   -4.5170  -24.0650 N.ar  497  HIS497     -0.2212
@<TRIPOS>BOND
     1    59    60    1
     2    61    60    1
     3    61    62    2
     4    60    63    1
     5   103   105   ar
     6   103   102   ar
     7   105   106   ar
     8    63    64    1
     9    27    26    2
    10    34    32    1
    11    85    86    1
    12    24    25    1
    13    98    97    1
    14    98   101    1
    15    98    99    1
    16    97    87   am
    17   102   101    1
    18   102   104   ar
    19   106   108   ar
    20   106   104   ar
    21    64    66   ar
    22    64    65   ar
    23    32    33    1
    24    32    31    2
    25    26    25    1
    26    66    68   ar
    27    99   100    2
    28    99   111   am
    29   108   110   ar
    30   113   114    2
    31   113   112    1
    32    25    28    1
    33   104   107   ar
    34   111   112    1
    35    28    29    1
    36    31    30    1
    37    86    87    1
    38    86    89    1
    39    87    88    2
    40    65    67   ar
    41   112   115    1
    42    29    30    1
    43    68    69   ar
    44   110   109   ar
    45    89    90    1
    46   107   109   ar
    47    78    76   ar
    48    78    79   ar
    49     4     3    2
    50    67    69   ar
    51   115   116    1
    52    76    75   ar
    53    79    77   ar
    54    90    91   ar
    55    90    92   ar
    56     3     2    1
    57    91    93   ar
    58   116   118   ar
    59   116   117   ar
    60   118   120   ar
    61    11     9   ar
    62    11    10   ar
    63     9     7   ar
    64    92    94   ar
    65    75    77   ar
    66    75    74    1
    67    10     8   ar
    68     7     6   ar
    69     2     1    1
    70     2     5    1
    71    93    95   ar
    72   117   119   ar
    73   120   119   ar
    74     8     6   ar
    75     6     5    1
    76    74    71    1
    77    94    95   ar
    78    84    81    1
    79    95    96    1
    80    81    82    1
    81    81    80    1
    82    57    55   ar
    83    57    58   ar
    84    71    72    1
    85    71    70    1
    86    82    83    2
    87    55    53   ar
    88    12    13    1
    89    58    56   ar
    90    72    73    2
    91    16    13    1
    92    13    14    1
    93    53    52    1
    94    53    54   ar
    95    56    54   ar
    96    52    49    1
    97    51    50    2
    98    14    15    2
    99   122   123    1
   100   122   121    1
   101   122   125    1
   102   128   130   ar
   103   128   126   ar
   104   123   124    2
   105    50    49    1
   106   130   129   ar
   107    49    48    1
   108    47    46    1
   109    45    44    2
   110   126   125    1
   111   126   127   ar
   112   129   127   ar
   113    41    39    1
   114    42    43    1
   115    44    43    1
   116    17    18    1
   117    23    21    1
   118    46    43    1
   119    20    19    2
   120    21    18    1
   121    21    22    1
   122    39    40    1
   123    39    36    1
   124    18    19    1
   125    35    36    1
   126    36    37    1
   127    38    37    2
