@<TRIPOS>MOLECULE
tmp/3gdsA00.pdb
 173 167 0 0 0
SMALL
GASTEIGER

@<TRIPOS>ATOM
      1  N         -0.6110  -25.6530    4.4040 N.3   146  PRO146     -0.2102
      2  CA        -0.0230  -26.9240    3.9740 C.3   146  PRO146      0.1504
      3  C         -0.6390  -28.0890    4.7350 C.2   146  PRO146      0.2576
      4  O         -0.8030  -29.1790    4.1880 O.2   146  PRO146     -0.2718
      5  CB         1.4500  -26.7730    4.3530 C.3   146  PRO146      0.0282
      6  CG         1.4600  -25.7960    5.4750 C.3   146  PRO146      0.0208
      7  CD         0.2920  -24.8790    5.2760 C.3   146  PRO146      0.0893
      8  N         -0.9890  -27.8410    5.9910 N.am  147  THR147     -0.1939
      9  CA        -1.4800  -28.8830    6.8790 C.3   147  THR147      0.2028
     10  C         -2.9840  -29.0980    6.7590 C.2   147  THR147      0.2643
     11  O         -3.7230  -28.2000    6.3550 O.2   147  THR147     -0.2714
     12  CB        -1.1680  -28.5350    8.3460 C.3   147  THR147      0.1808
     13  OG1       -1.7740  -27.2780    8.6750 O.3   147  THR147     -0.2208
     14  CG2        0.3330  -28.4360    8.5640 C.3   147  THR147      0.0379
     15  N         -3.4250  -30.3040    7.1020 N.am  148  GLY148     -0.1939
     16  CA        -4.8300  -30.5660    7.3510 C.3   148  GLY148      0.2014
     17  C         -5.7220  -30.9490    6.1860 C.2   148  GLY148      0.2638
     18  O         -6.9330  -31.0240    6.3590 O.2   148  GLY148     -0.2714
     19  N         -5.1450  -31.2000    5.0130 N.am  149  ARG149     -0.1977
     20  CA        -5.9280  -31.6060    3.8390 C.3   149  ARG149      0.1597
     21  C         -7.2250  -30.8000    3.6740 C.2   149  ARG149      0.2287
     22  O         -7.1890  -29.5910    3.4420 O.2   149  ARG149     -0.2864
     23  CB        -6.2370  -33.1130    3.8770 C.3   149  ARG149      0.0334
     24  CG        -6.8290  -33.6100    5.1980 C.3   149  ARG149      0.0492
     25  CD        -7.5550  -34.9410    5.0550 C.3   149  ARG149      0.2205
     26  NE        -8.1070  -35.3880    6.3330 N.pl3 149  ARG149     -0.0865
     27  CZ        -8.9160  -36.4330    6.4800 C.cat 149  ARG149      0.5346
     28  NH1       -9.2780  -37.1510    5.4250 N.pl3 149  ARG149      0.1354
     29  NH2       -9.3660  -36.7610    7.6830 N.pl3 149  ARG149      0.1354
     30  N        -11.2360  -39.8710   16.8590 N.3   219  GLY219     -0.1210
     31  CA       -10.2290  -40.5710   17.6340 C.3   219  GLY219      0.1956
     32  C         -8.8900  -39.8690   17.5070 C.2   219  GLY219      0.2612
     33  O         -8.4910  -39.4740   16.4120 O.2   219  GLY219     -0.2717
     34  N         -8.1940  -39.7190   18.6290 N.am  220  TYR220     -0.1962
     35  CA        -6.9550  -38.9490   18.6750 C.3   220  TYR220      0.1771
     36  C         -5.7880  -39.7270   19.2910 C.2   220  TYR220      0.2619
     37  O         -5.7930  -40.0390   20.4810 O.2   220  TYR220     -0.2715
     38  CB        -7.2040  -37.6370   19.4250 C.3   220  TYR220      0.0574
     39  CG        -6.0020  -37.0260   20.1130 C.ar  220  TYR220     -0.0198
     40  CD1       -5.1320  -36.1880   19.4240 C.ar  220  TYR220     -0.0009
     41  CD2       -5.7570  -37.2600   21.4620 C.ar  220  TYR220     -0.0009
     42  CE1       -4.0390  -35.6150   20.0540 C.ar  220  TYR220      0.0417
     43  CE2       -4.6670  -36.6930   22.1010 C.ar  220  TYR220      0.0417
     44  CZ        -3.8150  -35.8680   21.3940 C.ar  220  TYR220      0.1957
     45  OH        -2.7290  -35.3060   22.0260 O.3   220  TYR220     -0.2866
     46  N         -4.7940  -40.0400   18.4640 N.am  221  ILE221     -0.1963
     47  CA        -3.5860  -40.7310   18.9150 C.3   221  ILE221      0.1727
     48  C         -2.7860  -39.8960   19.9150 C.2   221  ILE221      0.2617
     49  O         -2.3560  -40.4000   20.9550 O.2   221  ILE221     -0.2715
     50  CB        -2.6680  -41.1040   17.7280 C.3   221  ILE221      0.0290
     51  CG1       -3.1030  -42.4380   17.1170 C.3   221  ILE221      0.0022
     52  CG2       -1.2160  -41.1960   18.1760 C.3   221  ILE221      0.0023
     53  CD1       -2.1870  -42.9470   16.0140 C.3   221  ILE221      0.0001
     54  N         -2.5770  -38.6250   19.5810 N.am  222  GLY222     -0.1940
     55  CA        -1.8430  -37.7140   20.4420 C.3   222  GLY222      0.2014
     56  C         -0.4800  -37.3460   19.8960 C.2   222  GLY222      0.2639
     57  O          0.2330  -36.5110   20.4580 O.2   222  GLY222     -0.2714
     58  N         -0.1190  -37.9720   18.7840 N.am  223  ILE223     -0.1963
     59  CA         1.2170  -37.8250   18.2260 C.3   223  ILE223      0.1727
     60  C          1.2110  -37.2370   16.8250 C.2   223  ILE223      0.2617
     61  O          0.5420  -37.7470   15.9250 O.2   223  ILE223     -0.2715
     62  CB         1.9380  -39.1740   18.1360 C.3   223  ILE223      0.0290
     63  CG1        2.2980  -39.6980   19.5280 C.3   223  ILE223      0.0022
     64  CG2        3.1750  -39.0410   17.2660 C.3   223  ILE223      0.0023
     65  CD1        3.1390  -40.9470   19.4880 C.3   223  ILE223      0.0001
     66  N          1.9800  -36.1700   16.6460 N.am  224  GLY224     -0.1940
     67  CA         2.1500  -35.5730   15.3400 C.3   224  GLY224      0.2014
     68  C          3.5310  -35.8520   14.7850 C.2   224  GLY224      0.2639
     69  O          4.5380  -35.5870   15.4430 O.2   224  GLY224     -0.2714
     70  N          3.5780  -36.3900   13.5710 N.am  225  GLY225     -0.1939
     71  CA         4.8360  -36.6770   12.9120 C.3   225  GLY225      0.2014
     72  C          4.7800  -36.3850   11.4270 C.2   225  GLY225      0.2639
     73  O          3.7010  -36.2700   10.8440 O.2   225  GLY225     -0.2714
     74  N          5.9520  -36.2560   10.8150 N.am  226  ARG226     -0.1963
     75  CA         6.0510  -36.0400    9.3790 C.3   226  ARG226      0.1729
     76  C          6.6810  -37.2530    8.7060 C.2   226  ARG226      0.2616
     77  O          7.7150  -37.7510    9.1500 O.2   226  ARG226     -0.2715
     78  CB         6.8690  -34.7830    9.0780 C.3   226  ARG226      0.0348
     79  CG         6.9880  -34.4310    7.5900 C.3   226  ARG226      0.0492
     80  CD         7.6640  -33.0690    7.3780 C.3   226  ARG226      0.2205
     81  NE         9.0270  -33.0110    7.9130 N.pl3 226  ARG226     -0.0865
     82  CZ        10.0770  -33.6380    7.3780 C.cat 226  ARG226      0.5346
     83  NH1        9.9410  -34.3810    6.2790 N.pl3 226  ARG226      0.1354
     84  NH2       11.2700  -33.5310    7.9480 N.pl3 226  ARG226      0.1354
     85  N          6.0450  -37.7200    7.6360 N.am  227  GLU227     -0.1977
     86  CA         6.5100  -38.8800    6.8790 C.3   227  GLU227      0.1602
     87  C          8.0270  -39.0440    6.9230 C.2   227  GLU227      0.2287
     88  O          8.5940  -39.8660    6.2020 O.2   227  GLU227     -0.2864
     89  CB         6.0480  -38.7740    5.4260 C.3   227  GLU227      0.0415
     90  CG         4.5980  -38.3500    5.2690 C.3   227  GLU227      0.1163
     91  CD         4.2530  -37.9840    3.8410 C.2   227  GLU227      0.3649
     92  OE1        4.9600  -38.4450    2.9210 O.co2 227  GLU227     -0.2457
     93  OE2        3.2740  -37.2360    3.6380 O.co2 227  GLU227     -0.2457
     94  N          6.1380  -43.9080    8.1150 N.3   230  ILE230     -0.1245
     95  CA         5.9180  -42.6030    8.7310 C.3   230  ILE230      0.1561
     96  C          6.5780  -42.5100   10.1100 C.2   230  ILE230      0.2260
     97  O          6.1880  -43.2160   11.0410 O.2   230  ILE230     -0.2867
     98  CB         4.4160  -42.3260    8.8890 C.3   230  ILE230      0.0252
     99  CG1        3.7160  -42.4340    7.5320 C.3   230  ILE230      0.0019
    100  CG2        4.1860  -40.9630    9.5250 C.3   230  ILE230      0.0019
    101  CD1        2.2120  -42.5290    7.6280 C.3   230  ILE230      0.0001
    102  N          7.6140  -37.3130   14.9610 N.3   233  ASN233     -0.1225
    103  CA         8.4140  -36.1230   15.2460 C.3   233  ASN233      0.1785
    104  C          8.1570  -35.5330   16.6270 C.2   233  ASN233      0.2597
    105  O          8.9700  -34.7700   17.1470 O.2   233  ASN233     -0.2718
    106  CB         8.1880  -35.0560   14.1760 C.3   233  ASN233      0.1169
    107  CG         8.4640  -35.5680   12.7790 C.2   233  ASN233      0.2627
    108  OD1        8.9260  -36.6950   12.5960 O.2   233  ASN233     -0.2716
    109  ND2        8.1830  -34.7400   11.7830 N.am  233  ASN233     -0.0877
    110  N          7.0220  -35.8870   17.2160 N.am  234  GLU234     -0.1979
    111  CA         6.6540  -35.3560   18.5180 C.3   234  GLU234      0.1602
    112  C          5.5460  -36.1710   19.1580 C.2   234  GLU234      0.2287
    113  O          4.5490  -36.5070   18.5180 O.2   234  GLU234     -0.2864
    114  CB         6.2120  -33.8950   18.3970 C.3   234  GLU234      0.0415
    115  CG         5.7150  -33.2860   19.7020 C.3   234  GLU234      0.1163
    116  CD         5.1170  -31.9050   19.5150 C.2   234  GLU234      0.3649
    117  OE1        4.8520  -31.5180   18.3570 O.co2 234  GLU234     -0.2457
    118  OE2        4.9090  -31.2070   20.5290 O.co2 234  GLU234     -0.2457
    119  N          6.7440  -45.9240   11.5700 N.3   252  ILE252     -0.1245
    120  CA         5.4970  -46.6660   11.6970 C.3   252  ILE252      0.1561
    121  C          5.0900  -47.2590   10.3480 C.2   252  ILE252      0.2260
    122  O          4.7100  -46.5290    9.4320 O.2   252  ILE252     -0.2867
    123  CB         4.3710  -45.7630   12.2460 C.3   252  ILE252      0.0252
    124  CG1        4.8130  -45.1190   13.5650 C.3   252  ILE252      0.0019
    125  CG2        3.0720  -46.5490   12.4190 C.3   252  ILE252      0.0019
    126  CD1        3.8250  -44.1140   14.1320 C.3   252  ILE252      0.0001
    127  N          0.4300  -40.5870    5.4270 N.3   263  ALA263     -0.1231
    128  CA         0.0560  -40.0750    6.7420 C.3   263  ALA263      0.1694
    129  C         -1.3890  -39.5890    6.7740 C.2   263  ALA263      0.2591
    130  O         -2.1210  -39.8580    7.7270 O.2   263  ALA263     -0.2718
    131  CB         1.0060  -38.9630    7.1710 C.3   263  ALA263      0.0304
    132  N         -1.7940  -38.8740    5.7280 N.am  264  LEU264     -0.1980
    133  CA        -3.1550  -38.3580    5.6280 C.3   264  LEU264      0.1596
    134  C         -4.1810  -39.4860    5.6510 C.2   264  LEU264      0.2287
    135  O         -5.2190  -39.3800    6.3050 O.2   264  LEU264     -0.2864
    136  CB        -3.3210  -37.5130    4.3620 C.3   264  LEU264      0.0297
    137  CG        -2.3600  -36.3300    4.2150 C.3   264  LEU264      0.0022
    138  CD1       -2.8270  -35.3860    3.1190 C.3   264  LEU264      0.0001
    139  CD2       -2.2300  -35.5880    5.5300 C.3   264  LEU264      0.0001
    140  N         -3.6300  -42.3450    7.0120 N.3   266  THR266     -0.1203
    141  CA        -3.5140  -42.8890    8.3600 C.3   266  THR266      0.1994
    142  C         -4.3030  -42.0690    9.3790 C.2   266  THR266      0.2617
    143  O         -5.0220  -42.6280   10.2050 O.2   266  THR266     -0.2717
    144  CB        -2.0380  -42.9840    8.8070 C.3   266  THR266      0.1784
    145  OG1       -1.2900  -43.7380    7.8430 O.3   266  THR266     -0.2211
    146  CG2       -1.9320  -43.6610   10.1660 C.3   266  THR266      0.0376
    147  N         -4.1690  -40.7460    9.3170 N.am  267  MET267     -0.1979
    148  CA        -4.8600  -39.8620   10.2540 C.3   267  MET267      0.1605
    149  C         -6.3730  -39.9430   10.0800 C.2   267  MET267      0.2287
    150  O         -7.1220  -39.9090   11.0570 O.2   267  MET267     -0.2864
    151  CB        -4.3870  -38.4120   10.0960 C.3   267  MET267      0.0413
    152  CG        -4.9910  -37.6750    8.9070 C.3   267  MET267      0.0598
    153  SD        -4.5800  -35.9190    8.8620 S.3   267  MET267     -0.1393
    154  CE        -2.7910  -35.9880    8.8360 C.3   267  MET267      0.0692
    155  N         -7.4940  -42.8730   11.8290 N.3   270  VAL270     -0.1245
    156  CA        -7.4540  -42.6090   13.2650 C.3   270  VAL270      0.1561
    157  C         -8.6780  -41.8190   13.7150 C.2   270  VAL270      0.2260
    158  O         -9.2390  -42.0760   14.7800 O.2   270  VAL270     -0.2867
    159  CB        -6.1870  -41.8220   13.6630 C.3   270  VAL270      0.0252
    160  CG1       -6.1250  -41.6390   15.1740 C.3   270  VAL270      0.0019
    161  CG2       -4.9380  -42.5250   13.1550 C.3   270  VAL270      0.0019
    162  N        -10.4690  -36.5570   20.1480 N.3   292  TYR292     -0.1241
    163  CA        -9.6270  -35.4140   19.8180 C.3   292  TYR292      0.1605
    164  C         -9.8680  -34.2460   20.7710 C.2   292  TYR292      0.2264
    165  O        -11.0130  -33.8650   21.0100 O.2   292  TYR292     -0.2867
    166  CB        -9.8700  -34.9750   18.3710 C.3   292  TYR292      0.0534
    167  CG        -8.7000  -34.2560   17.7320 C.ar  292  TYR292     -0.0201
    168  CD1       -8.1140  -34.7420   16.5670 C.ar  292  TYR292     -0.0009
    169  CD2       -8.1780  -33.0950   18.2940 C.ar  292  TYR292     -0.0009
    170  CE1       -7.0440  -34.0880   15.9780 C.ar  292  TYR292      0.0417
    171  CE2       -7.1070  -32.4360   17.7130 C.ar  292  TYR292      0.0417
    172  CZ        -6.5440  -32.9370   16.5560 C.ar  292  TYR292      0.1957
    173  OH        -5.4800  -32.2830   15.9760 O.3   292  TYR292     -0.2866
@<TRIPOS>BOND
     1    92    91   ar
     2   138   137    1
     3    22    21    2
     4    93    91   ar
     5    21    20    1
     6    20    23    1
     7    20    19    1
     8    91    90    1
     9    23    24    1
    10     2     5    1
    11     2     1    1
    12     2     3    1
    13     4     3    2
    14   137   136    1
    15   137   139    1
    16     5     6    1
    17   136   133    1
    18     1     7    1
    19     3     8   am
    20    19    17   am
    21    25    24    1
    22    25    26    1
    23    90    89    1
    24     7     6    1
    25    28    27    1
    26    89    86    1
    27   127   128    1
    28   133   134    1
    29   133   132    1
    30   134   135    2
    31   132   129   am
    32     8     9    1
    33    17    18    2
    34    17    16    1
    35    88    87    2
    36    83    82    1
    37    26    27    2
    38    11    10    2
    39    27    29    1
    40   128   129    1
    41   128   131    1
    42    10     9    1
    43    10    15   am
    44   129   130    2
    45     9    12    1
    46    86    87    1
    47    86    85    1
    48   140   141    1
    49    15    16    1
    50    82    81    2
    51    82    84    1
    52    80    79    1
    53    80    81    1
    54    99   101    1
    55    99    98    1
    56    79    78    1
    57    85    76   am
    58   145   144    1
    59    94    95    1
    60    12    14    1
    61    12    13    1
    62   141   144    1
    63   141   142    1
    64    76    77    2
    65    76    75    1
    66    95    98    1
    67    95    96    1
    68   144   146    1
    69   154   153    1
    70   153   152    1
    71    98   100    1
    72   152   151    1
    73    78    75    1
    74   147   142   am
    75   147   148    1
    76    75    74    1
    77   142   143    2
    78   122   121    2
    79   149   148    1
    80   149   150    2
    81   151   148    1
    82    96    97    2
    83   121   120    1
    84    74    72   am
    85    73    72    2
    86    72    71    1
    87   119   120    1
    88   120   123    1
    89   109   107   am
    90   155   156    1
    91   123   125    1
    92   123   124    1
    93   108   107    2
    94   107   106    1
    95    71    70    1
    96   161   159    1
    97   156   159    1
    98   156   157    1
    99   124   126    1
   100    70    68   am
   101   159   160    1
   102   157   158    2
   103   106   103    1
   104    68    67    1
   105    68    69    2
   106   102   103    1
   107   103   104    1
   108    67    66    1
   109    61    60    2
   110   173   172    1
   111   170   172   ar
   112   170   168   ar
   113    53    51    1
   114    33    32    2
   115   172   171   ar
   116   168   167   ar
   117   104   105    2
   118   104   110   am
   119    66    60   am
   120    60    59    1
   121    30    31    1
   122    51    50    1
   123   110   111    1
   124    64    62    1
   125    32    31    1
   126    32    34   am
   127   171   169   ar
   128    50    52    1
   129    50    47    1
   130   167   169   ar
   131   167   166    1
   132    62    59    1
   133    62    63    1
   134    59    58    1
   135   117   116   ar
   136   166   163    1
   137   114   111    1
   138   114   115    1
   139    46    47    1
   140    46    36   am
   141   111   112    1
   142   113   112    2
   143    34    35    1
   144    35    36    1
   145    35    38    1
   146    58    56   am
   147    47    48    1
   148    36    37    2
   149    40    42   ar
   150    40    39   ar
   151    38    39    1
   152    65    63    1
   153   116   115    1
   154   116   118   ar
   155    54    48   am
   156    54    55    1
   157   163   162    1
   158   163   164    1
   159    56    55    1
   160    56    57    2
   161    48    49    2
   162    42    44   ar
   163    39    41   ar
   164   164   165    2
   165    44    45    1
   166    44    43   ar
   167    41    43   ar
