@<TRIPOS>MOLECULE
tmp/3gdtB00.pdb
 126 119 0 0 0
SMALL
GASTEIGER

@<TRIPOS>ATOM
      1  N         27.7910   42.8350   55.1400 N.3    33  SER33      -0.1217
      2  CA        27.9190   43.9130   56.1170 C.3    33  SER33       0.1889
      3  C         29.3090   43.7960   56.7330 C.2    33  SER33       0.2288
      4  O         29.5600   42.9210   57.5600 O.2    33  SER33      -0.2866
      5  CB        26.8410   43.7740   57.1950 C.3    33  SER33       0.2089
      6  OG        26.9870   44.7820   58.1810 O.3    33  SER33      -0.2183
      7  N         27.3350   46.7720   52.7100 N.3    57  LYS57      -0.1245
      8  CA        27.0220   47.7000   53.7920 C.3    57  LYS57       0.1561
      9  C         28.3230   48.0770   54.4870 C.2    57  LYS57       0.2260
     10  O         28.9430   47.2590   55.1730 O.2    57  LYS57      -0.2867
     11  CB        26.0590   47.0970   54.8190 C.3    57  LYS57       0.0271
     12  CG        25.6950   48.1170   55.9040 C.3    57  LYS57       0.0035
     13  CD        24.7330   47.5740   56.9610 C.3    57  LYS57       0.0206
     14  CE        24.3610   48.6840   57.9330 C.3    57  LYS57       0.1093
     15  NZ        23.5180   48.2030   59.0760 N.3    57  LYS57      -0.1314
     16  N         30.8070   50.5240   57.0560 N.3    59  HIS59      -0.1241
     17  CA        30.7660   51.0750   58.4080 C.3    59  HIS59       0.1621
     18  C         31.9730   52.0030   58.5080 C.2    59  HIS59       0.2264
     19  O         32.9500   51.6920   59.1870 O.2    59  HIS59      -0.2867
     20  CB        30.8650   49.9650   59.4640 C.3    59  HIS59       0.0745
     21  CG        29.6740   49.0580   59.4970 C.ar   59  HIS59       0.0817
     22  ND1       29.4810   48.0460   58.5820 N.ar   59  HIS59      -0.2268
     23  CD2       28.5940   49.0390   60.3140 C.ar   59  HIS59       0.1154
     24  CE1       28.3320   47.4420   58.8340 C.ar   59  HIS59       0.1986
     25  NE2       27.7740   48.0260   59.8790 N.ar   59  HIS59      -0.2212
     26  N         26.2790   52.4390   56.7780 N.3    89  ASN89      -0.1240
     27  CA        25.6350   52.1830   58.0550 C.3    89  ASN89       0.1653
     28  C         25.0180   53.3600   58.8060 C.2    89  ASN89       0.2266
     29  O         23.9100   53.2350   59.3410 O.2    89  ASN89      -0.2867
     30  CB        26.6260   51.5080   58.9930 C.3    89  ASN89       0.1155
     31  CG        26.0750   51.3600   60.3920 C.2    89  ASN89       0.2627
     32  OD1       25.1600   50.5740   60.6220 O.2    89  ASN89      -0.2716
     33  ND2       26.6180   52.1300   61.3320 N.am   89  ASN89      -0.0877
     34  N         23.3070   55.5570   60.9760 N.3    91  LYS91      -0.1245
     35  CA        21.8790   55.6070   61.2730 C.3    91  LYS91       0.1561
     36  C         21.4550   57.0350   61.6060 C.2    91  LYS91       0.2260
     37  O         21.4420   57.4480   62.7690 O.2    91  LYS91      -0.2867
     38  CB        21.5640   54.6580   62.4330 C.3    91  LYS91       0.0271
     39  CG        21.9740   53.2090   62.1470 C.3    91  LYS91       0.0035
     40  CD        21.5600   52.2580   63.2700 C.3    91  LYS91       0.0206
     41  CE        21.8810   50.8010   62.9300 C.3    91  LYS91       0.1093
     42  NZ        23.3480   50.5610   62.7550 N.3    91  LYS91      -0.1314
     43  N         17.5050   44.8950   65.6390 N.3   152  SER152     -0.1202
     44  CA        17.7150   43.5830   66.2320 C.3   152  SER152      0.2020
     45  C         18.4810   43.6320   67.5500 C.2   152  SER152      0.2619
     46  O         18.6130   42.6150   68.2300 O.2   152  SER152     -0.2717
     47  CB        18.4440   42.6710   65.2380 C.3   152  SER152      0.2103
     48  OG        19.5980   43.3050   64.7120 O.3   152  SER152     -0.2182
     49  N         18.9680   44.8140   67.9180 N.am  153  CYS153     -0.1969
     50  CA        19.7260   44.9660   69.1580 C.3   153  CYS153      0.1712
     51  C         18.8780   44.7180   70.4000 C.2   153  CYS153      0.2296
     52  O         17.6750   44.9760   70.4160 O.2   153  CYS153     -0.2864
     53  CB        20.3480   46.3570   69.2210 C.3   153  CYS153      0.0983
     54  SG        19.1800   47.6440   68.8300 S.3   153  CYS153     -0.0798
     55  N         19.1380   41.8880   58.7830 N.3   200  PRO200     -0.2102
     56  CA        20.4550   41.5380   59.3200 C.3   200  PRO200      0.1504
     57  C         20.3190   40.4480   60.3830 C.2   200  PRO200      0.2576
     58  O         19.2200   40.1990   60.8910 O.2   200  PRO200     -0.2718
     59  CB        20.9330   42.8530   59.9190 C.3   200  PRO200      0.0282
     60  CG        19.6640   43.3960   60.5080 C.3   200  PRO200      0.0208
     61  CD        18.6400   43.1310   59.4030 C.3   200  PRO200      0.0893
     62  N         21.4350   39.8050   60.7120 N.am  201  GLY201     -0.1943
     63  CA        21.4270   38.7560   61.7190 C.3   201  GLY201      0.2014
     64  C         20.8930   37.4460   61.1820 C.2   201  GLY201      0.2638
     65  O         19.8600   36.9480   61.6320 O.2   201  GLY201     -0.2714
     66  N         21.6150   36.8770   60.2270 N.am  202  VAL202     -0.1977
     67  CA        21.2090   35.6340   59.5960 C.3   202  VAL202      0.1596
     68  C         22.3450   34.6200   59.6210 C.2   202  VAL202      0.2287
     69  O         23.5130   34.9830   59.4680 O.2   202  VAL202     -0.2864
     70  CB        20.7830   35.9000   58.1330 C.3   202  VAL202      0.0276
     71  CG1       20.3650   34.6170   57.4640 C.3   202  VAL202      0.0022
     72  CG2       19.6420   36.9050   58.1050 C.3   202  VAL202      0.0022
     73  N         27.5960   30.0530   68.0720 N.3   211  LEU211     -0.1245
     74  CA        27.5370   31.4850   67.8010 C.3   211  LEU211      0.1561
     75  C         26.5760   31.7890   66.6550 C.2   211  LEU211      0.2260
     76  O         25.6800   32.6250   66.7820 O.2   211  LEU211     -0.2867
     77  CB        28.9340   32.0090   67.4620 C.3   211  LEU211      0.0270
     78  CG        29.0530   33.5000   67.1440 C.3   211  LEU211      0.0019
     79  CD1       28.6500   34.3220   68.3550 C.3   211  LEU211      0.0001
     80  CD2       30.4870   33.8170   66.7460 C.3   211  LEU211      0.0001
     81  N         21.4120   33.0890   65.5250 N.3   215  TYR215     -0.1241
     82  CA        20.6860   33.8420   64.5130 C.3   215  TYR215      0.1605
     83  C         19.6660   33.0080   63.7620 C.2   215  TYR215      0.2264
     84  O         19.8080   31.7930   63.6410 O.2   215  TYR215     -0.2867
     85  CB        21.6700   34.4250   63.5020 C.3   215  TYR215      0.0534
     86  CG        22.6640   35.3800   64.1050 C.ar  215  TYR215     -0.0201
     87  CD1       22.3330   36.7170   64.3110 C.ar  215  TYR215     -0.0009
     88  CD2       23.9280   34.9430   64.5020 C.ar  215  TYR215     -0.0009
     89  CE1       23.2290   37.5960   64.8910 C.ar  215  TYR215      0.0417
     90  CE2       24.8360   35.8180   65.0900 C.ar  215  TYR215      0.0417
     91  CZ        24.4760   37.1450   65.2790 C.ar  215  TYR215      0.1957
     92  OH        25.3570   38.0210   65.8650 O.3   215  TYR215     -0.2866
     93  N         21.2510   40.3940   55.1560 N.3   230  ILE230     -0.1231
     94  CA        22.4460   41.1610   55.4860 C.3   230  ILE230      0.1692
     95  C         23.2780   40.3020   56.4290 C.2   230  ILE230      0.2592
     96  O         22.9100   40.0860   57.5910 O.2   230  ILE230     -0.2718
     97  CB        22.0900   42.4950   56.1760 C.3   230  ILE230      0.0266
     98  CG1       21.1390   43.3030   55.2870 C.3   230  ILE230      0.0019
     99  CG2       23.3620   43.2890   56.4560 C.3   230  ILE230      0.0020
    100  CD1       20.6740   44.6100   55.9170 C.3   230  ILE230      0.0001
    101  N         24.4020   39.8100   55.9130 N.am  231  VAL231     -0.1966
    102  CA        25.2810   38.9250   56.6680 C.3   231  VAL231      0.1727
    103  C         26.5620   39.6460   57.0630 C.2   231  VAL231      0.2617
    104  O         27.1630   40.3440   56.2460 O.2   231  VAL231     -0.2715
    105  CB        25.6160   37.6720   55.8240 C.3   231  VAL231      0.0290
    106  CG1       26.3760   36.6610   56.6560 C.3   231  VAL231      0.0023
    107  CG2       24.3240   37.0600   55.2830 C.3   231  VAL231      0.0023
    108  N         26.9700   39.4540   58.3160 N.am  232  GLY232     -0.1940
    109  CA        28.1620   40.1120   58.8270 C.3   232  GLY232      0.2014
    110  C         29.4080   39.2550   58.9530 C.2   232  GLY232      0.2639
    111  O         29.8980   38.7050   57.9650 O.2   232  GLY232     -0.2714
    112  N         29.9160   39.1440   60.1800 N.am  233  ARG233     -0.1963
    113  CA        31.1290   38.3790   60.4760 C.3   233  ARG233      0.1729
    114  C         31.1250   36.9360   59.9850 C.2   233  ARG233      0.2616
    115  O         32.1870   36.3380   59.8070 O.2   233  ARG233     -0.2715
    116  CB        31.3930   38.3890   61.9860 C.3   233  ARG233      0.0348
    117  CG        31.7700   39.7440   62.5500 C.3   233  ARG233      0.0492
    118  CD        33.2090   40.0940   62.2260 C.3   233  ARG233      0.2205
    119  NE        33.5960   41.3810   62.7960 N.pl3 233  ARG233     -0.0865
    120  CZ        34.8240   41.8840   62.7340 C.cat 233  ARG233      0.5346
    121  NH1       35.7900   41.2060   62.1290 N.pl3 233  ARG233      0.1354
    122  NH2       35.0870   43.0670   63.2740 N.pl3 233  ARG233      0.1354
    123  N         29.9420   36.3700   59.7800 N.am  234  GLY234     -0.1955
    124  CA        29.8640   35.0000   59.3080 C.3   234  GLY234      0.1869
    125  C         30.4900   34.8160   57.9380 C.2   234  GLY234      0.2309
    126  O         30.6970   33.6890   57.4850 O.2   234  GLY234     -0.2863
@<TRIPOS>BOND
     1     7     8    1
     2     8     9    1
     3     8    11    1
     4     9    10    2
     5    11    12    1
     6     1     2    1
     7    93    94    1
     8   107   105    1
     9    98   100    1
    10    98    97    1
    11    94    97    1
    12    94    95    1
    13   105   106    1
    14   105   102    1
    15    12    13    1
    16   101    95   am
    17   101   102    1
    18     2     3    1
    19     2     5    1
    20    97    99    1
    21   104   103    2
    22    95    96    2
    23   102   103    1
    24     3     4    2
    25    26    27    1
    26    13    14    1
    27    16    17    1
    28   103   108   am
    29     5     6    1
    30    71    70    1
    31   126   125    2
    32    14    15    1
    33   125   124    1
    34   111   110    2
    35    27    28    1
    36    27    30    1
    37    72    70    1
    38    70    67    1
    39   108   109    1
    40    17    18    1
    41    17    20    1
    42    18    19    2
    43    22    24   ar
    44    22    21   ar
    45    55    56    1
    46    55    61    1
    47    28    29    2
    48   109   110    1
    49    24    25   ar
    50   110   112   am
    51    30    31    1
    52   124   123    1
    53    56    59    1
    54    56    57    1
    55    61    60    1
    56    20    21    1
    57    69    68    2
    58    21    23   ar
    59    67    68    1
    60    67    66    1
    61   123   114   am
    62   115   114    2
    63    25    23   ar
    64    59    60    1
    65   114   113    1
    66   112   113    1
    67    66    64   am
    68    57    62   am
    69    57    58    2
    70    31    32    2
    71    31    33   am
    72   113   116    1
    73    62    63    1
    74    34    35    1
    75    64    65    2
    76    64    63    1
    77    35    36    1
    78    35    38    1
    79    36    37    2
    80   116   117    1
    81   121   120    1
    82    39    38    1
    83    39    40    1
    84   118   117    1
    85   118   119    1
    86   120   119    2
    87   120   122    1
    88    42    41    1
    89    41    40    1
    90    85    86    1
    91    85    82    1
    92    84    83    2
    93    83    82    1
    94    86    87   ar
    95    86    88   ar
    96    87    89   ar
    97    88    90   ar
    98    82    81    1
    99    48    47    1
   100    89    91   ar
   101    90    91   ar
   102    47    44    1
   103    91    92    1
   104    43    44    1
   105    44    45    1
   106    75    76    2
   107    75    74    1
   108    80    78    1
   109    78    77    1
   110    78    79    1
   111    77    74    1
   112    45    49   am
   113    45    46    2
   114    74    73    1
   115    49    50    1
   116    54    53    1
   117    50    53    1
   118    50    51    1
   119    51    52    2
