@<TRIPOS>MOLECULE
tmp/3gduC00.pdb
 192 184 0 0 0
SMALL
GASTEIGER

@<TRIPOS>ATOM
      1  N         -3.7460   67.5210    0.9150 N.3   134  ILE134     -0.1245
      2  CA        -5.1980   67.3880    0.8780 C.3   134  ILE134      0.1561
      3  C         -5.6540   66.9980   -0.5260 C.2   134  ILE134      0.2260
      4  O         -5.2470   67.6110   -1.5120 O.2   134  ILE134     -0.2867
      5  CB        -5.9200   68.6680    1.3810 C.3   134  ILE134      0.0252
      6  CG1       -5.7860   69.8250    0.3820 C.3   134  ILE134      0.0019
      7  CG2       -5.3840   69.0720    2.7510 C.3   134  ILE134      0.0019
      8  CD1       -6.8900   69.8930   -0.6740 C.3   134  ILE134      0.0001
      9  N        -10.8650   68.0540   -0.9230 N.3   136  PRO136     -0.2102
     10  CA       -11.6550   69.2840   -0.8040 C.3   136  PRO136      0.1504
     11  C        -12.1670   69.5010    0.6180 C.2   136  PRO136      0.2576
     12  O        -12.1590   70.6310    1.1060 O.2   136  PRO136     -0.2718
     13  CB       -12.8280   69.0380   -1.7570 C.3   136  PRO136      0.0282
     14  CG       -12.2980   68.0720   -2.7580 C.3   136  PRO136      0.0208
     15  CD       -11.3570   67.1820   -2.0030 C.3   136  PRO136      0.0893
     16  N        -12.6150   68.4290    1.2660 N.am  137  THR137     -0.1939
     17  CA       -13.0170   68.4970    2.6650 C.3   137  THR137      0.2028
     18  C        -11.8410   68.9910    3.4980 C.2   137  THR137      0.2643
     19  O        -12.0080   69.7800    4.4280 O.2   137  THR137     -0.2714
     20  CB       -13.4680   67.1220    3.1940 C.3   137  THR137      0.1808
     21  OG1      -12.3680   66.2040    3.1490 O.3   137  THR137     -0.2208
     22  CG2      -14.6140   66.5740    2.3570 C.3   137  THR137      0.0379
     23  N        -10.6480   68.5190    3.1470 N.am  138  GLY138     -0.1939
     24  CA        -9.4300   68.9230    3.8220 C.3   138  GLY138      0.2014
     25  C         -9.2060   68.2040    5.1370 C.2   138  GLY138      0.2638
     26  O         -8.2380   68.4780    5.8460 O.2   138  GLY138     -0.2714
     27  N        -10.0990   67.2780    5.4670 N.am  139  ARG139     -0.1977
     28  CA       -10.0030   66.5640    6.7330 C.3   139  ARG139      0.1597
     29  C         -8.9580   65.4560    6.6950 C.2   139  ARG139      0.2287
     30  O         -8.4100   65.0740    7.7290 O.2   139  ARG139     -0.2864
     31  CB       -11.3610   65.9910    7.1420 C.3   139  ARG139      0.0334
     32  CG       -12.3320   67.0360    7.6450 C.3   139  ARG139      0.0492
     33  CD       -13.2000   66.4890    8.7590 C.3   139  ARG139      0.2205
     34  NE       -13.5290   67.5330    9.7220 N.pl3 139  ARG139     -0.0865
     35  CZ       -14.4090   68.5020    9.4950 C.cat 139  ARG139      0.5346
     36  NH1      -15.0500   68.5570    8.3360 N.pl3 139  ARG139      0.1354
     37  NH2      -14.6450   69.4160   10.4260 N.pl3 139  ARG139      0.1354
     38  N        -18.3380   68.6110   16.2310 N.3   207  GLY207     -0.1210
     39  CA       -19.0520   69.8660   16.3430 C.3   207  GLY207      0.1956
     40  C        -19.2310   70.4380   14.9530 C.2   207  GLY207      0.2612
     41  O        -18.4400   70.1520   14.0550 O.2   207  GLY207     -0.2717
     42  N        -20.2660   71.2470   14.7680 N.am  208  TYR208     -0.1962
     43  CA       -20.5810   71.7740   13.4470 C.3   208  TYR208      0.1771
     44  C        -21.1790   73.1740   13.5350 C.2   208  TYR208      0.2619
     45  O        -22.2440   73.3660   14.1180 O.2   208  TYR208     -0.2715
     46  CB       -21.5350   70.8220   12.7230 C.3   208  TYR208      0.0574
     47  CG       -22.0540   71.3250   11.3950 C.ar  208  TYR208     -0.0198
     48  CD1      -21.2880   71.2200   10.2420 C.ar  208  TYR208     -0.0009
     49  CD2      -23.3200   71.8860   11.2920 C.ar  208  TYR208     -0.0009
     50  CE1      -21.7640   71.6720    9.0260 C.ar  208  TYR208      0.0417
     51  CE2      -23.8050   72.3380   10.0820 C.ar  208  TYR208      0.0417
     52  CZ       -23.0230   72.2270    8.9510 C.ar  208  TYR208      0.1957
     53  OH       -23.5010   72.6810    7.7440 O.3   208  TYR208     -0.2866
     54  N        -20.4840   74.1480   12.9570 N.am  209  ILE209     -0.1963
     55  CA       -20.9560   75.5270   12.9620 C.3   209  ILE209      0.1727
     56  C        -21.6850   75.8660   11.6670 C.2   209  ILE209      0.2617
     57  O        -22.2140   76.9660   11.5150 O.2   209  ILE209     -0.2715
     58  CB       -19.8020   76.5270   13.1490 C.3   209  ILE209      0.0290
     59  CG1      -18.8470   76.4730   11.9580 C.3   209  ILE209      0.0022
     60  CG2      -19.0490   76.2490   14.4370 C.3   209  ILE209      0.0023
     61  CD1      -17.7670   77.5160   12.0260 C.3   209  ILE209      0.0001
     62  N        -21.7040   74.9190   10.7360 N.am  210  GLY210     -0.1940
     63  CA       -22.3780   75.1180    9.4670 C.3   210  GLY210      0.2014
     64  C        -21.8770   76.3320    8.7180 C.2   210  GLY210      0.2639
     65  O        -22.6640   77.1390    8.2240 O.2   210  GLY210     -0.2714
     66  N        -20.5590   76.4660    8.6410 N.am  211  ILE211     -0.1963
     67  CA       -19.9470   77.5830    7.9380 C.3   211  ILE211      0.1727
     68  C        -18.8960   77.0900    6.9590 C.2   211  ILE211      0.2617
     69  O        -18.1960   76.1100    7.2180 O.2   211  ILE211     -0.2715
     70  CB       -19.2710   78.5710    8.9070 C.3   211  ILE211      0.0290
     71  CG1      -20.2030   78.9170   10.0640 C.3   211  ILE211      0.0022
     72  CG2      -18.8570   79.8340    8.1770 C.3   211  ILE211      0.0023
     73  CD1      -19.6730   80.0230   10.9560 C.3   211  ILE211      0.0001
     74  N        -18.7960   77.7780    5.8290 N.am  212  GLY212     -0.1940
     75  CA       -17.7660   77.5000    4.8520 C.3   212  GLY212      0.2014
     76  C        -16.9350   78.7470    4.6480 C.2   212  GLY212      0.2639
     77  O        -17.4650   79.7950    4.2940 O.2   212  GLY212     -0.2714
     78  N        -15.6340   78.6400    4.8880 N.am  213  GLY213     -0.1939
     79  CA       -14.7490   79.7750    4.7300 C.3   213  GLY213      0.2014
     80  C        -13.2910   79.3800    4.6190 C.2   213  GLY213      0.2638
     81  O        -12.8870   78.3280    5.1110 O.2   213  GLY213     -0.2714
     82  N        -12.4980   80.2270    3.9720 N.am  214  ARG214     -0.1977
     83  CA       -11.0820   79.9450    3.7850 C.3   214  ARG214      0.1597
     84  C        -10.2140   81.0780    4.3240 C.2   214  ARG214      0.2287
     85  O        -10.4760   82.2530    4.0670 O.2   214  ARG214     -0.2864
     86  CB       -10.7770   79.6980    2.3070 C.3   214  ARG214      0.0334
     87  CG        -9.5180   78.8810    2.0590 C.3   214  ARG214      0.0492
     88  CD        -9.4190   78.4430    0.6050 C.3   214  ARG214      0.2205
     89  NE       -10.6300   77.7610    0.1530 N.pl3 214  ARG214     -0.0865
     90  CZ       -11.5980   78.3440   -0.5480 C.cat 214  ARG214      0.5346
     91  NH1      -11.4990   79.6240   -0.8830 N.pl3 214  ARG214      0.1354
     92  NH2      -12.6660   77.6480   -0.9150 N.pl3 214  ARG214      0.1354
     93  N        -10.3670   83.8290    9.7150 N.3   220  ILE220     -0.1245
     94  CA       -10.9410   82.9920    8.6710 C.3   220  ILE220      0.1561
     95  C        -12.1170   83.7080    8.0260 C.2   220  ILE220      0.2260
     96  O        -13.0340   84.1480    8.7180 O.2   220  ILE220     -0.2867
     97  CB       -11.4540   81.6630    9.2420 C.3   220  ILE220      0.0252
     98  CG1      -10.3580   80.9680   10.0480 C.3   220  ILE220      0.0019
     99  CG2      -11.9730   80.7690    8.1230 C.3   220  ILE220      0.0019
    100  CD1      -10.8570   79.7910   10.8480 C.3   220  ILE220      0.0001
    101  N        -17.3460   82.0940    3.5710 N.3   223  ASN223     -0.1225
    102  CA       -17.7760   82.1240    2.1790 C.3   223  ASN223      0.1785
    103  C        -19.2230   81.6880    2.0500 C.2   223  ASN223      0.2597
    104  O        -20.0120   82.3090    1.3390 O.2   223  ASN223     -0.2718
    105  CB       -16.8880   81.2280    1.3160 C.3   223  ASN223      0.1169
    106  CG       -15.5160   81.8200    1.0830 C.2   223  ASN223      0.2627
    107  OD1      -15.2750   82.9940    1.3670 O.2   223  ASN223     -0.2716
    108  ND2      -14.6060   81.0090    0.5580 N.am  223  ASN223     -0.0877
    109  N        -19.5580   80.6090    2.7480 N.am  224  GLU224     -0.1965
    110  CA       -20.9080   80.0700    2.7410 C.3   224  GLU224      0.1733
    111  C        -21.4050   79.8810    4.1670 C.2   224  GLU224      0.2616
    112  O        -20.6210   79.6260    5.0810 O.2   224  GLU224     -0.2715
    113  CB       -20.9400   78.7330    2.0010 C.3   224  GLU224      0.0429
    114  CG       -20.6310   78.8270    0.5130 C.3   224  GLU224      0.1163
    115  CD       -21.7830   79.3960   -0.2930 C.2   224  GLU224      0.3649
    116  OE1      -22.9160   79.4310    0.2330 O.co2 224  GLU224     -0.2457
    117  OE2      -21.5570   79.8010   -1.4560 O.co2 224  GLU224     -0.2457
    118  N        -22.7130   80.0130    4.3510 N.am  225  VAL225     -0.1963
    119  CA       -23.3300   79.7720    5.6470 C.3   225  VAL225      0.1727
    120  C        -24.4650   78.7660    5.4980 C.2   225  VAL225      0.2616
    121  O        -25.5060   79.0730    4.9150 O.2   225  VAL225     -0.2715
    122  CB       -23.8740   81.0710    6.2690 C.3   225  VAL225      0.0290
    123  CG1      -24.3660   80.8120    7.6830 C.3   225  VAL225      0.0023
    124  CG2      -22.8030   82.1490    6.2680 C.3   225  VAL225      0.0023
    125  N        -24.2530   77.5620    6.0170 N.am  226  SER226     -0.1950
    126  CA       -25.2530   76.5040    5.9370 C.3   226  SER226      0.1924
    127  C        -26.5980   76.9690    6.4890 C.2   226  SER226      0.2314
    128  O        -26.6870   77.3950    7.6410 O.2   226  SER226     -0.2863
    129  CB       -24.7740   75.2600    6.6860 C.3   226  SER226      0.2116
    130  OG       -25.7560   74.2380    6.6560 O.3   226  SER226     -0.2180
    131  N        -14.1090   85.8940   10.5390 N.3   242  ILE242     -0.1245
    132  CA       -14.0440   85.3150   11.8800 C.3   242  ILE242      0.1561
    133  C        -12.6730   85.4840   12.5280 C.2   242  ILE242      0.2260
    134  O        -11.7170   84.7890   12.1770 O.2   242  ILE242     -0.2867
    135  CB       -14.4060   83.8200   11.8720 C.3   242  ILE242      0.0252
    136  CG1      -15.7870   83.6100   11.2530 C.3   242  ILE242      0.0019
    137  CG2      -14.3660   83.2590   13.2830 C.3   242  ILE242      0.0019
    138  CD1      -16.2340   82.1660   11.2270 C.3   242  ILE242      0.0001
    139  N        -12.8150   81.9970   17.5480 N.3   245  VAL245     -0.1245
    140  CA       -13.8270   80.9690   17.7530 C.3   245  VAL245      0.1561
    141  C        -13.6450   80.3120   19.1150 C.2   245  VAL245      0.2260
    142  O        -12.5740   79.7870   19.4210 O.2   245  VAL245     -0.2867
    143  CB       -13.7540   79.8720   16.6740 C.3   245  VAL245      0.0252
    144  CG1      -14.7190   78.7410   17.0010 C.3   245  VAL245      0.0019
    145  CG2      -14.0490   80.4520   15.3010 C.3   245  VAL245      0.0019
    146  N         -7.8670   78.2420    9.0720 N.3   253  ALA253     -0.1231
    147  CA        -9.1530   77.6520    8.7220 C.3   253  ALA253      0.1694
    148  C         -9.1850   76.1540    8.9950 C.2   253  ALA253      0.2591
    149  O        -10.2520   75.5780    9.2110 O.2   253  ALA253     -0.2718
    150  CB        -9.4770   77.9320    7.2610 C.3   253  ALA253      0.0304
    151  N         -8.0140   75.5270    8.9870 N.am  254  LEU254     -0.1980
    152  CA        -7.9200   74.0860    9.1860 C.3   254  LEU254      0.1596
    153  C         -7.7380   73.7150   10.6590 C.2   254  LEU254      0.2287
    154  O         -8.3180   72.7380   11.1310 O.2   254  LEU254     -0.2864
    155  CB        -6.7930   73.4980    8.3310 C.3   254  LEU254      0.0297
    156  CG        -6.7730   71.9760    8.1640 C.3   254  LEU254      0.0022
    157  CD1       -6.1440   71.5820    6.8350 C.3   254  LEU254      0.0001
    158  CD2       -6.0530   71.3070    9.3270 C.3   254  LEU254      0.0001
    159  N         -8.8370   75.4570   12.9930 N.3   256  THR256     -0.1203
    160  CA       -10.1010   75.8410   13.6060 C.3   256  THR256      0.1994
    161  C        -11.1490   74.7540   13.4180 C.2   256  THR256      0.2617
    162  O        -11.8540   74.3940   14.3590 O.2   256  THR256     -0.2717
    163  CB       -10.6440   77.1560   13.0210 C.3   256  THR256      0.1784
    164  OG1       -9.7720   78.2340   13.3760 O.3   256  THR256     -0.2211
    165  CG2      -12.0360   77.4410   13.5630 C.3   256  THR256      0.0376
    166  N        -11.2500   74.2340   12.1980 N.am  257  MET257     -0.1979
    167  CA       -12.2360   73.2060   11.8990 C.3   257  MET257      0.1605
    168  C        -11.9710   71.9530   12.7230 C.2   257  MET257      0.2287
    169  O        -12.8760   71.1570   12.9710 O.2   257  MET257     -0.2864
    170  CB       -12.2470   72.8700   10.4070 C.3   257  MET257      0.0413
    171  CG       -11.1770   71.8850    9.9790 C.3   257  MET257      0.0598
    172  SD       -11.5460   71.1300    8.3840 S.3   257  MET257     -0.1393
    173  CE       -10.1160   70.0690    8.1760 C.3   257  MET257      0.0692
    174  N        -13.3700   72.9240   16.1420 N.3   260  VAL260     -0.1245
    175  CA       -14.8240   72.8500   16.0930 C.3   260  VAL260      0.1561
    176  C        -15.2890   71.4030   16.2180 C.2   260  VAL260      0.2260
    177  O        -16.2390   71.1060   16.9410 O.2   260  VAL260     -0.2867
    178  CB       -15.3770   73.4540   14.7870 C.3   260  VAL260      0.0252
    179  CG1      -16.8470   73.1080   14.6170 C.3   260  VAL260      0.0019
    180  CG2      -15.1730   74.9610   14.7690 C.3   260  VAL260      0.0019
    181  N        -22.2590   67.2580   13.2600 N.3   289  TYR289     -0.1241
    182  CA       -22.0200   67.2040   11.8240 C.3   289  TYR289      0.1605
    183  C        -23.0540   66.3280   11.1190 C.2   289  TYR289      0.2264
    184  O        -23.2900   65.1890   11.5240 O.2   289  TYR289     -0.2867
    185  CB       -20.6000   66.7100   11.5240 C.3   289  TYR289      0.0534
    186  CG       -20.1780   66.9430   10.0910 C.ar  289  TYR289     -0.0201
    187  CD1      -19.4690   68.0820    9.7290 C.ar  289  TYR289     -0.0009
    188  CD2      -20.5000   66.0310    9.0960 C.ar  289  TYR289     -0.0009
    189  CE1      -19.0880   68.3010    8.4170 C.ar  289  TYR289      0.0417
    190  CE2      -20.1260   66.2410    7.7830 C.ar  289  TYR289      0.0417
    191  CZ       -19.4200   67.3770    7.4480 C.ar  289  TYR289      0.1957
    192  OH       -19.0450   67.5880    6.1410 O.3   289  TYR289     -0.2866
@<TRIPOS>BOND
     1    14    15    1
     2    14    13    1
     3    15     9    1
     4    13    10    1
     5     4     3    2
     6   117   115   ar
     7     9    10    1
     8    92    90    1
     9    91    90    1
    10    10    11    1
    11     8     6    1
    12    90    89    2
    13     3     2    1
    14   115   116   ar
    15   115   114    1
    16    89    88    1
    17     6     5    1
    18   114   113    1
    19   108   106   am
    20    88    87    1
    21    11    12    2
    22    11    16   am
    23     2     1    1
    24     2     5    1
    25   106   105    1
    26   106   107    2
    27    16    17    1
    28   105   102    1
    29   104   103    2
    30     5     7    1
    31   113   110    1
    32   103   102    1
    33   103   109   am
    34    87    86    1
    35   102   101    1
    36    86    83    1
    37    22    20    1
    38    17    20    1
    39    17    18    1
    40   110   109    1
    41   110   111    1
    42    23    18   am
    43    23    24    1
    44    21    20    1
    45    18    19    2
    46    83    82    1
    47    83    84    1
    48    24    25    1
    49    82    80   am
    50    85    84    2
    51   111   118   am
    52   111   112    2
    53    77    76    2
    54   118   119    1
    55    80    79    1
    56    80    81    2
    57    76    75    1
    58    76    78   am
    59    79    78    1
    60    75    74    1
    61   121   120    2
    62    25    27   am
    63    25    26    2
    64    27    28    1
    65   120   119    1
    66   120   125   am
    67   119   122    1
    68    74    68   am
    69   126   125    1
    70   126   127    1
    71   126   129    1
    72   192   191    1
    73   124   122    1
    74   122   123    1
    75   127   128    2
    76   130   129    1
    77    29    28    1
    78    29    30    2
    79    28    31    1
    80   157   156    1
    81    68    69    2
    82    68    67    1
    83    31    32    1
    84   150   147    1
    85   191   190   ar
    86   191   189   ar
    87    32    33    1
    88    53    52    1
    89   190   188   ar
    90    67    66    1
    91    67    70    1
    92    95    94    1
    93    95    96    2
    94    99    97    1
    95   156   155    1
    96   156   158    1
    97   173   172    1
    98    72    70    1
    99    65    64    2
   100   155   152    1
   101    36    35    1
   102   172   171    1
   103   189   187   ar
   104    66    64   am
   105    94    97    1
   106    94    93    1
   107    64    63    1
   108   147   148    1
   109   147   146    1
   110    33    34    1
   111    70    71    1
   112    52    50   ar
   113    52    51   ar
   114   151   148   am
   115   151   152    1
   116   148   149    2
   117    50    48   ar
   118   188   186   ar
   119   152   153    1
   120    97    98    1
   121    63    62    1
   122    35    34    2
   123    35    37    1
   124   187   186   ar
   125   171   170    1
   126    98   100    1
   127    71    73    1
   128    51    49   ar
   129   186   185    1
   130    48    47   ar
   131   170   167    1
   132   131   132    1
   133   153   154    2
   134    62    56   am
   135   183   184    2
   136   183   182    1
   137   138   136    1
   138   136   135    1
   139    49    47   ar
   140    47    46    1
   141    57    56    2
   142   185   182    1
   143    56    55    1
   144   182   181    1
   145   135   132    1
   146   135   137    1
   147   132   133    1
   148   167   166    1
   149   167   168    1
   150    59    61    1
   151    59    58    1
   152   134   133    2
   153   166   161   am
   154    46    43    1
   155   168   169    2
   156    54    55    1
   157    54    44   am
   158    55    58    1
   159   159   160    1
   160   163   164    1
   161   163   165    1
   162   163   160    1
   163    58    60    1
   164   161   160    1
   165   161   162    2
   166    43    44    1
   167    43    42    1
   168    44    45    2
   169    41    40    2
   170   179   178    1
   171    42    40   am
   172   180   178    1
   173   178   175    1
   174    40    39    1
   175   145   143    1
   176   175   174    1
   177   175   176    1
   178   176   177    2
   179    38    39    1
   180   143   144    1
   181   143   140    1
   182   139   140    1
   183   140   141    1
   184   141   142    2
