@<TRIPOS>MOLECULE
tmp/3gdvC00.pdb
 185 176 0 0 0
SMALL
GASTEIGER

@<TRIPOS>ATOM
      1  N         -3.6620   67.9740    1.0820 N.3   133  ILE133     -0.1245
      2  CA        -5.0870   67.7580    0.8910 C.3   133  ILE133      0.1561
      3  C         -5.2590   66.7430   -0.2360 C.2   133  ILE133      0.2260
      4  O         -4.4460   66.6950   -1.1610 O.2   133  ILE133     -0.2867
      5  CB        -5.8140   69.0590    0.5290 C.3   133  ILE133      0.0252
      6  CG1       -5.5290   69.4560   -0.9240 C.3   133  ILE133      0.0019
      7  CG2       -5.4150   70.1670    1.4910 C.3   133  ILE133      0.0019
      8  CD1       -6.5320   68.9190   -1.9300 C.3   133  ILE133      0.0001
      9  N        -11.3400   68.5480   -0.9120 N.3   136  PRO136     -0.2102
     10  CA       -11.7060   69.8560   -0.3530 C.3   136  PRO136      0.1504
     11  C        -12.2400   69.8030    1.0810 C.2   136  PRO136      0.2576
     12  O        -12.3540   70.8550    1.7110 O.2   136  PRO136     -0.2718
     13  CB       -12.8050   70.3470   -1.3030 C.3   136  PRO136      0.0282
     14  CG       -12.5810   69.5970   -2.5670 C.3   136  PRO136      0.0208
     15  CD       -12.0920   68.2480   -2.1410 C.3   136  PRO136      0.0893
     16  N        -12.5690   68.6170    1.5860 N.am  137  THR137     -0.1939
     17  CA       -13.0560   68.5040    2.9590 C.3   137  THR137      0.2028
     18  C        -12.0250   69.0830    3.9160 C.2   137  THR137      0.2643
     19  O        -12.3700   69.6670    4.9450 O.2   137  THR137     -0.2714
     20  CB       -13.3480   67.0430    3.3680 C.3   137  THR137      0.1808
     21  OG1      -12.1330   66.2820    3.3520 O.3   137  THR137     -0.2208
     22  CG2      -14.3680   66.4080    2.4310 C.3   137  THR137      0.0379
     23  N        -10.7560   68.9190    3.5640 N.am  138  GLY138     -0.1939
     24  CA        -9.6700   69.3980    4.3920 C.3   138  GLY138      0.2014
     25  C         -9.5780   68.6350    5.6970 C.2   138  GLY138      0.2638
     26  O         -9.0300   69.1360    6.6790 O.2   138  GLY138     -0.2714
     27  N        -10.1100   67.4170    5.7160 N.am  139  ARG139     -0.1977
     28  CA       -10.1010   66.6330    6.9450 C.3   139  ARG139      0.1597
     29  C         -9.2130   65.3860    6.9030 C.2   139  ARG139      0.2287
     30  O         -9.2630   64.5620    7.8180 O.2   139  ARG139     -0.2864
     31  CB       -11.5300   66.2770    7.3750 C.3   139  ARG139      0.0334
     32  CG       -12.2780   67.4580    7.9780 C.3   139  ARG139      0.0492
     33  CD       -13.3410   66.9920    8.9400 C.3   139  ARG139      0.2205
     34  NE       -13.5820   67.9500   10.0170 N.pl3 139  ARG139     -0.0865
     35  CZ       -14.4070   68.9890    9.9220 C.cat 139  ARG139      0.5346
     36  NH1      -15.0620   69.2180    8.7900 N.pl3 139  ARG139      0.1354
     37  NH2      -14.5730   69.8060   10.9560 N.pl3 139  ARG139      0.1354
     38  N        -18.2780   68.6650   16.8490 N.3   205  GLY205     -0.1210
     39  CA       -18.9830   69.9290   16.9250 C.3   205  GLY205      0.1956
     40  C        -19.1450   70.4930   15.5240 C.2   205  GLY205      0.2612
     41  O        -18.4380   70.0910   14.6000 O.2   205  GLY205     -0.2717
     42  N        -20.0720   71.4310   15.3670 N.am  206  TYR206     -0.1962
     43  CA       -20.3970   71.9740   14.0550 C.3   206  TYR206      0.1771
     44  C        -20.9960   73.3690   14.1930 C.2   206  TYR206      0.2619
     45  O        -21.8290   73.6050   15.0690 O.2   206  TYR206     -0.2715
     46  CB       -21.3800   71.0380   13.3540 C.3   206  TYR206      0.0574
     47  CG       -21.9250   71.5250   12.0280 C.ar  206  TYR206     -0.0198
     48  CD1      -21.1390   71.5120   10.8840 C.ar  206  TYR206     -0.0009
     49  CD2      -23.2440   71.9530   11.9120 C.ar  206  TYR206     -0.0009
     50  CE1      -21.6380   71.9360    9.6680 C.ar  206  TYR206      0.0417
     51  CE2      -23.7520   72.3780   10.6990 C.ar  206  TYR206      0.0417
     52  CZ       -22.9450   72.3650    9.5820 C.ar  206  TYR206      0.1957
     53  OH       -23.4440   72.7850    8.3720 O.3   206  TYR206     -0.2866
     54  N        -20.5700   74.2890   13.3310 N.am  207  ILE207     -0.1963
     55  CA       -21.0720   75.6590   13.3760 C.3   207  ILE207      0.1727
     56  C        -21.7670   76.1000   12.0880 C.2   207  ILE207      0.2617
     57  O        -22.4320   77.1300   12.0620 O.2   207  ILE207     -0.2715
     58  CB       -19.9600   76.6630   13.7210 C.3   207  ILE207      0.0290
     59  CG1      -18.8600   76.6300   12.6620 C.3   207  ILE207      0.0022
     60  CG2      -19.3820   76.3570   15.0860 C.3   207  ILE207      0.0023
     61  CD1      -17.7470   77.5920   12.9380 C.3   207  ILE207      0.0001
     62  N        -21.6140   75.3230   11.0230 N.am  208  GLY208     -0.1940
     63  CA       -22.3190   75.5990    9.7850 C.3   208  GLY208      0.2014
     64  C        -21.7370   76.7770    9.0310 C.2   208  GLY208      0.2639
     65  O        -22.4290   77.7580    8.7460 O.2   208  GLY208     -0.2714
     66  N        -20.4570   76.6680    8.6970 N.am  209  ILE209     -0.1963
     67  CA       -19.7470   77.7430    8.0240 C.3   209  ILE209      0.1727
     68  C        -18.7310   77.1950    7.0300 C.2   209  ILE209      0.2617
     69  O        -18.0150   76.2370    7.3200 O.2   209  ILE209     -0.2715
     70  CB       -19.0170   78.6460    9.0410 C.3   209  ILE209      0.0290
     71  CG1      -19.9980   79.6230    9.6770 C.3   209  ILE209      0.0022
     72  CG2      -17.8780   79.4010    8.3790 C.3   209  ILE209      0.0023
     73  CD1      -19.3360   80.6480   10.5620 C.3   209  ILE209      0.0001
     74  N        -18.6850   77.8030    5.8500 N.am  210  GLY210     -0.1940
     75  CA       -17.6280   77.5340    4.8960 C.3   210  GLY210      0.2014
     76  C        -16.6580   78.6980    4.9220 C.2   210  GLY210      0.2639
     77  O        -17.0040   79.8110    4.5350 O.2   210  GLY210     -0.2714
     78  N        -15.4400   78.4490    5.3840 N.am  211  GLY211     -0.1939
     79  CA       -14.4890   79.5260    5.5690 C.3   211  GLY211      0.2014
     80  C        -13.0770   79.2200    5.1220 C.2   211  GLY211      0.2638
     81  O        -12.6640   78.0620    5.0460 O.2   211  GLY211     -0.2714
     82  N        -12.3330   80.2760    4.8210 N.am  212  ARG212     -0.1977
     83  CA       -10.9330   80.1460    4.4580 C.3   212  ARG212      0.1597
     84  C        -10.1460   81.3220    5.0060 C.2   212  ARG212      0.2287
     85  O        -10.5420   82.4790    4.8510 O.2   212  ARG212     -0.2864
     86  CB       -10.7710   80.0650    2.9400 C.3   212  ARG212      0.0334
     87  CG        -9.3280   79.9080    2.4840 C.3   212  ARG212      0.0492
     88  CD        -9.2480   79.4950    1.0210 C.3   212  ARG212      0.2205
     89  NE        -9.9050   78.2140    0.7780 N.pl3 212  ARG212     -0.0865
     90  CZ       -11.1180   78.0830    0.2500 C.cat 212  ARG212      0.5346
     91  NH1      -11.8120   79.1590   -0.1000 N.pl3 212  ARG212      0.1354
     92  NH2      -11.6380   76.8750    0.0670 N.pl3 212  ARG212      0.1354
     93  N        -10.4950   83.8950    9.7650 N.3   221  ILE221     -0.1245
     94  CA       -11.1610   83.0940    8.7540 C.3   221  ILE221      0.1561
     95  C        -12.3140   83.8740    8.1270 C.2   221  ILE221      0.2260
     96  O        -13.2070   84.3510    8.8240 O.2   221  ILE221     -0.2867
     97  CB       -11.6800   81.7840    9.3720 C.3   221  ILE221      0.0252
     98  CG1      -10.5490   81.0810   10.1260 C.3   221  ILE221      0.0019
     99  CG2      -12.2960   80.8820    8.3090 C.3   221  ILE221      0.0019
    100  CD1      -11.0250   79.9550   11.0160 C.3   221  ILE221      0.0001
    101  N        -17.3840   82.2810    3.8580 N.3   224  ASN224     -0.1225
    102  CA       -17.8510   82.2490    2.4750 C.3   224  ASN224      0.1785
    103  C        -19.2920   81.7710    2.3850 C.2   224  ASN224      0.2597
    104  O        -20.1260   82.3880    1.7210 O.2   224  ASN224     -0.2718
    105  CB       -16.9450   81.3580    1.6280 C.3   224  ASN224      0.1169
    106  CG       -15.5440   81.9220    1.4900 C.2   224  ASN224      0.2627
    107  OD1      -15.3510   83.1420    1.4580 O.2   224  ASN224     -0.2716
    108  ND2      -14.5560   81.0370    1.4070 N.am  224  ASN224     -0.0877
    109  N        -19.5770   80.6660    3.0640 N.am  225  GLU225     -0.1979
    110  CA       -20.9190   80.1090    3.0740 C.3   225  GLU225      0.1602
    111  C        -21.4470   80.0330    4.4980 C.2   225  GLU225      0.2287
    112  O        -20.6820   79.8540    5.4490 O.2   225  GLU225     -0.2864
    113  CB       -20.9290   78.7250    2.4270 C.3   225  GLU225      0.0415
    114  CG       -20.3960   78.7160    1.0000 C.3   225  GLU225      0.1163
    115  CD       -20.3290   77.3220    0.4050 C.2   225  GLU225      0.3649
    116  OE1      -20.5580   76.3470    1.1520 O.co2 225  GLU225     -0.2457
    117  OE2      -20.0470   77.2010   -0.8080 O.co2 225  GLU225     -0.2457
    118  N        -24.3280   77.8330    6.2890 N.3   227  SER227     -0.1217
    119  CA       -25.3270   76.7770    6.2070 C.3   227  SER227      0.1889
    120  C        -26.6530   77.2540    6.7830 C.2   227  SER227      0.2288
    121  O        -26.7130   77.6900    7.9320 O.2   227  SER227     -0.2866
    122  CB       -24.8460   75.5350    6.9530 C.3   227  SER227      0.2089
    123  OG       -25.8950   74.5970    7.0980 O.3   227  SER227     -0.2183
    124  N        -13.8460   86.0000   10.9430 N.3   243  ILE243     -0.1245
    125  CA       -13.8250   85.3970   12.2680 C.3   243  ILE243      0.1561
    126  C        -12.4410   85.5500   12.8990 C.2   243  ILE243      0.2260
    127  O        -11.4390   85.0910   12.3460 O.2   243  ILE243     -0.2867
    128  CB       -14.2420   83.9180   12.2230 C.3   243  ILE243      0.0252
    129  CG1      -15.6940   83.8000   11.7610 C.3   243  ILE243      0.0019
    130  CG2      -14.0730   83.2780   13.5850 C.3   243  ILE243      0.0019
    131  CD1      -16.1280   82.3830   11.4610 C.3   243  ILE243      0.0001
    132  N        -12.8510   82.2110   18.2480 N.3   246  VAL246     -0.1245
    133  CA       -13.8820   81.2020   18.4030 C.3   246  VAL246      0.1561
    134  C        -13.6960   80.5580   19.7600 C.2   246  VAL246      0.2260
    135  O        -12.6190   80.0390   20.0650 O.2   246  VAL246     -0.2867
    136  CB       -13.7950   80.1220   17.3030 C.3   246  VAL246      0.0252
    137  CG1      -14.8380   79.0340   17.5400 C.3   246  VAL246      0.0019
    138  CG2      -13.9790   80.7450   15.9290 C.3   246  VAL246      0.0019
    139  N         -7.6930   78.2400    9.4810 N.3   254  ALA254     -0.1231
    140  CA        -8.9560   77.5650    9.1850 C.3   254  ALA254      0.1694
    141  C         -8.9360   76.1070    9.6400 C.2   254  ALA254      0.2591
    142  O         -9.9050   75.6120   10.2170 O.2   254  ALA254     -0.2718
    143  CB        -9.2740   77.6550    7.7040 C.3   254  ALA254      0.0304
    144  N         -7.8270   75.4280    9.3740 N.am  255  LEU255     -0.1980
    145  CA        -7.6430   74.0460    9.7970 C.3   255  LEU255      0.1596
    146  C         -7.5660   73.9160   11.3170 C.2   255  LEU255      0.2287
    147  O         -8.1970   73.0440   11.9080 O.2   255  LEU255     -0.2864
    148  CB        -6.3870   73.4470    9.1510 C.3   255  LEU255      0.0297
    149  CG        -6.4410   73.1270    7.6500 C.3   255  LEU255      0.0022
    150  CD1       -5.0710   72.6910    7.1220 C.3   255  LEU255      0.0001
    151  CD2       -7.4880   72.0580    7.3620 C.3   255  LEU255      0.0001
    152  N         -8.6880   75.9280   13.6000 N.3   257  THR257     -0.1203
    153  CA        -9.9810   76.2520   14.1740 C.3   257  THR257      0.1994
    154  C        -10.9730   75.1180   13.9590 C.2   257  THR257      0.2617
    155  O        -11.7050   74.7460   14.8750 O.2   257  THR257     -0.2717
    156  CB       -10.5590   77.5350   13.5790 C.3   257  THR257      0.1784
    157  OG1       -9.7610   78.6480   13.9930 O.3   257  THR257     -0.2211
    158  CG2      -11.9850   77.7350   14.0590 C.3   257  THR257      0.0376
    159  N        -10.9870   74.5680   12.7490 N.am  258  MET258     -0.1979
    160  CA       -11.9330   73.5080   12.4200 C.3   258  MET258      0.1605
    161  C        -11.7320   72.2980   13.3320 C.2   258  MET258      0.2287
    162  O        -12.6810   71.6180   13.7000 O.2   258  MET258     -0.2864
    163  CB       -11.8360   73.1150   10.9480 C.3   258  MET258      0.0413
    164  CG       -11.4590   71.6750   10.6900 C.3   258  MET258      0.0598
    165  SD       -11.5230   71.2650    8.9280 S.3   258  MET258     -0.1393
    166  CE       -13.0170   72.1140    8.4250 C.3   258  MET258      0.0692
    167  N        -13.3560   73.4190   16.7600 N.3   261  VAL261     -0.1245
    168  CA       -14.8070   73.3260   16.7030 C.3   261  VAL261      0.1561
    169  C        -15.2920   71.8800   16.8720 C.2   261  VAL261      0.2260
    170  O        -16.2680   71.6220   17.5750 O.2   261  VAL261     -0.2867
    171  CB       -15.3400   73.9030   15.3780 C.3   261  VAL261      0.0252
    172  CG1      -16.7320   73.3570   15.0690 C.3   261  VAL261      0.0019
    173  CG2      -15.3260   75.4370   15.4250 C.3   261  VAL261      0.0019
    174  N        -22.2010   67.5130   14.0390 N.3   290  TYR290     -0.1241
    175  CA       -21.9470   67.5880   12.6090 C.3   290  TYR290      0.1605
    176  C        -22.9760   66.7480   11.8610 C.2   290  TYR290      0.2264
    177  O        -23.2460   65.6070   12.2440 O.2   290  TYR290     -0.2867
    178  CB       -20.5280   67.1030   12.2990 C.3   290  TYR290      0.0534
    179  CG       -20.0350   67.4360   10.9050 C.ar  290  TYR290     -0.0201
    180  CD1      -19.1780   68.5080   10.6830 C.ar  290  TYR290     -0.0009
    181  CD2      -20.4220   66.6730    9.8130 C.ar  290  TYR290     -0.0009
    182  CE1      -18.7280   68.8080    9.4090 C.ar  290  TYR290      0.0417
    183  CE2      -19.9790   66.9640    8.5400 C.ar  290  TYR290      0.0417
    184  CZ       -19.1370   68.0310    8.3400 C.ar  290  TYR290      0.1957
    185  OH       -18.7000   68.3120    7.0640 O.3   290  TYR290     -0.2866
@<TRIPOS>BOND
     1    14    15    1
     2    14    13    1
     3    15     9    1
     4     8     6    1
     5    13    10    1
     6     4     3    2
     7     6     5    1
     8     9    10    1
     9   117   115   ar
    10    10    11    1
    11     3     2    1
    12    91    90    1
    13    92    90    1
    14    90    89    2
    15   115   114    1
    16   115   116   ar
    17     5     2    1
    18     5     7    1
    19    89    88    1
    20     2     1    1
    21   114   113    1
    22    88    87    1
    23    11    16   am
    24    11    12    2
    25   108   106   am
    26   107   106    2
    27   106   105    1
    28    16    17    1
    29   105   102    1
    30   104   103    2
    31   103   102    1
    32   103   109   am
    33   113   110    1
    34    22    20    1
    35   102   101    1
    36    87    86    1
    37    86    83    1
    38    17    20    1
    39    17    18    1
    40   109   110    1
    41   110   111    1
    42    21    20    1
    43    23    18   am
    44    23    24    1
    45    18    19    2
    46    24    25    1
    47    83    82    1
    48    83    84    1
    49   111   112    2
    50    77    76    2
    51    82    80   am
    52    85    84    2
    53    75    76    1
    54    75    74    1
    55    76    78   am
    56    81    80    2
    57    80    79    1
    58    78    79    1
    59    25    27   am
    60    25    26    2
    61    27    28    1
    62    74    68   am
    63   119   118    1
    64   119   120    1
    65   119   122    1
    66   120   121    2
    67    29    28    1
    68    29    30    2
    69    28    31    1
    70   122   123    1
    71    68    69    2
    72    68    67    1
    73   185   184    1
    74   150   149    1
    75   151   149    1
    76    31    32    1
    77   149   148    1
    78   143   140    1
    79    32    33    1
    80    67    66    1
    81    67    70    1
    82    95    94    1
    83    95    96    2
    84    99    97    1
    85   184   183   ar
    86   184   182   ar
    87    53    52    1
    88    72    70    1
    89   166   165    1
    90   183   181   ar
    91    66    64   am
    92    65    64    2
    93    94    97    1
    94    94    93    1
    95    36    35    1
    96   165   164    1
    97    33    34    1
    98    64    63    1
    99    70    71    1
   100   148   145    1
   101   140   139    1
   102   140   141    1
   103    97    98    1
   104   144   141   am
   105   144   145    1
   106   182   180   ar
   107    52    50   ar
   108    52    51   ar
   109   141   142    2
   110    50    48   ar
   111    71    73    1
   112    63    62    1
   113   145   146    1
   114   181   179   ar
   115    35    34    2
   116    35    37    1
   117    98   100    1
   118   180   179   ar
   119   164   163    1
   120    51    49   ar
   121    48    47   ar
   122   179   178    1
   123   124   125    1
   124   163   160    1
   125    62    56   am
   126   146   147    2
   127   131   129    1
   128   129   128    1
   129   176   177    2
   130   176   175    1
   131    49    47   ar
   132    47    46    1
   133    57    56    2
   134    56    55    1
   135   128   125    1
   136   128   130    1
   137   125   126    1
   138   178   175    1
   139   127   126    2
   140   160   159    1
   141   160   161    1
   142   175   174    1
   143    59    61    1
   144    59    58    1
   145   159   154   am
   146    54    55    1
   147    54    44   am
   148   161   162    2
   149    46    43    1
   150    55    58    1
   151   156   157    1
   152   156   158    1
   153   156   153    1
   154   152   153    1
   155    58    60    1
   156   154   153    1
   157   154   155    2
   158    43    44    1
   159    43    42    1
   160    44    45    2
   161    41    40    2
   162   172   171    1
   163    42    40   am
   164   171   173    1
   165   171   168    1
   166    40    39    1
   167   138   136    1
   168   168   167    1
   169   168   169    1
   170    38    39    1
   171   169   170    2
   172   136   137    1
   173   136   133    1
   174   132   133    1
   175   133   134    1
   176   134   135    2
