@<TRIPOS>MOLECULE
tmp/3ge1A00.pdb
 182 171 0 0 0
SMALL
GASTEIGER

@<TRIPOS>ATOM
      1  N        -18.2820  -54.4620   -3.5850 N.3     9  ASP9       -0.1239
      2  CA       -18.0540  -53.1790   -4.2270 C.3     9  ASP9        0.1674
      3  C        -16.8150  -52.5610   -3.5950 C.2     9  ASP9        0.2266
      4  O        -16.8820  -51.9970   -2.5000 O.2     9  ASP9       -0.2867
      5  CB       -19.2610  -52.2590   -4.0490 C.3     9  ASP9        0.1410
      6  CG       -19.0920  -50.9340   -4.7600 C.2     9  ASP9        0.3668
      7  OD1      -17.9580  -50.6010   -5.1670 O.co2   9  ASP9       -0.2456
      8  OD2      -20.0970  -50.2140   -4.9120 O.co2   9  ASP9       -0.2456
      9  N        -14.9100  -49.7770   -3.5400 N.3    11  GLY11      -0.1210
     10  CA       -14.9160  -48.3590   -3.9060 C.3    11  GLY11       0.1956
     11  C        -13.6220  -47.6320   -3.5670 C.2    11  GLY11       0.2613
     12  O        -12.7310  -48.1910   -2.9250 O.2    11  GLY11      -0.2717
     13  N        -13.5460  -46.3690   -3.9810 N.am   12  THR12      -0.1938
     14  CA       -12.3520  -45.5590   -3.8120 C.3    12  THR12       0.2028
     15  C        -12.0110  -45.2940   -2.3550 C.2    12  THR12       0.2643
     16  O        -10.8340  -45.2580   -1.9900 O.2    12  THR12      -0.2714
     17  CB       -12.5130  -44.2020   -4.5150 C.3    12  THR12       0.1808
     18  OG1      -13.0760  -44.3930   -5.8170 O.3    12  THR12      -0.2208
     19  CG2      -11.1750  -43.4910   -4.6310 C.3    12  THR12       0.0379
     20  N        -13.0270  -45.1030   -1.5180 N.am   13  THR13      -0.1936
     21  CA       -12.7750  -44.7940   -0.1120 C.3    13  THR13       0.2028
     22  C        -13.2450  -45.8590    0.8720 C.2    13  THR13       0.2642
     23  O        -12.9310  -45.7850    2.0540 O.2    13  THR13      -0.2714
     24  CB       -13.3680  -43.4240    0.2770 C.3    13  THR13       0.1808
     25  OG1      -14.7810  -43.4130    0.0310 O.3    13  THR13      -0.2208
     26  CG2      -12.7050  -42.3120   -0.5360 C.3    13  THR13       0.0379
     27  N        -13.9770  -46.8580    0.3930 N.am   14  SER14      -0.1949
     28  CA       -14.4290  -47.9470    1.2640 C.3    14  SER14       0.1924
     29  C        -14.7910  -49.1960    0.4760 C.2    14  SER14       0.2314
     30  O        -15.1050  -49.1230   -0.6930 O.2    14  SER14      -0.2863
     31  CB       -15.6310  -47.5090    2.1100 C.3    14  SER14       0.2116
     32  OG       -16.7810  -47.2820    1.3120 O.3    14  SER14      -0.2180
     33  N        -17.2020  -52.7490    0.3600 N.3    16  ARG16      -0.1245
     34  CA       -18.5100  -53.1830    0.8300 C.3    16  ARG16       0.1563
     35  C        -18.8740  -54.5700    0.3430 C.2    16  ARG16       0.2260
     36  O        -18.5380  -54.9520   -0.7730 O.2    16  ARG16      -0.2867
     37  CB       -19.5690  -52.1900    0.3750 C.3    16  ARG16       0.0307
     38  CG       -19.3620  -50.8070    0.9520 C.3    16  ARG16       0.0489
     39  CD       -20.3260  -49.7790    0.3720 C.3    16  ARG16       0.2205
     40  NE       -20.1300  -49.5720   -1.0650 N.pl3  16  ARG16      -0.0865
     41  CZ       -19.1380  -48.8550   -1.5980 C.cat  16  ARG16       0.5346
     42  NH1      -18.2210  -48.2860   -0.8240 N.pl3  16  ARG16       0.1354
     43  NH2      -19.0530  -48.7210   -2.9120 N.pl3  16  ARG16       0.1354
     44  N        -19.3790  -52.7680    5.6240 N.3    31  GLN31      -0.1245
     45  CA       -18.4970  -51.7860    5.0360 C.3    31  GLN31       0.1566
     46  C        -17.2340  -51.5850    5.8550 C.2    31  GLN31       0.2260
     47  O        -17.1970  -51.8380    7.0570 O.2    31  GLN31      -0.2867
     48  CB       -19.2230  -50.4630    4.8790 C.3    31  GLN31       0.0367
     49  CG       -18.3840  -49.3930    4.2210 C.3    31  GLN31       0.0905
     50  CD       -19.1800  -48.1600    3.8670 C.2    31  GLN31       0.2608
     51  OE1      -20.3390  -48.2520    3.4410 O.2    31  GLN31      -0.2717
     52  NE2      -18.5570  -46.9880    4.0230 N.am   31  GLN31      -0.0878
     53  N        -17.4790  -50.3580  -11.4650 N.3   241  ASP241     -0.1239
     54  CA       -18.5140  -49.9320  -10.5310 C.3   241  ASP241      0.1674
     55  C        -19.6320  -49.0940  -11.1710 C.2   241  ASP241      0.2266
     56  O        -20.8190  -49.3390  -10.9190 O.2   241  ASP241     -0.2867
     57  CB       -17.8960  -49.2180   -9.3070 C.3   241  ASP241      0.1410
     58  CG       -16.9780  -48.0560   -9.6840 C.2   241  ASP241      0.3668
     59  OD1      -17.0670  -47.5590  -10.8240 O.co2 241  ASP241     -0.2456
     60  OD2      -16.1690  -47.6350   -8.8220 O.co2 241  ASP241     -0.2456
     61  N        -24.3520  -41.4450  -10.7690 N.3   260  THR260     -0.1203
     62  CA       -23.9390  -41.9170   -9.4640 C.3   260  THR260      0.1994
     63  C        -23.1900  -40.8240   -8.7140 C.2   260  THR260      0.2618
     64  O        -22.3020  -40.1790   -9.2690 O.2   260  THR260     -0.2717
     65  CB       -23.0360  -43.1490   -9.5650 C.3   260  THR260      0.1784
     66  OG1      -23.7460  -44.2170  -10.2040 O.3   260  THR260     -0.2211
     67  CG2      -22.6050  -43.5940   -8.1850 C.3   260  THR260      0.0376
     68  N        -23.5680  -40.6160   -7.4530 N.am  261  TYR261     -0.1961
     69  CA       -22.9140  -39.6410   -6.5890 C.3   261  TYR261      0.1771
     70  C        -22.1040  -40.3650   -5.5250 C.2   261  TYR261      0.2620
     71  O        -22.6310  -40.7050   -4.4690 O.2   261  TYR261     -0.2715
     72  CB       -23.9470  -38.7660   -5.8930 C.3   261  TYR261      0.0574
     73  CG       -24.7560  -37.9040   -6.8140 C.ar  261  TYR261     -0.0198
     74  CD1      -25.8970  -38.3940   -7.4310 C.ar  261  TYR261     -0.0009
     75  CD2      -24.3940  -36.5890   -7.0530 C.ar  261  TYR261     -0.0009
     76  CE1      -26.6480  -37.6030   -8.2700 C.ar  261  TYR261      0.0417
     77  CE2      -25.1390  -35.7870   -7.8890 C.ar  261  TYR261      0.0417
     78  CZ       -26.2670  -36.2980   -8.4960 C.ar  261  TYR261      0.1957
     79  OH       -27.0160  -35.5000   -9.3340 O.3   261  TYR261     -0.2866
     80  N        -20.8310  -40.6110   -5.8080 N.am  262  GLY262     -0.1940
     81  CA       -19.9380  -41.2560   -4.8460 C.3   262  GLY262      0.2014
     82  C        -18.7020  -40.4030   -4.6980 C.2   262  GLY262      0.2639
     83  O        -18.7870  -39.1790   -4.7780 O.2   262  GLY262     -0.2714
     84  N        -17.5540  -41.0390   -4.4780 N.am  263  THR263     -0.1950
     85  CA       -16.2930  -40.3090   -4.3950 C.3   263  THR263      0.1897
     86  C        -16.2860  -39.3070   -5.5510 C.2   263  THR263      0.2313
     87  O        -15.9350  -38.1320   -5.3840 O.2   263  THR263     -0.2863
     88  CB       -15.0680  -41.2560   -4.5020 C.3   263  THR263      0.1794
     89  OG1      -14.9880  -42.0820   -3.3340 O.3   263  THR263     -0.2208
     90  CG2      -13.7890  -40.4670   -4.6230 C.3   263  THR263      0.0378
     91  N        -18.8660  -36.4010   -3.9490 N.3   304  GLY304     -0.1210
     92  CA       -19.1270  -36.6470   -2.5310 C.3   304  GLY304      0.1956
     93  C        -17.8240  -36.5780   -1.7650 C.2   304  GLY304      0.2612
     94  O        -17.8020  -36.4150   -0.5480 O.2   304  GLY304     -0.2717
     95  N        -16.7300  -36.7060   -2.5030 N.am  305  SER305     -0.1952
     96  CA       -15.3970  -36.6270   -1.9490 C.3   305  SER305      0.1924
     97  C        -15.1200  -35.2130   -1.4110 C.2   305  SER305      0.2314
     98  O        -14.2130  -35.0020   -0.5950 O.2   305  SER305     -0.2863
     99  CB       -14.3930  -36.9820   -3.0380 C.3   305  SER305      0.2116
    100  OG       -13.0760  -37.0250   -2.5300 O.3   305  SER305     -0.2180
    101  N        -17.5350  -33.4150    0.1450 N.3   307  ILE307     -0.1231
    102  CA       -18.2220  -33.3970    1.4200 C.3   307  ILE307      0.1692
    103  C        -17.3620  -34.1490    2.4070 C.2   307  ILE307      0.2591
    104  O        -17.2720  -33.7910    3.5750 O.2   307  ILE307     -0.2718
    105  CB       -19.5970  -34.0620    1.3140 C.3   307  ILE307      0.0266
    106  CG1      -20.4570  -33.3040    0.3010 C.3   307  ILE307      0.0019
    107  CG2      -20.2770  -34.0950    2.6740 C.3   307  ILE307      0.0020
    108  CD1      -21.8260  -33.8980    0.1080 C.3   307  ILE307      0.0001
    109  N        -16.7270  -35.1990    1.9190 N.am  308  GLN308     -0.1979
    110  CA       -15.8170  -35.9880    2.7240 C.3   308  GLN308      0.1601
    111  C        -14.5790  -35.1590    3.0690 C.2   308  GLN308      0.2287
    112  O        -13.9220  -35.4010    4.0730 O.2   308  GLN308     -0.2864
    113  CB       -15.4080  -37.2380    1.9530 C.3   308  GLN308      0.0394
    114  CG       -14.3690  -38.0930    2.6400 C.3   308  GLN308      0.0908
    115  CD       -13.9200  -39.2690    1.7810 C.2   308  GLN308      0.2608
    116  OE1      -13.0780  -40.0670    2.2030 O.2   308  GLN308     -0.2717
    117  NE2      -14.4790  -39.3790    0.5640 N.am  308  GLN308     -0.0878
    118  N        -20.7910  -36.8190    7.0790 N.3   319  ALA319     -0.1231
    119  CA       -21.2620  -36.3590    5.7780 C.3   319  ALA319      0.1679
    120  C        -22.6800  -35.7990    5.8620 C.2   319  ALA319      0.2434
    121  O        -22.9220  -34.6640    5.4450 O.2   319  ALA319     -0.2733
    122  CB       -21.2000  -37.4910    4.7640 C.3   319  ALA319      0.0304
    123  N        -23.6240  -36.5920    6.4010 N.am  320  PRO320     -0.2729
    124  CA       -25.0160  -36.1590    6.5140 C.3   320  PRO320      0.1401
    125  C        -25.2240  -34.9510    7.4180 C.2   320  PRO320      0.2269
    126  O        -26.2980  -34.3610    7.4080 O.2   320  PRO320     -0.2865
    127  CB       -25.7280  -37.3900    7.0890 C.3   320  PRO320      0.0296
    128  CG       -24.6610  -38.2360    7.6560 C.3   320  PRO320      0.0237
    129  CD       -23.4550  -37.9890    6.8290 C.3   320  PRO320      0.0939
    130  N        -23.8840  -32.2480    6.9890 N.3   322  SER322     -0.1202
    131  CA       -23.7340  -31.0850    6.1330 C.3   322  SER322      0.2020
    132  C        -25.1010  -30.5290    5.7260 C.2   322  SER322      0.2618
    133  O        -25.2660  -29.3180    5.5880 O.2   322  SER322     -0.2717
    134  CB       -22.8900  -31.4260    4.8910 C.3   322  SER322      0.2103
    135  OG       -23.4610  -32.4680    4.1130 O.3   322  SER322     -0.2182
    136  N        -26.0780  -31.4120    5.5400 N.am  323  GLU323     -0.1979
    137  CA       -27.4110  -30.9850    5.1480 C.3   323  GLU323      0.1602
    138  C        -27.9400  -30.0000    6.1740 C.2   323  GLU323      0.2287
    139  O        -28.5760  -29.0010    5.8210 O.2   323  GLU323     -0.2864
    140  CB       -28.3450  -32.1900    5.0230 C.3   323  GLU323      0.0415
    141  CG       -29.7530  -31.8560    4.5390 C.3   323  GLU323      0.1163
    142  CD       -30.6000  -33.0970    4.3200 C.2   323  GLU323      0.3649
    143  OE1      -31.8160  -32.9600    4.0640 O.co2 323  GLU323     -0.2457
    144  OE2      -30.0480  -34.2130    4.4060 O.co2 323  GLU323     -0.2457
    145  N        -26.0170  -43.7280   -5.3140 N.3   401  GLY401     -0.1210
    146  CA       -24.7300  -43.4140   -4.6930 C.3   401  GLY401      0.1956
    147  C        -24.8900  -43.0610   -3.2270 C.2   401  GLY401      0.2612
    148  O        -26.0120  -42.9410   -2.7250 O.2   401  GLY401     -0.2717
    149  N        -23.7690  -42.8870   -2.5360 N.am  402  GLY402     -0.1942
    150  CA       -23.7930  -42.5680   -1.1140 C.3   402  GLY402      0.2014
    151  C        -24.4340  -41.2330   -0.7730 C.2   402  GLY402      0.2638
    152  O        -25.0560  -41.0880    0.2780 O.2   402  GLY402     -0.2714
    153  N        -24.2990  -40.2590   -1.6650 N.am  403  ALA403     -0.1977
    154  CA       -24.8070  -38.9120   -1.4110 C.3   403  ALA403      0.1597
    155  C        -26.2930  -38.7000   -1.7310 C.2   403  ALA403      0.2287
    156  O        -26.8830  -37.7230   -1.2740 O.2   403  ALA403     -0.2864
    157  CB       -23.9660  -37.8980   -2.1700 C.3   403  ALA403      0.0319
    158  N        -28.8080  -39.7490   -0.5210 N.3   405  LYS405     -0.1231
    159  CA       -29.6030  -39.6940    0.7060 C.3   405  LYS405      0.1693
    160  C        -29.8980  -38.2460    1.0990 C.2   405  LYS405      0.2592
    161  O        -30.9750  -37.9320    1.5950 O.2   405  LYS405     -0.2718
    162  CB       -28.8270  -40.3310    1.8540 C.3   405  LYS405      0.0285
    163  CG       -28.2340  -41.6910    1.5530 C.3   405  LYS405      0.0035
    164  CD       -27.0760  -41.9740    2.5090 C.3   405  LYS405      0.0206
    165  CE       -26.2770  -43.2020    2.0950 C.3   405  LYS405      0.1093
    166  NZ       -24.9560  -43.2550    2.8070 N.3   405  LYS405     -0.1314
    167  N        -28.9210  -37.3750    0.8890 N.am  406  ASN406     -0.1974
    168  CA       -29.0430  -35.9710    1.2540 C.3   406  ASN406      0.1688
    169  C        -30.0840  -35.2660    0.3900 C.2   406  ASN406      0.2292
    170  O        -29.8380  -34.9890   -0.7830 O.2   406  ASN406     -0.2864
    171  CB       -27.6730  -35.2980    1.1210 C.3   406  ASN406      0.1181
    172  CG       -27.6600  -33.8910    1.6550 C.2   406  ASN406      0.2629
    173  OD1      -28.7000  -33.2290    1.7270 O.2   406  ASN406     -0.2716
    174  ND2      -26.4730  -33.4130    2.0280 N.am  406  ASN406     -0.0877
    175  N        -29.2980  -31.8600   -1.5940 N.3   409  ILE409     -0.1245
    176  CA       -28.5470  -32.0310   -2.8280 C.3   409  ILE409      0.1561
    177  C        -29.4670  -32.4810   -3.9480 C.2   409  ILE409      0.2260
    178  O        -29.3350  -32.0340   -5.0860 O.2   409  ILE409     -0.2867
    179  CB       -27.3940  -33.0430   -2.6560 C.3   409  ILE409      0.0252
    180  CG1      -26.4670  -32.5980   -1.5230 C.3   409  ILE409      0.0019
    181  CG2      -26.5950  -33.1720   -3.9430 C.3   409  ILE409      0.0019
    182  CD1      -25.3110  -33.5360   -1.2720 C.3   409  ILE409      0.0001
@<TRIPOS>BOND
     1    53    54    1
     2    55    56    2
     3    55    54    1
     4    59    58   ar
     5    61    62    1
     6    54    57    1
     7    66    65    1
     8    58    57    1
     9    58    60   ar
    10    65    62    1
    11    65    67    1
    12    62    63    1
    13    79    78    1
    14    64    63    2
    15    63    68   am
    16    78    76   ar
    17    78    77   ar
    18    76    74   ar
    19    77    75   ar
    20    68    69    1
    21    74    73   ar
    22    75    73   ar
    23    73    72    1
    24    69    72    1
    25    69    70    1
    26    18    17    1
    27    80    70   am
    28    80    81    1
    29    86    87    2
    30    86    85    1
    31    70    71    2
    32   145   146    1
    33     7     6   ar
    34   178   177    2
    35     8     6   ar
    36    81    82    1
    37    83    82    2
    38     6     5    1
    39    82    84   am
    40   146   147    1
    41    19    17    1
    42    90    88    1
    43    17    14    1
    44    88    85    1
    45    88    89    1
    46    84    85    1
    47     2     5    1
    48     2     3    1
    49     2     1    1
    50    13    14    1
    51    13    11   am
    52    91    92    1
    53   177   176    1
    54   181   179    1
    55    10    11    1
    56    10     9    1
    57    14    15    1
    58     3     4    2
    59    11    12    2
    60   147   148    2
    61   147   149   am
    62    99   100    1
    63    99    96    1
    64    43    41    1
    65   176   179    1
    66   176   175    1
    67   179   180    1
    68   149   150    1
    69    92    93    1
    70    95    96    1
    71    95    93   am
    72    15    16    2
    73    15    20   am
    74   157   154    1
    75    96    97    1
    76    93    94    2
    77   155   154    1
    78   155   156    2
    79   153   154    1
    80   153   151   am
    81    41    40    2
    82    41    42    1
    83   180   182    1
    84    20    21    1
    85    97    98    2
    86   150   151    1
    87    40    39    1
    88   170   169    2
    89    36    35    2
    90   151   152    2
    91    30    29    2
    92    26    24    1
    93   158   159    1
    94    21    24    1
    95    21    22    1
    96    25    24    1
    97   108   106    1
    98   101   102    1
    99   106   105    1
   100    35    34    1
   101    33    34    1
   102    39    38    1
   103    37    34    1
   104    37    38    1
   105   169   168    1
   106    27    22   am
   107    27    28    1
   108    29    28    1
   109   117   115   am
   110   159   160    1
   111   159   162    1
   112    22    23    2
   113   167   160   am
   114   167   168    1
   115   160   161    2
   116   171   168    1
   117   171   172    1
   118    28    31    1
   119    32    31    1
   120   105   102    1
   121   105   107    1
   122   102   103    1
   123   163   162    1
   124   163   164    1
   125   172   173    2
   126   172   174   am
   127   115   116    2
   128   115   114    1
   129   109   103   am
   130   109   110    1
   131   113   114    1
   132   113   110    1
   133   165   164    1
   134   165   166    1
   135   103   104    2
   136   110   111    1
   137   111   112    2
   138    51    50    2
   139    50    52   am
   140    50    49    1
   141   143   142   ar
   142   135   134    1
   143    49    48    1
   144   142   144   ar
   145   142   141    1
   146   141   140    1
   147   122   119    1
   148    48    45    1
   149   134   131    1
   150   140   137    1
   151    45    44    1
   152    45    46    1
   153   137   136    1
   154   137   138    1
   155   121   120    2
   156   136   132   am
   157   133   132    2
   158   132   131    1
   159   119   120    1
   160   119   118    1
   161   139   138    2
   162    46    47    2
   163   120   123   am
   164   131   130    1
   165   123   124    1
   166   123   129    1
   167   124   127    1
   168   124   125    1
   169   129   128    1
   170   127   128    1
   171   126   125    2
