@<TRIPOS>MOLECULE
tmp/3ge5A00.pdb
 143 140 0 0 0
SMALL
GASTEIGER

@<TRIPOS>ATOM
      1  N         45.1170   16.1000   20.8720 N.3    15  ARG15      -0.1231
      2  CA        45.0860   17.0760   21.9710 C.3    15  ARG15       0.1694
      3  C         43.9150   18.0420   21.8050 C.2    15  ARG15       0.2592
      4  O         43.8480   18.7870   20.8200 O.2    15  ARG15      -0.2718
      5  CB        46.3820   17.9040   22.0050 C.3    15  ARG15       0.0321
      6  CG        46.4550   18.8350   23.2120 C.3    15  ARG15       0.0489
      7  CD        47.2170   20.1530   22.9580 C.3    15  ARG15       0.2205
      8  NE        46.6540   20.8730   21.8270 N.pl3  15  ARG15      -0.0865
      9  CZ        45.5640   21.6360   21.8680 C.cat  15  ARG15       0.5346
     10  NH1       44.9220   21.8880   23.0170 N.pl3  15  ARG15       0.1354
     11  NH2       45.1010   22.1320   20.7460 N.pl3  15  ARG15       0.1354
     12  N         43.0120   18.0230   22.7830 N.am   16  ARG16      -0.1966
     13  CA        41.9970   19.0490   22.9220 C.3    16  ARG16       0.1729
     14  C         42.2110   19.6930   24.2950 C.2    16  ARG16       0.2616
     15  O         42.7020   19.0430   25.2320 O.2    16  ARG16      -0.2715
     16  CB        40.5970   18.4390   22.8490 C.3    16  ARG16       0.0348
     17  CG        40.1840   17.8050   21.5010 C.3    16  ARG16       0.0492
     18  CD        40.2920   18.7760   20.3240 C.3    16  ARG16       0.2205
     19  NE        39.5010   19.9870   20.5660 N.pl3  16  ARG16      -0.0865
     20  CZ        38.1660   20.0880   20.4690 C.cat  16  ARG16       0.5346
     21  NH1       37.4050   19.0910   20.0530 N.pl3  16  ARG16       0.1354
     22  NH2       37.5990   21.2460   20.7800 N.pl3  16  ARG16       0.1354
     23  N         41.8260   20.9540   24.4220 N.am   17  SER17      -0.1950
     24  CA        41.8640   21.6220   25.7230 C.3    17  SER17       0.1924
     25  C         40.9860   20.8510   26.7370 C.2    17  SER17       0.2314
     26  O         39.8400   20.4200   26.4390 O.2    17  SER17      -0.2863
     27  CB        41.4460   23.1000   25.6530 C.3    17  SER17       0.2116
     28  OG        42.3350   23.8850   24.8450 O.3    17  SER17      -0.2180
     29  N         39.5000   21.1160   30.6430 N.3    19  ARG19      -0.1245
     30  CA        39.1730   22.0470   31.7290 C.3    19  ARG19       0.1563
     31  C         38.5920   21.4010   32.9660 C.2    19  ARG19       0.2260
     32  O         38.3490   22.0790   33.9640 O.2    19  ARG19      -0.2867
     33  CB        38.2260   23.1210   31.1930 C.3    19  ARG19       0.0307
     34  CG        38.8680   24.0310   30.1600 C.3    19  ARG19       0.0489
     35  CD        37.8660   25.0500   29.5930 C.3    19  ARG19       0.2205
     36  NE        38.3830   25.8390   28.4800 N.pl3  19  ARG19      -0.0865
     37  CZ        38.4350   25.4560   27.1970 C.cat  19  ARG19       0.5346
     38  NH1       38.0160   24.2600   26.7920 N.pl3  19  ARG19       0.1354
     39  NH2       38.9210   26.3020   26.2900 N.pl3  19  ARG19       0.1354
     40  N         36.7620   32.6550   35.2870 N.3    69  GLN69      -0.1245
     41  CA        36.2340   31.5020   34.5600 C.3    69  GLN69       0.1566
     42  C         35.9590   30.3930   35.5540 C.2    69  GLN69       0.2260
     43  O         36.8620   29.9620   36.2720 O.2    69  GLN69      -0.2867
     44  CB        37.2250   31.0550   33.4900 C.3    69  GLN69       0.0367
     45  CG        37.4180   32.1410   32.4170 C.3    69  GLN69       0.0905
     46  CD        38.3520   31.7520   31.2930 C.2    69  GLN69       0.2608
     47  OE1       39.2600   30.9450   31.4610 O.2    69  GLN69      -0.2717
     48  NE2       38.1790   32.4130   30.1440 N.am   69  GLN69      -0.0878
     49  N         35.6930   27.1620   35.6010 N.3    71  TRP71      -0.1241
     50  CA        36.4920   25.9350   35.5910 C.3    71  TRP71       0.1605
     51  C         37.8770   26.1070   36.2240 C.2    71  TRP71       0.2264
     52  O         38.4530   25.1570   36.7370 O.2    71  TRP71      -0.2867
     53  CB        36.6480   25.3970   34.1610 C.3    71  TRP71       0.0550
     54  CG        37.5670   26.2240   33.3210 C.ar   71  TRP71       0.0003
     55  CD1       37.2190   27.2960   32.5540 C.ar   71  TRP71       0.0946
     56  CD2       38.9880   26.0830   33.1950 C.ar   71  TRP71       0.0152
     57  NE1       38.3180   27.8350   31.9700 N.ar   71  TRP71      -0.2442
     58  CE2       39.4260   27.1100   32.3260 C.ar   71  TRP71       0.0810
     59  CE3       39.9540   25.2040   33.7490 C.ar   71  TRP71       0.0012
     60  CZ2       40.7740   27.2820   31.9950 C.ar   71  TRP71       0.0191
     61  CZ3       41.2860   25.3610   33.3860 C.ar   71  TRP71       0.0001
     62  CH2       41.6780   26.4100   32.5220 C.ar   71  TRP71       0.0015
     63  N         44.8710   23.1860   29.7400 N.3   117  THR117     -0.1203
     64  CA        44.4220   24.3590   28.9950 C.3   117  THR117      0.1994
     65  C         45.3900   25.5050   29.2060 C.2   117  THR117      0.2618
     66  O         45.8360   25.7550   30.3170 O.2   117  THR117     -0.2717
     67  CB        42.9500   24.7800   29.4010 C.3   117  THR117      0.1784
     68  OG1       42.0630   23.7220   29.0850 O.3   117  THR117     -0.2211
     69  CG2       42.5030   26.0540   28.6870 C.3   117  THR117      0.0376
     70  N         45.7470   26.1420   28.1070 N.am  118  TRP118     -0.1961
     71  CA        46.5120   27.3890   28.1110 C.3   118  TRP118      0.1771
     72  C         45.5990   28.5060   28.5220 C.2   118  TRP118      0.2619
     73  O         44.5160   28.6520   27.9410 O.2   118  TRP118     -0.2715
     74  CB        47.0050   27.6330   26.7060 C.3   118  TRP118      0.0590
     75  CG        47.9980   28.7360   26.4780 C.ar  118  TRP118      0.0006
     76  CD1       47.9750   30.0290   26.9720 C.ar  118  TRP118      0.0946
     77  CD2       49.1150   28.6550   25.6090 C.ar  118  TRP118      0.0152
     78  NE1       49.0550   30.7360   26.4700 N.ar  118  TRP118     -0.2442
     79  CE2       49.7630   29.9230   25.6260 C.ar  118  TRP118      0.0810
     80  CE3       49.6560   27.6320   24.8210 C.ar  118  TRP118      0.0012
     81  CZ2       50.9310   30.1710   24.9100 C.ar  118  TRP118      0.0191
     82  CZ3       50.8330   27.9060   24.0760 C.ar  118  TRP118      0.0001
     83  CH2       51.4420   29.1700   24.1510 C.ar  118  TRP118      0.0015
     84  N         46.0100   29.2910   29.5120 N.am  119  VAL119     -0.1963
     85  CA        45.1780   30.3890   30.0920 C.3   119  VAL119      0.1727
     86  C         45.8770   31.7610   29.9710 C.2   119  VAL119      0.2616
     87  O         46.9970   31.9610   30.4520 O.2   119  VAL119     -0.2715
     88  CB        44.8230   30.1390   31.5880 C.3   119  VAL119      0.0290
     89  CG1       43.9730   31.2750   32.1130 C.3   119  VAL119      0.0023
     90  CG2       44.1110   28.7510   31.7310 C.3   119  VAL119      0.0023
     91  N         45.1940   32.6970   29.3070 N.am  120  CYS120     -0.1954
     92  CA        45.6050   34.1190   29.2690 C.3   120  CYS120      0.1843
     93  C         44.5480   35.0450   29.8430 C.2   120  CYS120      0.2625
     94  O         44.8480   36.2150   30.1250 O.2   120  CYS120     -0.2714
     95  CB        45.9150   34.5150   27.8500 C.3   120  CYS120      0.0997
     96  SG        47.4690   33.7910   27.2360 S.3   120  CYS120     -0.0797
     97  N         43.3220   34.5340   30.0910 N.am  121  ALA121     -0.1977
     98  CA        42.2700   35.3730   30.6830 C.3   121  ALA121      0.1597
     99  C         42.4070   35.3700   32.2130 C.2   121  ALA121      0.2287
    100  O         41.7170   34.6390   32.8960 O.2   121  ALA121     -0.2864
    101  CB        40.8530   34.9130   30.2410 C.3   121  ALA121      0.0319
    102  N         34.8920   20.6860   24.8730 N.3   154  ARG154     -0.1231
    103  CA        33.9130   21.7400   25.1190 C.3   154  ARG154      0.1694
    104  C         33.0300   21.9640   23.8950 C.2   154  ARG154      0.2591
    105  O         31.8200   22.1990   24.0170 O.2   154  ARG154     -0.2718
    106  CB        34.6290   23.0340   25.5450 C.3   154  ARG154      0.0321
    107  CG        33.6660   24.1440   26.0380 C.3   154  ARG154      0.0489
    108  CD        34.4240   25.3850   26.4870 C.3   154  ARG154      0.2205
    109  NE        35.1660   25.9750   25.3730 N.pl3 154  ARG154     -0.0865
    110  CZ        35.9250   27.0610   25.4650 C.cat 154  ARG154      0.5346
    111  NH1       36.0500   27.6880   26.6320 N.pl3 154  ARG154      0.1354
    112  NH2       36.5740   27.5030   24.3840 N.pl3 154  ARG154      0.1354
    113  N         33.6390   21.8800   22.7130 N.am  155  GLU155     -0.1979
    114  CA        32.9090   21.9690   21.4520 C.3   155  GLU155      0.1602
    115  C         33.5980   21.1190   20.3850 C.2   155  GLU155      0.2287
    116  O         34.7380   20.6890   20.5820 O.2   155  GLU155     -0.2864
    117  CB        32.8130   23.4420   21.0110 C.3   155  GLU155      0.0415
    118  CG        34.1320   24.1270   20.7080 C.3   155  GLU155      0.1163
    119  CD        34.9760   24.4230   21.9280 C.2   155  GLU155      0.3649
    120  OE1       34.4850   25.1380   22.8370 O.co2 155  GLU155     -0.2457
    121  OE2       36.1300   23.9270   21.9610 O.co2 155  GLU155     -0.2457
    122  N         35.7730   20.2530   17.2830 N.3   157  PHE157     -0.1241
    123  CA        36.9570   20.8380   16.6750 C.3   157  PHE157      0.1605
    124  C         36.5870   21.6790   15.4650 C.2   157  PHE157      0.2264
    125  O         35.8310   21.2630   14.6190 O.2   157  PHE157     -0.2867
    126  CB        37.9470   19.7440   16.2680 C.3   157  PHE157      0.0534
    127  CG        39.2110   20.2700   15.6190 C.ar  157  PHE157     -0.0203
    128  CD1       40.2860   20.6200   16.3890 C.ar  157  PHE157     -0.0042
    129  CD2       39.3220   20.3550   14.2280 C.ar  157  PHE157     -0.0042
    130  CE1       41.4470   21.1100   15.7930 C.ar  157  PHE157     -0.0003
    131  CE2       40.5060   20.8250   13.6280 C.ar  157  PHE157     -0.0003
    132  CZ        41.5490   21.1720   14.4040 C.ar  157  PHE157     -0.0000
    133  N         38.3900   24.8020   12.7380 N.3   159  ARG159     -0.1245
    134  CA        39.4380   25.6980   12.2900 C.3   159  ARG159      0.1563
    135  C         39.0260   26.1950   10.9230 C.2   159  ARG159      0.2260
    136  O         38.2450   25.5510   10.1940 O.2   159  ARG159     -0.2867
    137  CB        40.7860   24.9720   12.1620 C.3   159  ARG159      0.0307
    138  CG        41.4140   24.4710   13.4730 C.3   159  ARG159      0.0489
    139  CD        41.8740   25.6450   14.3440 C.3   159  ARG159      0.2205
    140  NE        42.6450   25.1600   15.4770 N.pl3 159  ARG159     -0.0865
    141  CZ        42.1170   24.5670   16.5540 C.cat 159  ARG159      0.5346
    142  NH1       40.8040   24.4780   16.7300 N.pl3 159  ARG159      0.1354
    143  NH2       42.9270   24.1200   17.4900 N.pl3 159  ARG159      0.1354
@<TRIPOS>BOND
     1   136   135    2
     2   135   134    1
     3   137   134    1
     4   137   138    1
     5   134   133    1
     6   138   139    1
     7   131   129   ar
     8   131   132   ar
     9   129   127   ar
    10   139   140    1
    11   132   130   ar
    12   125   124    2
    13   124   123    1
    14   140   141    2
    15   127   126    1
    16   127   128   ar
    17   130   128   ar
    18   126   123    1
    19   141   142    1
    20   141   143    1
    21   123   122    1
    22    21    20    1
    23    18    19    1
    24    18    17    1
    25   115   116    2
    26   115   114    1
    27    20    19    2
    28    20    22    1
    29   118   117    1
    30   118   119    1
    31    11     9    1
    32     4     3    2
    33     1     2    1
    34   117   114    1
    35   114   113    1
    36    17    16    1
    37     3     2    1
    38     3    12   am
    39     8     9    2
    40     8     7    1
    41     9    10    1
    42   119   121   ar
    43   119   120   ar
    44     2     5    1
    45     5     6    1
    46   113   104   am
    47    12    13    1
    48    16    13    1
    49    13    14    1
    50     7     6    1
    51   104   105    2
    52   104   103    1
    53    82    83   ar
    54    82    80   ar
    55    83    81   ar
    56    14    23   am
    57    14    15    2
    58   112   110    1
    59    23    24    1
    60    80    77   ar
    61    28    27    1
    62   102   103    1
    63    81    79   ar
    64   103   106    1
    65   109   110    2
    66   109   108    1
    67   110   111    1
    68   106   107    1
    69    77    79   ar
    70    77    75   ar
    71    79    78   ar
    72    27    24    1
    73    24    25    1
    74   107   108    1
    75    39    37    1
    76    26    25    2
    77    78    76   ar
    78    75    74    1
    79    75    76   ar
    80    74    71    1
    81    38    37    1
    82    37    36    2
    83    96    95    1
    84    95    92    1
    85    73    72    2
    86    70    71    1
    87    70    65   am
    88    71    72    1
    89    36    35    1
    90    72    84   am
    91    69    67    1
    92    64    65    1
    93    64    67    1
    94    64    63    1
    95    68    67    1
    96    65    66    2
    97    92    91    1
    98    92    93    1
    99    91    86   am
   100    84    85    1
   101    35    34    1
   102    93    97   am
   103    93    94    2
   104    86    85    1
   105    86    87    2
   106    97    98    1
   107    85    88    1
   108    48    46   am
   109    34    33    1
   110   101    98    1
   111    29    30    1
   112    98    99    1
   113    33    30    1
   114    46    47    2
   115    46    45    1
   116    88    90    1
   117    88    89    1
   118    30    31    1
   119    57    58   ar
   120    57    55   ar
   121    60    58   ar
   122    60    62   ar
   123    99   100    2
   124    58    56   ar
   125    45    44    1
   126    62    61   ar
   127    55    54   ar
   128    31    32    2
   129    56    54   ar
   130    56    59   ar
   131    54    53    1
   132    61    59   ar
   133    44    41    1
   134    53    50    1
   135    41    40    1
   136    41    42    1
   137    42    43    2
   138    50    49    1
   139    50    51    1
   140    51    52    2
