@<TRIPOS>MOLECULE
tmp/3ge5A01.pdb
 88 86 0 0 0
SMALL
GASTEIGER

@<TRIPOS>ATOM
      1  N         64.0640   23.5500   27.5820 N.3    39  ILE39      -0.1245
      2  CA        64.8340   23.2770   26.3590 C.3    39  ILE39       0.1561
      3  C         64.2760   23.9850   25.1100 C.2    39  ILE39       0.2260
      4  O         64.8600   23.8890   24.0040 O.2    39  ILE39      -0.2867
      5  CB        65.0330   21.7430   26.1150 C.3    39  ILE39       0.0252
      6  CG1       63.6970   21.0510   25.8200 C.3    39  ILE39       0.0019
      7  CG2       65.8410   21.1380   27.2950 C.3    39  ILE39       0.0019
      8  CD1       63.8600   19.5870   25.2870 C.3    39  ILE39       0.0001
      9  N         63.5280   26.6700   22.2350 N.3    41  PRO41      -0.2102
     10  CA        64.2820   27.7650   21.6550 C.3    41  PRO41       0.1504
     11  C         63.6510   29.1540   21.9540 C.2    41  PRO41       0.2576
     12  O         62.4780   29.2750   22.3440 O.2    41  PRO41      -0.2718
     13  CB        64.2010   27.4810   20.1350 C.3    41  PRO41       0.0282
     14  CG        62.9200   26.8000   19.9780 C.3    41  PRO41       0.0208
     15  CD        62.6890   25.9910   21.2410 C.3    41  PRO41       0.0893
     16  N         64.4850   30.1780   21.7960 N.am   42  SER42      -0.1938
     17  CA        64.1140   31.5830   22.0290 C.3    42  SER42       0.2055
     18  C         65.0320   32.4790   21.1750 C.2    42  SER42       0.2643
     19  O         66.1510   32.0600   20.7650 O.2    42  SER42      -0.2714
     20  CB        64.2600   31.8960   23.5230 C.3    42  SER42       0.2130
     21  OG        65.5650   31.7030   24.0280 O.3    42  SER42      -0.2179
     22  N         64.6150   33.7230   20.9600 N.am   43  ALA43      -0.1963
     23  CA        65.4790   34.6800   20.2680 C.3    43  ALA43       0.1728
     24  C         66.8260   34.8490   20.9910 C.2    43  ALA43       0.2616
     25  O         66.8710   35.0920   22.2120 O.2    43  ALA43      -0.2715
     26  CB        64.7740   36.0280   20.1280 C.3    43  ALA43       0.0334
     27  N         67.9070   34.6300   20.2330 N.am   44  HIS44      -0.1959
     28  CA        69.2830   34.7050   20.7170 C.3    44  HIS44       0.1787
     29  C         69.5470   33.6830   21.8460 C.2    44  HIS44       0.2620
     30  O         70.5190   33.8110   22.5840 O.2    44  HIS44      -0.2715
     31  CB        69.6580   36.1050   21.1860 C.3    44  HIS44       0.0785
     32  CG        70.1230   37.0260   20.1020 C.ar   44  HIS44       0.0821
     33  ND1       71.4230   37.0600   19.6680 N.ar   44  HIS44      -0.2267
     34  CD2       69.4550   37.9420   19.3680 C.ar   44  HIS44       0.1154
     35  CE1       71.5390   37.9740   18.7170 C.ar   44  HIS44       0.1986
     36  NE2       70.3560   38.5170   18.5070 N.ar   44  HIS44      -0.2212
     37  N         68.6800   32.6930   21.9960 N.am   45  ASN45      -0.1972
     38  CA        68.7890   31.7660   23.1350 C.3    45  ASN45       0.1688
     39  C         68.8600   32.4860   24.4860 C.2    45  ASN45       0.2292
     40  O         69.4390   31.9810   25.4440 O.2    45  ASN45      -0.2864
     41  CB        69.9990   30.8390   22.9580 C.3    45  ASN45       0.1181
     42  CG        69.9910   29.6390   23.9260 C.2    45  ASN45       0.2629
     43  OD1       68.9460   29.0420   24.1930 O.2    45  ASN45      -0.2716
     44  ND2       71.1940   29.2860   24.4520 N.am   45  ASN45      -0.0877
     45  N         65.1160   39.6110   23.8500 N.3    89  TRP89      -0.1241
     46  CA        65.5700   40.3140   22.6740 C.3    89  TRP89       0.1605
     47  C         64.6450   41.4570   22.2820 C.2    89  TRP89       0.2264
     48  O         63.4020   41.2840   22.3130 O.2    89  TRP89      -0.2867
     49  CB        65.7220   39.3040   21.5280 C.3    89  TRP89       0.0550
     50  CG        66.2090   39.9130   20.2530 C.ar   89  TRP89       0.0003
     51  CD1       67.4270   40.4820   20.0220 C.ar   89  TRP89       0.0946
     52  CD2       65.4830   39.9990   19.0060 C.ar   89  TRP89       0.0152
     53  NE1       67.4870   40.9530   18.7440 N.ar   89  TRP89      -0.2442
     54  CE2       66.3200   40.6600   18.0880 C.ar   89  TRP89       0.0810
     55  CE3       64.1930   39.6150   18.5970 C.ar   89  TRP89       0.0012
     56  CZ2       65.9230   40.9260   16.7770 C.ar   89  TRP89       0.0191
     57  CZ3       63.8140   39.8730   17.2900 C.ar   89  TRP89       0.0001
     58  CH2       64.6730   40.5200   16.3990 C.ar   89  TRP89       0.0015
     59  N         60.7190   40.2620   22.5900 N.3    96  SER96      -0.1217
     60  CA        60.2550   38.9110   22.2880 C.3    96  SER96       0.1889
     61  C         59.6170   38.1830   23.4730 C.2    96  SER96       0.2288
     62  O         59.4700   36.9720   23.4280 O.2    96  SER96      -0.2866
     63  CB        61.3780   38.0710   21.7030 C.3    96  SER96       0.2089
     64  OG        62.4360   37.9860   22.6390 O.3    96  SER96      -0.2183
     65  N         56.4930   36.2140   22.2770 N.3    99  ILE99      -0.1231
     66  CA        56.9430   35.1460   21.3990 C.3    99  ILE99       0.1692
     67  C         57.6280   34.0120   22.1900 C.2    99  ILE99       0.2592
     68  O         57.1910   32.8580   22.1250 O.2    99  ILE99      -0.2718
     69  CB        57.8770   35.7270   20.2900 C.3    99  ILE99       0.0266
     70  CG1       57.0780   36.6650   19.3570 C.3    99  ILE99       0.0019
     71  CG2       58.6050   34.6410   19.4670 C.3    99  ILE99       0.0020
     72  CD1       57.9790   37.6000   18.5210 C.3    99  ILE99       0.0001
     73  N         58.6970   34.3600   22.9110 N.am  100  ASP100     -0.1974
     74  CA        59.5480   33.3360   23.5180 C.3   100  ASP100      0.1709
     75  C         58.7950   32.5450   24.6020 C.2   100  ASP100      0.2293
     76  O         58.8580   31.3030   24.6440 O.2   100  ASP100     -0.2864
     77  CB        60.7900   33.9700   24.1340 C.3   100  ASP100      0.1436
     78  CG        61.7890   34.4900   23.1110 C.2   100  ASP100      0.3671
     79  OD1       61.8800   33.9180   21.9960 O.co2 100  ASP100     -0.2456
     80  OD2       62.5410   35.4200   23.4700 O.co2 100  ASP100     -0.2456
     81  N         56.6080   29.9470   23.0160 N.3   103  ILE103     -0.1245
     82  CA        57.2930   28.7170   22.5470 C.3   103  ILE103      0.1561
     83  C         57.4470   27.7640   23.7480 C.2   103  ILE103      0.2260
     84  O         57.1430   26.5570   23.6480 O.2   103  ILE103     -0.2867
     85  CB        58.6850   29.0360   21.9090 C.3   103  ILE103      0.0252
     86  CG1       58.5600   30.0390   20.7340 C.3   103  ILE103      0.0019
     87  CG2       59.3230   27.7790   21.4240 C.3   103  ILE103      0.0019
     88  CD1       59.9180   30.6200   20.2110 C.3   103  ILE103      0.0001
@<TRIPOS>BOND
     1    58    56   ar
     2    58    57   ar
     3    56    54   ar
     4    57    55   ar
     5    54    53   ar
     6    54    52   ar
     7    36    35   ar
     8    36    34   ar
     9    72    70    1
    10    55    52   ar
    11    35    33   ar
    12    53    51   ar
    13    52    50   ar
    14    70    69    1
    15    34    32   ar
    16    71    69    1
    17    33    32   ar
    18    14    13    1
    19    14    15    1
    20    51    50   ar
    21    32    31    1
    22    26    23    1
    23    13    10    1
    24    88    86    1
    25    27    28    1
    26    27    24   am
    27    50    49    1
    28    23    22    1
    29    23    24    1
    30    69    66    1
    31    28    31    1
    32    28    29    1
    33    86    85    1
    34    19    18    2
    35    22    18   am
    36    24    25    2
    37    18    17    1
    38    15     9    1
    39    66    67    1
    40    66    65    1
    41    87    85    1
    42    49    46    1
    43    10    11    1
    44    10     9    1
    45    63    60    1
    46    63    64    1
    47    16    11   am
    48    16    17    1
    49    29    37   am
    50    29    30    2
    51    85    82    1
    52    11    12    2
    53    79    78   ar
    54    37    38    1
    55    17    20    1
    56    68    67    2
    57    67    73   am
    58    47    48    2
    59    47    46    1
    60    60    59    1
    61    60    61    1
    62    82    81    1
    63    82    83    1
    64    46    45    1
    65    73    74    1
    66    41    38    1
    67    41    42    1
    68    78    80   ar
    69    78    77    1
    70    38    39    1
    71    62    61    2
    72    74    77    1
    73    74    75    1
    74    20    21    1
    75    84    83    2
    76    42    43    2
    77    42    44   am
    78     4     3    2
    79    39    40    2
    80    75    76    2
    81     3     2    1
    82     8     6    1
    83     6     5    1
    84     5     2    1
    85     5     7    1
    86     2     1    1
