@<TRIPOS>MOLECULE
tmp/3ge6B01.pdb
 123 116 0 0 0
SMALL
GASTEIGER

@<TRIPOS>ATOM
      1  N         12.5730   71.8560   13.7390 N.3    14  ARG14      -0.1231
      2  CA        12.0660   73.1960   13.4490 C.3    14  ARG14       0.1694
      3  C         11.3520   73.2850   12.0750 C.2    14  ARG14       0.2592
      4  O         11.9420   73.0200   11.0390 O.2    14  ARG14      -0.2718
      5  CB        13.1790   74.2330   13.4680 C.3    14  ARG14       0.0321
      6  CG        12.6240   75.6700   13.2670 C.3    14  ARG14       0.0489
      7  CD        13.6040   76.5760   12.4930 C.3    14  ARG14       0.2205
      8  NE        13.8520   76.0730   11.1290 N.pl3  14  ARG14      -0.0865
      9  CZ        12.9830   76.0800   10.1250 C.cat  14  ARG14       0.5346
     10  NH1       11.7940   76.5980   10.2380 N.pl3  14  ARG14       0.1354
     11  NH2       13.3210   75.5540    8.9730 N.pl3  14  ARG14       0.1354
     12  N         10.0850   73.6650   12.1020 N.am   15  ARG15      -0.1966
     13  CA         9.3130   73.9790   10.9020 C.3    15  ARG15       0.1729
     14  C          8.6960   75.3370   11.0980 C.2    15  ARG15       0.2616
     15  O          8.6550   75.8570   12.2230 O.2    15  ARG15      -0.2715
     16  CB         8.1830   72.9570   10.7280 C.3    15  ARG15       0.0348
     17  CG         8.7070   71.5760   10.5130 C.3    15  ARG15       0.0492
     18  CD         7.5750   70.6030   10.4010 C.3    15  ARG15       0.2205
     19  NE         8.0230   69.2550   10.0890 N.pl3  15  ARG15      -0.0865
     20  CZ         7.2220   68.1890   10.0990 C.cat  15  ARG15       0.5346
     21  NH1        5.9370   68.3130   10.4080 N.pl3  15  ARG15       0.1354
     22  NH2        7.6990   66.9920    9.7940 N.pl3  15  ARG15       0.1354
     23  N          8.2140   75.9170   10.0160 N.am   16  SER16      -0.1950
     24  CA         7.3530   77.1230   10.1030 C.3    16  SER16       0.1924
     25  C          5.9750   76.6940   10.6060 C.2    16  SER16       0.2314
     26  O          5.2790   75.8830    9.9740 O.2    16  SER16      -0.2863
     27  CB         7.2390   77.8350    8.7590 C.3    16  SER16       0.2116
     28  OG         8.4950   78.4200    8.4190 O.3    16  SER16      -0.2180
     29  N          2.2190   77.8340   11.7490 N.3    18  ARG18      -0.1245
     30  CA         1.3750   78.9350   11.3560 C.3    18  ARG18       0.1563
     31  C          0.1440   79.0350   12.2590 C.2    18  ARG18       0.2260
     32  O         -0.5770   80.0240   12.2060 O.2    18  ARG18      -0.2867
     33  CB         1.1080   78.8860    9.8280 C.3    18  ARG18       0.0307
     34  CG         2.4520   78.8490    9.0260 C.3    18  ARG18       0.0489
     35  CD         2.3090   79.0450    7.5160 C.3    18  ARG18       0.2205
     36  NE         3.5740   79.2020    6.7620 N.pl3  18  ARG18      -0.0865
     37  CZ         4.3670   78.2110    6.3480 C.cat  18  ARG18       0.5346
     38  NH1        4.1130   76.9510    6.7130 N.pl3  18  ARG18       0.1354
     39  NH2        5.4670   78.4850    5.6080 N.pl3  18  ARG18       0.1354
     40  N         -0.9030   86.8090    6.2130 N.3    69  ASN69      -0.1240
     41  CA        -0.2920   86.0990    7.3170 C.3    69  ASN69       0.1653
     42  C         -1.0520   86.3730    8.6060 C.2    69  ASN69       0.2266
     43  O         -0.4900   86.4930    9.6880 O.2    69  ASN69      -0.2867
     44  CB         1.1860   86.4510    7.3810 C.3    69  ASN69       0.1155
     45  CG         1.9230   85.9500    6.1720 C.2    69  ASN69       0.2627
     46  OD1        2.0590   84.7400    5.9890 O.2    69  ASN69      -0.2716
     47  ND2        2.4270   86.8500    5.3680 N.am   69  ASN69      -0.0877
     48  N         -1.1070   83.6130   11.7100 N.3    72  GLN72      -0.1245
     49  CA         0.1160   83.6800   12.5170 C.3    72  GLN72       0.1566
     50  C          0.0410   84.8650   13.4620 C.2    72  GLN72       0.2260
     51  O          0.2880   84.7070   14.6580 O.2    72  GLN72      -0.2867
     52  CB         1.3490   83.7860   11.6240 C.3    72  GLN72       0.0367
     53  CG         1.5470   82.6090   10.6640 C.3    72  GLN72       0.0905
     54  CD         1.1070   82.9300    9.2440 C.2    72  GLN72       0.2608
     55  OE1       -0.0060   83.3720    9.0490 O.2    72  GLN72      -0.2717
     56  NE2        1.9830   82.7020    8.2490 N.am   72  GLN72      -0.0878
     57  N          7.2920   81.1790   12.9620 N.3   151  ASN151     -0.1226
     58  CA         7.2210   81.2730   11.4990 C.3   151  ASN151      0.1770
     59  C          7.8700   82.6140   11.1110 C.2   151  ASN151      0.2439
     60  O          7.3560   83.6810   11.4910 O.2   151  ASN151     -0.2733
     61  CB         5.7570   81.1430   11.0970 C.3   151  ASN151      0.1168
     62  CG         5.4540   81.2670    9.6020 C.2   151  ASN151      0.2627
     63  OD1        4.2930   81.4070    9.2890 O.2   151  ASN151     -0.2716
     64  ND2        6.4160   81.1710    8.7090 N.am  151  ASN151     -0.0877
     65  N          9.0170   82.5470   10.3870 N.am  152  PRO152     -0.2718
     66  CA         9.6090   83.7410    9.7360 C.3   152  PRO152      0.1535
     67  C          8.6600   84.2500    8.6510 C.2   152  PRO152      0.2598
     68  O          8.1060   83.4430    7.8740 O.2   152  PRO152     -0.2715
     69  CB        10.9370   83.2400    9.1630 C.3   152  PRO152      0.0310
     70  CG        10.7740   81.7540    8.9740 C.3   152  PRO152      0.0237
     71  CD         9.8300   81.3210   10.1460 C.3   152  PRO152      0.0939
     72  N          8.4110   85.5600    8.6330 N.am  153  ILE153     -0.1964
     73  CA         7.3950   86.1370    7.7230 C.3   153  ILE153      0.1727
     74  C          7.9500   87.3910    7.0010 C.2   153  ILE153      0.2617
     75  O          8.3910   88.3520    7.6440 O.2   153  ILE153     -0.2715
     76  CB         6.0710   86.4820    8.4730 C.3   153  ILE153      0.0290
     77  CG1        5.3730   85.1920    8.9670 C.3   153  ILE153      0.0022
     78  CG2        5.1720   87.3850    7.5780 C.3   153  ILE153      0.0023
     79  CD1        4.4710   85.3880   10.2370 C.3   153  ILE153      0.0001
     80  N          7.9510   87.3430    5.6690 N.am  154  GLY154     -0.1940
     81  CA         8.2950   88.4760    4.8230 C.3   154  GLY154      0.2014
     82  C          7.0930   89.1530    4.1750 C.2   154  GLY154      0.2639
     83  O          7.1930   90.2640    3.6950 O.2   154  GLY154     -0.2714
     84  N          5.9350   88.5050    4.1920 N.am  155  GLY155     -0.1954
     85  CA         4.7550   89.0420    3.5430 C.3   155  GLY155      0.1869
     86  C          3.9890   89.9790    4.4650 C.2   155  GLY155      0.2309
     87  O          2.9240   89.6320    4.9680 O.2   155  GLY155     -0.2863
     88  N         13.4360   93.7090    8.5240 N.3   174  VAL174     -0.1245
     89  CA        14.1170   92.4890    8.1740 C.3   174  VAL174      0.1561
     90  C         13.0550   91.4260    7.9400 C.2   174  VAL174      0.2260
     91  O         12.9230   90.9220    6.8380 O.2   174  VAL174     -0.2867
     92  CB        15.1360   92.0580    9.2700 C.3   174  VAL174      0.0252
     93  CG1       15.7820   90.6970    8.9430 C.3   174  VAL174      0.0019
     94  CG2       16.1870   93.2090    9.4930 C.3   174  VAL174      0.0019
     95  N          4.0210   71.2220    8.2180 N.3   186  TYR186     -0.1241
     96  CA         4.2600   70.3810    7.0500 C.3   186  TYR186      0.1605
     97  C          5.7510   70.2080    6.8320 C.2   186  TYR186      0.2264
     98  O          6.4890   71.2000    6.9110 O.2   186  TYR186     -0.2867
     99  CB         3.6720   71.0510    5.8060 C.3   186  TYR186      0.0534
    100  CG         2.1750   71.1210    5.8240 C.ar  186  TYR186     -0.0201
    101  CD1        1.4030   69.9740    6.0930 C.ar  186  TYR186     -0.0009
    102  CD2        1.5160   72.3220    5.5710 C.ar  186  TYR186     -0.0009
    103  CE1        0.0070   70.0240    6.1170 C.ar  186  TYR186      0.0417
    104  CE2        0.1060   72.3880    5.5860 C.ar  186  TYR186      0.0417
    105  CZ        -0.6390   71.2330    5.8590 C.ar  186  TYR186      0.1957
    106  OH        -2.0180   71.2930    5.8800 O.3   186  TYR186     -0.2866
    107  N          9.1510   69.7570    4.7190 N.3   188  SER188     -0.1217
    108  CA         9.5570   70.3700    3.4620 C.3   188  SER188      0.1889
    109  C         10.8670   69.7680    3.0450 C.2   188  SER188      0.2288
    110  O         11.5680   69.1770    3.8690 O.2   188  SER188     -0.2866
    111  CB         9.6910   71.8850    3.6240 C.3   188  SER188      0.2089
    112  OG        10.5210   72.1910    4.7220 O.3   188  SER188     -0.2183
    113  N         14.7190   69.7260    1.0810 N.3   190  ARG190     -0.1245
    114  CA        15.9450   70.4860    0.8410 C.3   190  ARG190      0.1563
    115  C         16.7390   69.8730   -0.3070 C.2   190  ARG190      0.2260
    116  O         16.7170   68.6440   -0.5160 O.2   190  ARG190     -0.2867
    117  CB        16.8040   70.5400    2.1090 C.3   190  ARG190      0.0307
    118  CG        16.1180   71.2250    3.2970 C.3   190  ARG190      0.0489
    119  CD        15.9170   72.7210    2.9940 C.3   190  ARG190      0.2205
    120  NE        15.3900   73.4860    4.1140 N.pl3 190  ARG190     -0.0865
    121  CZ        14.1230   73.5130    4.4860 C.cat 190  ARG190      0.5346
    122  NH1       13.1930   72.8120    3.8310 N.pl3 190  ARG190      0.1354
    123  NH2       13.7800   74.2260    5.5420 N.pl3 190  ARG190      0.1354
@<TRIPOS>BOND
     1   116   115    2
     2   115   114    1
     3   114   113    1
     4   114   117    1
     5   117   118    1
     6   119   118    1
     7   119   120    1
     8   109   108    1
     9   109   110    2
    10   108   111    1
    11   108   107    1
    12    85    84    1
    13    85    86    1
    14   111   112    1
    15    83    82    2
    16   122   121    1
    17   120   121    2
    18    82    84   am
    19    82    81    1
    20    86    87    2
    21   121   123    1
    22    81    80    1
    23    47    45   am
    24   102   104   ar
    25   102   100   ar
    26   104   105   ar
    27    39    37    1
    28    80    74   am
    29    99   100    1
    30    99    96    1
    31   100   101   ar
    32   105   106    1
    33   105   103   ar
    34    46    45    2
    35   101   103   ar
    36    45    44    1
    37    40    41    1
    38    37    38    1
    39    37    36    2
    40    36    35    1
    41    97    98    2
    42    97    96    1
    43    91    90    2
    44    74    75    2
    45    74    73    1
    46    96    95    1
    47    41    44    1
    48    41    42    1
    49    35    34    1
    50    78    76    1
    51    73    76    1
    52    73    72    1
    53    68    67    2
    54    90    89    1
    55    89    88    1
    56    89    92    1
    57    56    54   am
    58    28    27    1
    59    76    77    1
    60    42    43    2
    61    72    67   am
    62    67    66    1
    63    64    62   am
    64    27    24    1
    65    93    92    1
    66    77    79    1
    67    11     9    1
    68    70    69    1
    69    70    71    1
    70    34    33    1
    71    55    54    2
    72    69    66    1
    73    54    53    1
    74    92    94    1
    75    63    62    2
    76    62    61    1
    77    66    65    1
    78    22    20    1
    79    33    30    1
    80    26    25    2
    81    23    24    1
    82    23    14   am
    83    19    20    2
    84    19    18    1
    85    20    21    1
    86    24    25    1
    87     9    10    1
    88     9     8    2
    89    71    65    1
    90    65    59   am
    91    18    17    1
    92    17    16    1
    93    53    52    1
    94    16    13    1
    95    13    14    1
    96    13    12    1
    97     4     3    2
    98    61    58    1
    99    14    15    2
   100    59    60    2
   101    59    58    1
   102     8     7    1
   103    30    29    1
   104    30    31    1
   105    58    57    1
   106    52    49    1
   107    48    49    1
   108     3    12   am
   109     3     2    1
   110    32    31    2
   111     7     6    1
   112    49    50    1
   113     6     5    1
   114     2     5    1
   115     2     1    1
   116    50    51    2
