@<TRIPOS>MOLECULE
tmp/3ge6B00.pdb
 89 86 0 0 0
SMALL
GASTEIGER

@<TRIPOS>ATOM
      1  N         23.2520   86.6430   21.7300 N.3    39  LEU39      -0.1231
      2  CA        24.6080   86.1240   21.8230 C.3    39  LEU39       0.1693
      3  C         25.2440   85.8540   20.4510 C.2    39  LEU39       0.2592
      4  O         26.4740   85.5940   20.3410 O.2    39  LEU39      -0.2718
      5  CB        24.5840   84.8640   22.6710 C.3    39  LEU39       0.0284
      6  CG        24.0690   84.9830   24.1050 C.3    39  LEU39       0.0019
      7  CD1       24.0690   83.5960   24.7860 C.3    39  LEU39       0.0001
      8  CD2       24.9340   86.0010   24.9280 C.3    39  LEU39       0.0001
      9  N         24.4140   85.9310   19.3920 N.am   40  ALA40      -0.1966
     10  CA        24.8490   85.8250   17.9820 C.3    40  ALA40       0.1713
     11  C         26.0170   86.7680   17.6770 C.2    40  ALA40       0.2458
     12  O         26.0930   87.8480   18.2520 O.2    40  ALA40      -0.2730
     13  CB        23.6890   86.1680   17.0690 C.3    40  ALA40       0.0333
     14  N         26.8710   86.3900   16.7190 N.am   41  PRO41      -0.2716
     15  CA        27.9610   87.2340   16.2580 C.3    41  PRO41       0.1536
     16  C         27.4400   88.3220   15.3140 C.2    41  PRO41       0.2599
     17  O         26.3310   88.2160   14.7580 O.2    41  PRO41      -0.2715
     18  CB        28.8780   86.2490   15.4900 C.3    41  PRO41       0.0310
     19  CG        27.9220   85.1960   14.9350 C.3    41  PRO41       0.0237
     20  CD        26.7700   85.1360   15.9250 C.3    41  PRO41       0.0939
     21  N         28.2550   89.3490   15.1280 N.am   42  SER42      -0.1936
     22  CA        27.9870   90.4300   14.1600 C.3    42  SER42       0.2055
     23  C         29.3140   91.1360   13.7940 C.2    42  SER42       0.2644
     24  O         30.2980   91.0810   14.5550 O.2    42  SER42      -0.2714
     25  CB        26.9820   91.4750   14.7220 C.3    42  SER42       0.2130
     26  OG        27.4890   92.1100   15.9030 O.3    42  SER42      -0.2179
     27  N         29.3560   91.7440   12.6110 N.am   43  SER43      -0.1935
     28  CA        30.5400   92.5020   12.1860 C.3    43  SER43       0.2055
     29  C         30.9120   93.5100   13.2880 C.2    43  SER43       0.2643
     30  O         30.0500   94.2570   13.7650 O.2    43  SER43      -0.2714
     31  CB        30.2960   93.2410   10.8680 C.3    43  SER43       0.2130
     32  OG        30.2660   92.3170    9.7770 O.3    43  SER43      -0.2179
     33  N         32.1970   93.4690   13.6710 N.am   44  VAL44      -0.1963
     34  CA        32.8130   94.2370   14.7780 C.3    44  VAL44       0.1727
     35  C         32.0170   94.2460   16.1100 C.2    44  VAL44       0.2616
     36  O         32.1660   95.1500   16.9390 O.2    44  VAL44      -0.2715
     37  CB        33.2570   95.6940   14.3150 C.3    44  VAL44       0.0290
     38  CG1       34.3200   95.5960   13.1820 C.3    44  VAL44       0.0023
     39  CG2       32.0570   96.5590   13.9120 C.3    44  VAL44       0.0023
     40  N         31.2150   93.2130   16.3250 N.am   45  ASN45      -0.1972
     41  CA        30.3120   93.1510   17.4360 C.3    45  ASN45       0.1688
     42  C         29.3570   94.3580   17.5740 C.2    45  ASN45       0.2292
     43  O         29.0030   94.7550   18.6910 O.2    45  ASN45      -0.2864
     44  CB        31.0880   92.9760   18.7490 C.3    45  ASN45       0.1181
     45  CG        30.2250   92.4610   19.8630 C.2    45  ASN45       0.2629
     46  OD1       29.2260   91.7730   19.6340 O.2    45  ASN45      -0.2716
     47  ND2       30.5860   92.8310   21.0960 N.am   45  ASN45      -0.0877
     48  N         32.2150   98.7330   23.3930 N.3    95  TYR95      -0.1241
     49  CA        33.6110   98.4420   23.7430 C.3    95  TYR95       0.1605
     50  C         33.9370   99.0140   25.1480 C.2    95  TYR95       0.2264
     51  O         34.7030   98.4100   25.9000 O.2    95  TYR95      -0.2867
     52  CB        34.5600   98.9690   22.6300 C.3    95  TYR95       0.0534
     53  CG        34.5710   98.0820   21.3570 C.ar   95  TYR95      -0.0201
     54  CD1       33.3800   97.7350   20.7040 C.ar   95  TYR95      -0.0009
     55  CD2       35.7660   97.5570   20.8480 C.ar   95  TYR95      -0.0009
     56  CE1       33.3800   96.9250   19.5700 C.ar   95  TYR95       0.0417
     57  CE2       35.7750   96.7520   19.7070 C.ar   95  TYR95       0.0417
     58  CZ        34.5670   96.4320   19.0730 C.ar   95  TYR95       0.1957
     59  OH        34.5450   95.6010   17.9600 O.3    95  TYR95      -0.2866
     60  N         25.4480   94.3470    5.2660 N.3   129  SER129     -0.1217
     61  CA        26.0590   93.8150    6.4690 C.3   129  SER129      0.1889
     62  C         25.0330   93.6570    7.5920 C.2   129  SER129      0.2288
     63  O         24.9720   92.6250    8.2450 O.2   129  SER129     -0.2866
     64  CB        27.1950   94.7320    6.8960 C.3   129  SER129      0.2089
     65  OG        27.6830   94.4020    8.1890 O.3   129  SER129     -0.2183
     66  N         22.6640   90.7510    6.8050 N.3   132  ILE132     -0.1231
     67  CA        23.3140   89.4600    7.1580 C.3   132  ILE132      0.1692
     68  C         23.2460   89.2050    8.6550 C.2   132  ILE132      0.2592
     69  O         22.7900   88.1370    9.0580 O.2   132  ILE132     -0.2718
     70  CB        24.7590   89.3890    6.6160 C.3   132  ILE132      0.0266
     71  CG1       24.7090   89.3760    5.0530 C.3   132  ILE132      0.0019
     72  CG2       25.5420   88.1730    7.2450 C.3   132  ILE132      0.0020
     73  CD1       26.0250   89.7970    4.3600 C.3   132  ILE132      0.0001
     74  N         23.6750   90.1810    9.4730 N.am  133  ASP133     -0.1974
     75  CA        23.6780   90.0460   10.9420 C.3   133  ASP133      0.1709
     76  C         22.2660   89.8500   11.5030 C.2   133  ASP133      0.2293
     77  O         22.0710   89.0720   12.4350 O.2   133  ASP133     -0.2864
     78  CB        24.3770   91.2350   11.6200 C.3   133  ASP133      0.1436
     79  CG        25.8900   91.3330   11.2640 C.2   133  ASP133      0.3671
     80  OD1       26.4100   90.3900   10.6200 O.co2 133  ASP133     -0.2456
     81  OD2       26.5530   92.3670   11.6070 O.co2 133  ASP133     -0.2456
     82  N         21.4250   86.3250   11.0450 N.3   136  LEU136     -0.1245
     83  CA        22.1290   85.5540   12.0610 C.3   136  LEU136      0.1561
     84  C         21.3360   85.5060   13.3750 C.2   136  LEU136      0.2260
     85  O         21.0330   84.4140   13.8730 O.2   136  LEU136     -0.2867
     86  CB        23.5540   86.1090   12.2970 C.3   136  LEU136      0.0270
     87  CG        24.5870   85.9940   11.1560 C.3   136  LEU136      0.0019
     88  CD1       25.8980   86.7960   11.5240 C.3   136  LEU136      0.0001
     89  CD2       24.8610   84.5230   10.8200 C.3   136  LEU136      0.0001
@<TRIPOS>BOND
     1    73    71    1
     2    71    70    1
     3    60    61    1
     4    61    64    1
     5    61    62    1
     6    70    67    1
     7    70    72    1
     8    66    67    1
     9    64    65    1
    10    67    68    1
    11    62    63    2
    12    68    69    2
    13    68    74   am
    14    74    75    1
    15    32    31    1
    16    80    79   ar
    17    89    87    1
    18    31    28    1
    19    75    76    1
    20    75    78    1
    21    82    83    1
    22    87    88    1
    23    87    86    1
    24    79    81   ar
    25    79    78    1
    26    76    77    2
    27    83    86    1
    28    83    84    1
    29    28    27    1
    30    28    29    1
    31    27    23   am
    32    38    37    1
    33    29    33   am
    34    29    30    2
    35    84    85    2
    36    33    34    1
    37    23    22    1
    38    23    24    2
    39    39    37    1
    40    22    25    1
    41    22    21    1
    42    37    34    1
    43    25    26    1
    44    17    16    2
    45    34    35    1
    46    19    18    1
    47    19    20    1
    48    21    16   am
    49    16    15    1
    50    18    15    1
    51    20    14    1
    52    35    40   am
    53    35    36    2
    54    15    14    1
    55    40    41    1
    56    14    11   am
    57    13    10    1
    58    41    42    1
    59    41    44    1
    60    42    43    2
    61    11    10    1
    62    11    12    2
    63    59    58    1
    64    10     9    1
    65    44    45    1
    66    58    56   ar
    67    58    57   ar
    68     9     3   am
    69    56    54   ar
    70    46    45    2
    71    57    55   ar
    72    45    47   am
    73     4     3    2
    74     3     2    1
    75    54    53   ar
    76    55    53   ar
    77    53    52    1
    78     1     2    1
    79     2     5    1
    80    52    49    1
    81     5     6    1
    82    48    49    1
    83    49    50    1
    84     6     7    1
    85     6     8    1
    86    50    51    2
