@<TRIPOS>MOLECULE
tmp/3geeA01.pdb
 97 95 0 0 0
SMALL
GASTEIGER

@<TRIPOS>ATOM
      1  N         -5.7920   -4.9800   28.3140 N.3    18  ALA18      -0.1231
      2  CA        -6.4980   -5.1790   29.5700 C.3    18  ALA18       0.1694
      3  C         -6.4560   -3.9210   30.4360 C.2    18  ALA18       0.2591
      4  O         -7.4720   -3.5100   30.9910 O.2    18  ALA18      -0.2718
      5  CB        -5.9110   -6.3410   30.3120 C.3    18  ALA18       0.0304
      6  N         -5.2890   -3.2990   30.5440 N.am   19  LEU19      -0.1980
      7  CA        -5.1390   -2.1850   31.4590 C.3    19  LEU19       0.1596
      8  C         -4.3550   -1.0540   30.8470 C.2    19  LEU19       0.2287
      9  O         -3.5250   -1.2760   29.9700 O.2    19  LEU19      -0.2864
     10  CB        -4.4120   -2.6380   32.7250 C.3    19  LEU19       0.0297
     11  CG        -4.9310   -3.8260   33.5230 C.3    19  LEU19       0.0022
     12  CD1       -3.8820   -4.1960   34.5280 C.3    19  LEU19       0.0001
     13  CD2       -6.2480   -3.4950   34.1870 C.3    19  LEU19       0.0001
     14  N        -13.5630    6.0180   46.8770 N.3    39  LYS39      -0.1231
     15  CA       -13.2150    4.6910   47.3940 C.3    39  LYS39       0.1693
     16  C        -14.4720    3.8380   47.5220 C.2    39  LYS39       0.2592
     17  O        -15.4880    4.3010   48.0420 O.2    39  LYS39      -0.2718
     18  CB       -12.4980    4.8270   48.7390 C.3    39  LYS39       0.0285
     19  CG       -11.5300    3.7010   49.0720 C.3    39  LYS39       0.0035
     20  CD       -10.2440    4.2750   49.6740 C.3    39  LYS39       0.0206
     21  CE        -9.4840    3.2670   50.5320 C.3    39  LYS39       0.1093
     22  NZ        -9.0960    2.0280   49.7940 N.3    39  LYS39      -0.1314
     23  N        -14.4060    2.6030   47.0330 N.am   40  VAL40      -0.1966
     24  CA       -15.5990    1.7560   46.9220 C.3    40  VAL40       0.1727
     25  C        -16.1060    1.2430   48.2770 C.2    40  VAL40       0.2616
     26  O        -17.3080    1.2970   48.5550 O.2    40  VAL40      -0.2715
     27  CB       -15.3860    0.5820   45.9320 C.3    40  VAL40       0.0290
     28  CG1      -14.4280   -0.4390   46.5150 C.3    40  VAL40       0.0023
     29  CG2      -16.7160   -0.0670   45.5620 C.3    40  VAL40       0.0023
     30  N        -15.1920    0.7410   49.1050 N.am   41  HIS41      -0.1973
     31  CA       -15.5280    0.3480   50.4710 C.3    41  HIS41       0.1656
     32  C        -14.8710    1.3200   51.4440 C.2    41  HIS41       0.2291
     33  O        -13.6450    1.5020   51.4340 O.2    41  HIS41      -0.2864
     34  CB       -15.1110   -1.0980   50.7490 C.3    41  HIS41       0.0771
     35  CG       -15.8280   -2.1020   49.9010 C.ar   41  HIS41       0.0820
     36  ND1      -15.3780   -2.4790   48.6540 N.ar   41  HIS41      -0.2267
     37  CD2      -16.9670   -2.8020   50.1160 C.ar   41  HIS41       0.1154
     38  CE1      -16.2060   -3.3690   48.1370 C.ar   41  HIS41       0.1986
     39  NE2      -17.1790   -3.5830   49.0050 N.ar   41  HIS41      -0.2212
     40  N         -8.7690    0.8900   45.6010 N.3    56  PHE56      -0.1241
     41  CA        -9.7470    0.4800   44.6110 C.3    56  PHE56       0.1605
     42  C        -11.0090    1.3100   44.7350 C.2    56  PHE56       0.2264
     43  O        -11.7220    1.2260   45.7370 O.2    56  PHE56      -0.2867
     44  CB       -10.0740   -1.0090   44.7550 C.3    56  PHE56       0.0534
     45  CG       -11.2170   -1.4520   43.9060 C.ar   56  PHE56      -0.0203
     46  CD1      -11.1080   -1.4680   42.5220 C.ar   56  PHE56      -0.0042
     47  CD2      -12.4110   -1.8390   44.4800 C.ar   56  PHE56      -0.0042
     48  CE1      -12.1790   -1.8700   41.7290 C.ar   56  PHE56      -0.0003
     49  CE2      -13.4850   -2.2460   43.6960 C.ar   56  PHE56      -0.0003
     50  CZ       -13.3690   -2.2630   42.3200 C.ar   56  PHE56      -0.0000
     51  N        -13.9480    1.9010   36.7650 N.3    68  GLU68      -0.1231
     52  CA       -13.5060    1.2930   38.0000 C.3    68  GLU68       0.1699
     53  C        -11.9990    1.2010   37.9010 C.2    68  GLU68       0.2592
     54  O        -11.4830    0.5170   37.0210 O.2    68  GLU68      -0.2718
     55  CB       -14.0880   -0.1040   38.0910 C.3    68  GLU68       0.0402
     56  CG       -14.5400   -0.5100   39.4610 C.3    68  GLU68       0.1161
     57  CD       -15.3540   -1.7850   39.4200 C.2    68  GLU68       0.3649
     58  OE1      -14.9010   -2.7500   38.7580 O.co2  68  GLU68      -0.2457
     59  OE2      -16.4440   -1.8140   40.0420 O.co2  68  GLU68      -0.2457
     60  N        -11.2860    1.8930   38.7830 N.am   69  VAL69      -0.1966
     61  CA        -9.8180    1.9390   38.7070 C.3    69  VAL69       0.1727
     62  C         -9.1400    1.5260   40.0120 C.2    69  VAL69       0.2616
     63  O         -9.8140    1.1600   40.9770 O.2    69  VAL69      -0.2715
     64  CB        -9.3130    3.3380   38.2810 C.3    69  VAL69       0.0290
     65  CG1      -10.0110    3.7870   37.0000 C.3    69  VAL69       0.0023
     66  CG2       -9.5190    4.3600   39.3960 C.3    69  VAL69       0.0023
     67  N         -7.8080    1.5630   40.0160 N.am   70  ILE70      -0.1977
     68  CA        -7.0190    1.4230   41.2370 C.3    70  ILE70       0.1596
     69  C         -6.0420    2.5850   41.3210 C.2    70  ILE70       0.2287
     70  O         -5.2100    2.7800   40.4220 O.2    70  ILE70      -0.2864
     71  CB        -6.2860    0.0620   41.3250 C.3    70  ILE70       0.0276
     72  CG1       -7.2830   -1.0330   41.7110 C.3    70  ILE70       0.0022
     73  CG2       -5.1260    0.1250   42.3250 C.3    70  ILE70       0.0022
     74  CD1       -6.6730   -2.3900   41.9920 C.3    70  ILE70       0.0001
     75  N         -4.6490    3.1880   37.3250 N.3    89  THR89      -0.1203
     76  CA        -4.5900    2.2040   36.2710 C.3    89  THR89       0.1994
     77  C         -6.0120    1.7200   36.0300 C.2    89  THR89       0.2618
     78  O         -6.6540    1.1880   36.9350 O.2    89  THR89      -0.2717
     79  CB        -3.5740    1.0530   36.5180 C.3    89  THR89       0.1784
     80  OG1       -4.2590   -0.1980   36.6020 O.3    89  THR89      -0.2211
     81  CG2       -2.7250    1.2990   37.7590 C.3    89  THR89       0.0376
     82  N         -6.5000    1.9440   34.8090 N.am   90  CYS90      -0.1955
     83  CA        -7.8970    1.6870   34.4480 C.3    90  CYS90       0.1843
     84  C         -7.9940    0.6190   33.3710 C.2    90  CYS90       0.2625
     85  O         -6.9710    0.0910   32.9360 O.2    90  CYS90      -0.2714
     86  CB        -8.5180    2.9700   33.9230 C.3    90  CYS90       0.0997
     87  SG        -7.6720    3.5660   32.4610 S.3    90  CYS90      -0.0797
     88  N         -9.2190    0.3080   32.9420 N.am   91  HIS91      -0.1973
     89  CA        -9.4340   -0.6180   31.8230 C.3    91  HIS91       0.1656
     90  C         -8.8200   -0.0670   30.5410 C.2    91  HIS91       0.2291
     91  O         -8.9680    1.1180   30.2260 O.2    91  HIS91      -0.2864
     92  CB       -10.9160   -0.9170   31.6280 C.3    91  HIS91       0.0771
     93  CG       -11.5040   -1.7580   32.7140 C.ar   91  HIS91       0.0820
     94  ND1      -12.3140   -1.2400   33.7020 N.ar   91  HIS91      -0.2267
     95  CD2      -11.3890   -3.0810   32.9770 C.ar   91  HIS91       0.1154
     96  CE1      -12.6830   -2.2100   34.5180 C.ar   91  HIS91       0.1986
     97  NE2      -12.1360   -3.3380   34.1010 N.ar   91  HIS91      -0.2212
@<TRIPOS>BOND
     1     1     2    1
     2     2     5    1
     3     2     3    1
     4     9     8    2
     5    91    90    2
     6     3     6   am
     7     3     4    2
     8    90    89    1
     9     6     7    1
    10     8     7    1
    11     7    10    1
    12    92    89    1
    13    92    93    1
    14    89    88    1
    15    87    86    1
    16    93    95   ar
    17    93    94   ar
    18    10    11    1
    19    85    84    2
    20    88    84   am
    21    95    97   ar
    22    84    83    1
    23    11    13    1
    24    11    12    1
    25    94    96   ar
    26    86    83    1
    27    97    96   ar
    28    83    82    1
    29    82    77   am
    30    77    76    1
    31    77    78    2
    32    76    79    1
    33    76    75    1
    34    79    80    1
    35    79    81    1
    36    51    52    1
    37    65    64    1
    38    54    53    2
    39    53    52    1
    40    53    60   am
    41    52    55    1
    42    55    56    1
    43    64    61    1
    44    64    66    1
    45    61    60    1
    46    61    62    1
    47    58    57   ar
    48    57    56    1
    49    57    59   ar
    50    62    67   am
    51    62    63    2
    52    67    68    1
    53    70    69    2
    54    68    69    1
    55    68    71    1
    56    71    72    1
    57    71    73    1
    58    72    74    1
    59    48    50   ar
    60    48    46   ar
    61    50    49   ar
    62    46    45   ar
    63    49    47   ar
    64    45    47   ar
    65    45    44    1
    66    41    42    1
    67    41    44    1
    68    41    40    1
    69    42    43    2
    70    29    27    1
    71    27    28    1
    72    27    24    1
    73    14    15    1
    74    24    23    1
    75    24    25    1
    76    23    16   am
    77    15    16    1
    78    15    18    1
    79    16    17    2
    80    38    36   ar
    81    38    39   ar
    82    25    26    2
    83    25    30   am
    84    36    35   ar
    85    18    19    1
    86    39    37   ar
    87    19    20    1
    88    30    31    1
    89    20    21    1
    90    22    21    1
    91    35    37   ar
    92    35    34    1
    93    31    34    1
    94    31    32    1
    95    33    32    2
