@<TRIPOS>MOLECULE
tmp/3geeA00.pdb
 101 98 0 0 0
SMALL
GASTEIGER

@<TRIPOS>ATOM
      1  N         21.3960    5.8130  -10.5200 N.3   231  PRO231     -0.2102
      2  CA        20.0410    5.3280  -10.7840 C.3   231  PRO231      0.1504
      3  C         20.0020    3.9780  -11.5020 C.2   231  PRO231      0.2576
      4  O         20.8510    3.7010  -12.3560 O.2   231  PRO231     -0.2718
      5  CB        19.4580    6.4180  -11.6820 C.3   231  PRO231      0.0282
      6  CG        20.1260    7.6540  -11.2280 C.3   231  PRO231      0.0208
      7  CD        21.5200    7.2540  -10.8250 C.3   231  PRO231      0.0893
      8  N         19.0240    3.1530  -11.1290 N.am  232  ASN232     -0.1961
      9  CA        18.7810    1.8330  -11.7310 C.3   232  ASN232      0.1819
     10  C         19.8000    0.7590  -11.3180 C.2   232  ASN232      0.2621
     11  O         19.8200   -0.3380  -11.8800 O.2   232  ASN232     -0.2715
     12  CB        18.6560    1.9390  -13.2620 C.3   232  ASN232      0.1195
     13  CG        17.6870    0.9270  -13.8450 C.2   232  ASN232      0.2630
     14  OD1       18.0050   -0.2540  -13.9780 O.2   232  ASN232     -0.2716
     15  ND2       16.4990    1.3940  -14.2150 N.am  232  ASN232     -0.0877
     16  N         20.6270    1.0740  -10.3210 N.am  233  ALA233     -0.1963
     17  CA        21.6120    0.1250   -9.7970 C.3   233  ALA233      0.1728
     18  C         20.9620   -1.0630   -9.0870 C.2   233  ALA233      0.2617
     19  O         21.4780   -2.1800   -9.1330 O.2   233  ALA233     -0.2715
     20  CB        22.5860    0.8280   -8.8610 C.3   233  ALA233      0.0334
     21  N         19.8300   -0.8130   -8.4330 N.am  234  GLY234     -0.1940
     22  CA        19.1430   -1.8360   -7.6500 C.3   234  GLY234      0.2014
     23  C         19.0390   -1.4640   -6.1840 C.2   234  GLY234      0.2639
     24  O         18.7530   -2.3170   -5.3400 O.2   234  GLY234     -0.2714
     25  N         19.2630   -0.1820   -5.8900 N.am  235  LYS235     -0.1963
     26  CA        19.2780    0.3310   -4.5190 C.3   235  LYS235      0.1728
     27  C         17.9780    0.0400   -3.7790 C.2   235  LYS235      0.2617
     28  O         17.9940   -0.5090   -2.6770 O.2   235  LYS235     -0.2715
     29  CB        19.5740    1.8330   -4.5050 C.3   235  LYS235      0.0311
     30  CG        20.9310    2.2070   -5.0820 C.3   235  LYS235      0.0038
     31  CD        21.1710    3.7120   -5.0500 C.3   235  LYS235      0.0206
     32  CE        20.2990    4.4460   -6.0630 C.3   235  LYS235      0.1093
     33  NZ        20.7220    5.8580   -6.2610 N.3   235  LYS235     -0.1314
     34  N         16.8560    0.3970   -4.3960 N.am  236  SER236     -0.1936
     35  CA        15.5440    0.1420   -3.8170 C.3   236  SER236      0.2055
     36  C         15.3100   -1.3570   -3.6100 C.2   236  SER236      0.2643
     37  O         14.8560   -1.7720   -2.5450 O.2   236  SER236     -0.2714
     38  CB        14.4510    0.7470   -4.6990 C.3   236  SER236      0.2130
     39  OG        13.1710    0.5710   -4.1230 O.3   236  SER236     -0.2179
     40  N         15.6500   -2.1550   -4.6220 N.am  237  THR237     -0.1950
     41  CA        15.4360   -3.6080   -4.6100 C.3   237  THR237      0.1897
     42  C         16.2120   -4.3140   -3.4990 C.2   237  THR237      0.2313
     43  O         15.7230   -5.2830   -2.9180 O.2   237  THR237     -0.2863
     44  CB        15.8110   -4.2510   -5.9670 C.3   237  THR237      0.1794
     45  OG1       15.3070   -3.4480   -7.0410 O.3   237  THR237     -0.2208
     46  CG2       15.2350   -5.6570   -6.0810 C.3   237  THR237      0.0378
     47  N         25.3980   -5.9980   -8.4900 N.3   302  ASN302     -0.1225
     48  CA        24.0070   -6.4440   -8.5700 C.3   302  ASN302      0.1785
     49  C         23.6440   -7.0640   -9.9240 C.2   302  ASN302      0.2597
     50  O         24.3900   -6.9360  -10.8970 O.2   302  ASN302     -0.2718
     51  CB        23.0610   -5.2840   -8.2390 C.3   302  ASN302      0.1169
     52  CG        21.6630   -5.7510   -7.8660 C.2   302  ASN302      0.2627
     53  OD1       21.4700   -6.8760   -7.4010 O.2   302  ASN302     -0.2716
     54  ND2       20.6780   -4.8840   -8.0690 N.am  302  ASN302     -0.0877
     55  N         22.4930   -7.7360   -9.9710 N.am  303  LYS303     -0.1980
     56  CA        21.9650   -8.3540  -11.1930 C.3   303  LYS303      0.1596
     57  C         22.8010   -9.5600  -11.6410 C.2   303  LYS303      0.2287
     58  O         23.0610   -9.7490  -12.8310 O.2   303  LYS303     -0.2864
     59  CB        21.8090   -7.3200  -12.3220 C.3   303  LYS303      0.0298
     60  CG        20.8580   -6.1740  -11.9980 C.3   303  LYS303      0.0038
     61  CD        20.5260   -5.3650  -13.2430 C.3   303  LYS303      0.0206
     62  CE        19.4390   -4.3280  -12.9750 C.3   303  LYS303      0.1093
     63  NZ        19.9310   -3.1710  -12.1750 N.3   303  LYS303     -0.1314
     64  N         21.8310  -12.6100  -11.3820 N.3   305  ASP305     -0.1225
     65  CA        20.9170  -13.6430  -11.8780 C.3   305  ASP305      0.1805
     66  C         20.9680  -13.8290  -13.3990 C.2   305  ASP305      0.2597
     67  O         20.7090  -14.9250  -13.8990 O.2   305  ASP305     -0.2718
     68  CB        19.4810  -13.3990  -11.3890 C.3   305  ASP305      0.1424
     69  CG        19.0100  -11.9740  -11.6240 C.2   305  ASP305      0.3668
     70  OD1       18.6460  -11.6430  -12.7730 O.co2 305  ASP305     -0.2456
     71  OD2       18.9880  -11.1890  -10.6510 O.co2 305  ASP305     -0.2456
     72  N         21.2990  -12.7590  -14.1240 N.am  306  ARG306     -0.1979
     73  CA        21.5800  -12.8540  -15.5580 C.3   306  ARG306      0.1597
     74  C         23.0890  -12.8160  -15.8070 C.2   306  ARG306      0.2287
     75  O         23.8540  -12.3940  -14.9370 O.2   306  ARG306     -0.2864
     76  CB        20.8540  -11.7600  -16.3580 C.3   306  ARG306      0.0334
     77  CG        21.5220  -10.3800  -16.3620 C.3   306  ARG306      0.0492
     78  CD        20.9670   -9.4640  -15.2770 C.3   306  ARG306      0.2205
     79  NE        19.5580   -9.1330  -15.4930 N.pl3 306  ARG306     -0.0865
     80  CZ        19.1220   -8.0730  -16.1720 C.cat 306  ARG306      0.5346
     81  NH1       17.8180   -7.8680  -16.3090 N.pl3 306  ARG306      0.1354
     82  NH2       19.9810   -7.2180  -16.7140 N.pl3 306  ARG306      0.1354
     83  N         22.1460  -10.8150   -6.3930 N.3   329  SER329     -0.1202
     84  CA        20.8820  -10.6900   -7.0950 C.3   329  SER329      0.2020
     85  C         19.8740  -10.1490   -6.0910 C.2   329  SER329      0.2619
     86  O         19.3220  -10.9010   -5.2880 O.2   329  SER329     -0.2717
     87  CB        20.4220  -12.0370   -7.6520 C.3   329  SER329      0.2103
     88  OG        19.1110  -11.9370   -8.1770 O.3   329  SER329     -0.2182
     89  N         19.6570   -8.8370   -6.1300 N.am  330  ALA330     -0.1965
     90  CA        18.7470   -8.1650   -5.1980 C.3   330  ALA330      0.1728
     91  C         17.2830   -8.5530   -5.4130 C.2   330  ALA330      0.2616
     92  O         16.4660   -8.4470   -4.4970 O.2   330  ALA330     -0.2715
     93  CB        18.9190   -6.6530   -5.2850 C.3   330  ALA330      0.0334
     94  N         16.9630   -9.0010   -6.6250 N.am  331  LEU331     -0.1977
     95  CA        15.6090   -9.4220   -6.9600 C.3   331  LEU331      0.1596
     96  C         15.3450  -10.8420   -6.4580 C.2   331  LEU331      0.2287
     97  O         14.3730  -11.0820   -5.7400 O.2   331  LEU331     -0.2864
     98  CB        15.3810   -9.3280   -8.4730 C.3   331  LEU331      0.0297
     99  CG        13.9620   -9.1710   -9.0290 C.3   331  LEU331      0.0022
    100  CD1       13.3600   -7.8170   -8.6630 C.3   331  LEU331      0.0001
    101  CD2       13.9820   -9.3470  -10.5380 C.3   331  LEU331      0.0001
@<TRIPOS>BOND
     1    82    80    1
     2    77    76    1
     3    77    78    1
     4    76    73    1
     5    81    80    1
     6    80    79    2
     7    74    73    1
     8    74    75    2
     9    73    72    1
    10    79    78    1
    11    15    13   am
    12    72    66   am
    13    14    13    2
    14    67    66    2
    15    13    12    1
    16    66    65    1
    17    12     9    1
    18    61    62    1
    19    61    60    1
    20    62    63    1
    21    58    57    2
    22    70    69   ar
    23     4     3    2
    24    59    60    1
    25    59    56    1
    26    11    10    2
    27    65    68    1
    28    65    64    1
    29     9    10    1
    30     9     8    1
    31     5     6    1
    32     5     2    1
    33    57    56    1
    34    69    68    1
    35    69    71   ar
    36     3     8   am
    37     3     2    1
    38    10    16   am
    39     6     7    1
    40    56    55    1
    41    50    49    2
    42     7     1    1
    43     2     1    1
    44   101    99    1
    45    16    17    1
    46    55    49   am
    47    49    48    1
    48    17    18    1
    49    17    20    1
    50    19    18    2
    51    18    21   am
    52    99   100    1
    53    99    98    1
    54    48    47    1
    55    48    51    1
    56    98    95    1
    57    21    22    1
    58    51    52    1
    59    88    87    1
    60    54    52   am
    61    52    53    2
    62    87    84    1
    63    22    23    1
    64    84    83    1
    65    84    85    1
    66    45    44    1
    67    95    94    1
    68    95    96    1
    69    94    91   am
    70    96    97    2
    71    33    32    1
    72    23    25   am
    73    23    24    2
    74    89    85   am
    75    89    90    1
    76    85    86    2
    77    46    44    1
    78    32    31    1
    79    44    41    1
    80    25    26    1
    81    91    90    1
    82    91    92    2
    83    93    90    1
    84    30    31    1
    85    30    29    1
    86    38    39    1
    87    38    35    1
    88    40    41    1
    89    40    36   am
    90    41    42    1
    91    26    29    1
    92    26    27    1
    93    34    35    1
    94    34    27   am
    95    35    36    1
    96    27    28    2
    97    36    37    2
    98    42    43    2
