@<TRIPOS>MOLECULE
tmp/3gegA00.pdb
 228 220 0 0 0
SMALL
GASTEIGER

@<TRIPOS>ATOM
      1  N         53.2100   78.1090   65.3490 N.3     8  GLY8       -0.1225
      2  CA        54.1730   79.1380   65.0000 C.3     8  GLY8        0.1811
      3  C         53.5070   80.2840   64.2580 C.2     8  GLY8        0.2280
      4  O         54.0690   80.8240   63.3110 O.2     8  GLY8       -0.2866
      5  N         54.6790   84.8220   63.9150 N.3    11  HIS11      -0.1226
      6  CA        55.6460   85.5350   63.0910 C.3    11  HIS11       0.1752
      7  C         55.8580   84.8340   61.7570 C.2    11  HIS11       0.2597
      8  O         55.4630   83.6830   61.5810 O.2    11  HIS11      -0.2718
      9  CB        56.9880   85.6400   63.8230 C.3    11  HIS11       0.0759
     10  CG        57.9480   86.6010   63.1920 C.ar   11  HIS11       0.0818
     11  ND1       59.0290   86.1920   62.4390 N.ar   11  HIS11      -0.2268
     12  CD2       57.9860   87.9560   63.1970 C.ar   11  HIS11       0.1154
     13  CE1       59.6920   87.2520   62.0110 C.ar   11  HIS11       0.1986
     14  NE2       59.0790   88.3340   62.4560 N.ar   11  HIS11      -0.2212
     15  N         56.4880   85.5450   60.8270 N.am   12  GLY12      -0.1942
     16  CA        56.9100   84.9840   59.5560 C.3    12  GLY12       0.2014
     17  C         55.8270   84.3080   58.7360 C.2    12  GLY12       0.2638
     18  O         54.7680   84.8820   58.4740 O.2    12  GLY12      -0.2714
     19  N         56.1100   83.0800   58.3130 N.am   13  ILE13      -0.1977
     20  CA        55.1960   82.3290   57.4660 C.3    13  ILE13       0.1596
     21  C         53.8760   82.0480   58.1830 C.2    13  ILE13       0.2287
     22  O         52.8050   82.2350   57.6200 O.2    13  ILE13      -0.2864
     23  CB        55.8420   81.0130   56.9810 C.3    13  ILE13       0.0276
     24  CG1       56.9870   81.3190   56.0100 C.3    13  ILE13       0.0022
     25  CG2       54.8030   80.1120   56.3230 C.3    13  ILE13       0.0022
     26  CD1       57.8570   80.1260   55.6790 C.3    13  ILE13       0.0001
     27  N         49.1880   78.6750   68.1660 N.3    31  ILE31      -0.1231
     28  CA        50.0930   78.5140   69.2970 C.3    31  ILE31       0.1692
     29  C         51.4720   79.0380   68.9190 C.2    31  ILE31       0.2592
     30  O         51.9110   78.9020   67.7740 O.2    31  ILE31      -0.2718
     31  CB        50.2010   77.0380   69.7570 C.3    31  ILE31       0.0266
     32  CG1       51.1510   76.9210   70.9530 C.3    31  ILE31       0.0019
     33  CG2       50.6780   76.1500   68.6130 C.3    31  ILE31       0.0020
     34  CD1       51.1890   75.5370   71.5770 C.3    31  ILE31       0.0001
     35  N         52.1440   79.6530   69.8840 N.am   32  ASP32      -0.1960
     36  CA        53.4780   80.1830   69.6570 C.3    32  ASP32       0.1840
     37  C         54.1770   80.4220   70.9860 C.2    32  ASP32       0.2622
     38  O         53.5400   80.7120   71.9940 O.2    32  ASP32      -0.2715
     39  CB        53.4150   81.4790   68.8490 C.3    32  ASP32       0.1450
     40  CG        54.7250   81.8000   68.1650 C.2    32  ASP32       0.3671
     41  OD1       55.7380   81.9780   68.8720 O.co2  32  ASP32      -0.2456
     42  OD2       54.7400   81.8740   66.9170 O.co2  32  ASP32      -0.2456
     43  N         55.4960   80.2970   70.9760 N.am   33  ILE33      -0.1963
     44  CA        56.2860   80.4040   72.1900 C.3    33  ILE33       0.1727
     45  C         56.6620   81.8580   72.5110 C.2    33  ILE33       0.2616
     46  O         57.0240   82.1780   73.6440 O.2    33  ILE33      -0.2715
     47  CB        57.5460   79.5290   72.0760 C.3    33  ILE33       0.0290
     48  CG1       57.9540   78.9900   73.4470 C.3    33  ILE33       0.0022
     49  CG2       58.6700   80.2900   71.3810 C.3    33  ILE33       0.0023
     50  CD1       58.9120   77.8240   73.3730 C.3    33  ILE33       0.0001
     51  N         56.5570   82.7340   71.5150 N.am   34  ASP34      -0.1971
     52  CA        56.8910   84.1500   71.6860 C.3    34  ASP34       0.1709
     53  C         55.6610   84.9550   72.1010 C.2    34  ASP34       0.2293
     54  O         54.8850   85.4000   71.2550 O.2    34  ASP34      -0.2864
     55  CB        57.4730   84.7080   70.3870 C.3    34  ASP34       0.1436
     56  CG        58.0000   86.1200   70.5410 C.2    34  ASP34       0.3671
     57  OD1       57.7910   86.7300   71.6140 O.co2  34  ASP34      -0.2456
     58  OD2       58.6250   86.6210   69.5810 O.co2  34  ASP34      -0.2456
     59  N         54.9450   89.1360   71.1590 N.3    37  ARG37      -0.1245
     60  CA        54.7090   89.3000   69.7300 C.3    37  ARG37       0.1563
     61  C         53.3650   88.7030   69.3270 C.2    37  ARG37       0.2260
     62  O         52.6340   89.2810   68.5250 O.2    37  ARG37      -0.2867
     63  CB        55.8360   88.6270   68.9410 C.3    37  ARG37       0.0307
     64  CG        56.0590   89.1650   67.5390 C.3    37  ARG37       0.0489
     65  CD        57.3550   88.6050   66.9540 C.3    37  ARG37       0.2205
     66  NE        57.3980   87.1450   67.0280 N.pl3  37  ARG37      -0.0865
     67  CZ        58.4760   86.4070   66.7760 C.cat  37  ARG37       0.5346
     68  NH1       58.4120   85.0840   66.8710 N.pl3  37  ARG37       0.1354
     69  NH2       59.6190   86.9880   66.4350 N.pl3  37  ARG37       0.1354
     70  N         52.5310   78.7140   74.3190 N.3    53  GLY53      -0.1210
     71  CA        53.0360   77.3890   74.6350 C.3    53  GLY53       0.1956
     72  C         54.0920   76.8630   73.6840 C.2    53  GLY53       0.2612
     73  O         54.2450   77.3550   72.5650 O.2    53  GLY53      -0.2717
     74  N         54.8220   75.8510   74.1450 N.am   54  ASP54      -0.1959
     75  CA        55.8500   75.1890   73.3520 C.3    54  ASP54       0.1840
     76  C         55.2980   73.8770   72.7980 C.2    54  ASP54       0.2621
     77  O         54.9180   72.9880   73.5620 O.2    54  ASP54      -0.2715
     78  CB        57.0830   74.9210   74.2270 C.3    54  ASP54       0.1450
     79  CG        58.2760   74.4210   73.4310 C.2    54  ASP54       0.3671
     80  OD1       58.0900   73.9380   72.2910 O.co2  54  ASP54      -0.2456
     81  OD2       59.4070   74.5070   73.9520 O.co2  54  ASP54      -0.2456
     82  N         55.2510   73.7570   71.4740 N.am   55  VAL55      -0.1977
     83  CA        54.6880   72.5640   70.8410 C.3    55  VAL55       0.1596
     84  C         55.5060   71.3050   71.1030 C.2    55  VAL55       0.2287
     85  O         55.0660   70.2040   70.7950 O.2    55  VAL55      -0.2864
     86  CB        54.5040   72.7380   69.3140 C.3    55  VAL55       0.0276
     87  CG1       53.5550   73.8880   69.0210 C.3    55  VAL55       0.0022
     88  CG2       55.8500   72.9470   68.6280 C.3    55  VAL55       0.0022
     89  N         53.2710   74.4250   61.1750 N.3    81  ASN81      -0.1225
     90  CA        54.2490   75.3810   60.6710 C.3    81  ASN81       0.1785
     91  C         55.4430   75.5880   61.6010 C.2    81  ASN81       0.2597
     92  O         56.5320   75.9090   61.1470 O.2    81  ASN81      -0.2718
     93  CB        53.5610   76.7210   60.4030 C.3    81  ASN81       0.1169
     94  CG        54.5440   77.8480   60.1650 C.2    81  ASN81       0.2627
     95  OD1       55.1940   77.9040   59.1260 O.2    81  ASN81      -0.2716
     96  ND2       54.6470   78.7620   61.1250 N.am   81  ASN81      -0.0877
     97  N         55.2420   75.4110   62.9010 N.am   82  ALA82      -0.1966
     98  CA        56.2930   75.7150   63.8730 C.3    82  ALA82       0.1728
     99  C         57.5710   74.9030   63.6500 C.2    82  ALA82       0.2616
    100  O         57.5240   73.6960   63.4210 O.2    82  ALA82      -0.2715
    101  CB        55.7810   75.5300   65.3070 C.3    82  ALA82       0.0334
    102  N         58.7090   75.5850   63.7040 N.am   83  CYS83      -0.1954
    103  CA        60.0110   74.9290   63.6830 C.3    83  CYS83       0.1843
    104  C         61.1030   75.9540   63.9330 C.2    83  CYS83       0.2625
    105  O         60.9150   77.1470   63.6850 O.2    83  CYS83      -0.2714
    106  CB        60.2660   74.2050   62.3560 C.3    83  CYS83       0.0997
    107  SG        61.7900   73.2010   62.3390 S.3    83  CYS83      -0.0797
    108  N         62.2390   75.4860   64.4350 N.am   84  ARG84      -0.1977
    109  CA        63.3920   76.3510   64.6250 C.3    84  ARG84       0.1597
    110  C         64.6510   75.6900   64.0760 C.2    84  ARG84       0.2287
    111  O         64.8630   74.4900   64.2530 O.2    84  ARG84      -0.2864
    112  CB        63.5730   76.7070   66.1000 C.3    84  ARG84       0.0334
    113  CG        64.5310   77.8640   66.3290 C.3    84  ARG84       0.0492
    114  CD        64.1950   79.0290   65.4100 C.3    84  ARG84       0.2205
    115  NE        62.9720   79.7160   65.8160 N.pl3  84  ARG84      -0.0865
    116  CZ        62.1270   80.2980   64.9710 C.cat  84  ARG84       0.5346
    117  NH1       62.3580   80.2630   63.6660 N.pl3  84  ARG84       0.1354
    118  NH2       61.0430   80.9030   65.4320 N.pl3  84  ARG84       0.1354
    119  N         64.9680   67.5590   70.7790 N.3   100  TYR100     -0.1241
    120  CA        64.1130   68.7390   70.8490 C.3   100  TYR100      0.1605
    121  C         63.6510   69.2130   69.4690 C.2   100  TYR100      0.2264
    122  O         62.4890   69.5660   69.2880 O.2   100  TYR100     -0.2867
    123  CB        64.8060   69.8810   71.5930 C.3   100  TYR100      0.0534
    124  CG        63.9230   71.0940   71.7600 C.ar  100  TYR100     -0.0201
    125  CD1       62.9410   71.1300   72.7410 C.ar  100  TYR100     -0.0009
    126  CD2       64.0550   72.1960   70.9230 C.ar  100  TYR100     -0.0009
    127  CE1       62.1240   72.2350   72.8960 C.ar  100  TYR100      0.0417
    128  CE2       63.2430   73.3060   71.0700 C.ar  100  TYR100      0.0417
    129  CZ        62.2780   73.3190   72.0560 C.ar  100  TYR100      0.1957
    130  OH        61.4630   74.4200   72.2060 O.3   100  TYR100     -0.2866
    131  N         59.6630   69.4230   68.0860 N.3   104  VAL104     -0.1245
    132  CA        58.9990   70.5820   67.5040 C.3   104  VAL104      0.1561
    133  C         58.5660   70.3120   66.0660 C.2   104  VAL104      0.2260
    134  O         57.4390   70.6160   65.6790 O.2   104  VAL104     -0.2867
    135  CB        59.9220   71.8260   67.5410 C.3   104  VAL104      0.0252
    136  CG1       59.2870   72.9950   66.8010 C.3   104  VAL104      0.0019
    137  CG2       60.2460   72.2030   68.9860 C.3   104  VAL104      0.0019
    138  N         54.3330   72.3570   56.8310 N.3   130  ILE130     -0.1231
    139  CA        55.3870   73.1770   56.2470 C.3   130  ILE130      0.1692
    140  C         56.7190   72.4870   56.4850 C.2   130  ILE130      0.2592
    141  O         57.1460   72.3240   57.6320 O.2   130  ILE130     -0.2718
    142  CB        55.4380   74.5930   56.8710 C.3   130  ILE130      0.0266
    143  CG1       54.0620   75.2730   56.8230 C.3   130  ILE130      0.0019
    144  CG2       56.4870   75.4450   56.1740 C.3   130  ILE130      0.0020
    145  CD1       53.4100   75.2700   55.4540 C.3   130  ILE130      0.0001
    146  N         57.3700   72.0610   55.4070 N.am  131  ALA131     -0.1966
    147  CA        58.6830   71.4410   55.5390 C.3   131  ALA131      0.1728
    148  C         59.7680   72.4290   55.1270 C.2   131  ALA131      0.2616
    149  O         59.8410   73.5310   55.6580 O.2   131  ALA131     -0.2715
    150  CB        58.7630   70.1610   54.7040 C.3   131  ALA131      0.0334
    151  N         60.5860   72.0330   54.1580 N.am  132  SER132     -0.1950
    152  CA        61.6980   72.8440   53.6890 C.3   132  SER132      0.1924
    153  C         62.3900   72.0800   52.5730 C.2   132  SER132      0.2314
    154  O         62.3260   70.8540   52.5380 O.2   132  SER132     -0.2863
    155  CB        62.6770   73.0870   54.8420 C.3   132  SER132      0.2116
    156  OG        63.9160   73.5780   54.3830 O.3   132  SER132     -0.2180
    157  N         65.3490   71.7270   52.5600 N.3   134  ARG134     -0.1245
    158  CA        66.3770   71.0220   53.3180 C.3   134  ARG134      0.1563
    159  C         66.0300   69.5450   53.5600 C.2   134  ARG134      0.2260
    160  O         66.8660   68.7710   54.0330 O.2   134  ARG134     -0.2867
    161  CB        66.6490   71.7330   54.6410 C.3   134  ARG134      0.0307
    162  CG        67.3700   73.0720   54.4700 C.3   134  ARG134      0.0489
    163  CD        67.7460   73.6760   55.8180 C.3   134  ARG134      0.2205
    164  NE        68.2160   75.0520   55.6740 N.pl3 134  ARG134     -0.0865
    165  CZ        69.4830   75.3900   55.4660 C.cat 134  ARG134      0.5346
    166  NH1       70.4150   74.4510   55.3810 N.pl3 134  ARG134      0.1354
    167  NH2       69.8220   76.6680   55.3430 N.pl3 134  ARG134      0.1354
    168  N         67.7660   69.5040   61.5980 N.3   145  TYR145     -0.1241
    169  CA        66.7750   70.1170   60.7340 C.3   145  TYR145      0.1605
    170  C         66.4020   69.1770   59.5840 C.2   145  TYR145      0.2264
    171  O         65.2300   69.0310   59.2440 O.2   145  TYR145     -0.2867
    172  CB        67.3300   71.4350   60.1960 C.3   145  TYR145      0.0534
    173  CG        66.2950   72.3780   59.6430 C.ar  145  TYR145     -0.0201
    174  CD1       65.6560   73.2990   60.4620 C.ar  145  TYR145     -0.0009
    175  CD2       65.9650   72.3590   58.2960 C.ar  145  TYR145     -0.0009
    176  CE1       64.7100   74.1720   59.9490 C.ar  145  TYR145      0.0417
    177  CE2       65.0210   73.2280   57.7760 C.ar  145  TYR145      0.0417
    178  CZ        64.3990   74.1300   58.6030 C.ar  145  TYR145      0.1957
    179  OH        63.4640   74.9920   58.0790 O.3   145  TYR145     -0.2866
    180  N         62.6930   67.5190   58.8650 N.3   149  LYS149     -0.1245
    181  CA        62.0280   67.8980   57.6210 C.3   149  LYS149      0.1561
    182  C         61.7910   66.6980   56.7130 C.2   149  LYS149      0.2260
    183  O         60.7270   66.5810   56.1020 O.2   149  LYS149     -0.2867
    184  CB        62.8120   68.9950   56.8960 C.3   149  LYS149      0.0271
    185  CG        62.8240   70.3270   57.6370 C.3   149  LYS149      0.0035
    186  CD        61.4080   70.8260   57.8730 C.3   149  LYS149      0.0206
    187  CE        61.3910   72.1250   58.6680 C.3   149  LYS149      0.1093
    188  NZ        59.9980   72.6360   58.8460 N.3   149  LYS149     -0.1314
    189  N         59.3400   75.1560   51.5750 N.3   174  PRO174     -0.2102
    190  CA        59.8310   76.4690   51.1470 C.3   174  PRO174      0.1504
    191  C         61.3400   76.4730   50.9620 C.2   174  PRO174      0.2576
    192  O         62.0560   75.7040   51.6130 O.2   174  PRO174     -0.2718
    193  CB        59.4630   77.3910   52.3220 C.3   174  PRO174      0.0282
    194  CG        58.4600   76.6180   53.1390 C.3   174  PRO174      0.0208
    195  CD        58.8130   75.1810   52.9490 C.3   174  PRO174      0.0893
    196  N         61.8170   77.3430   50.0800 N.am  175  GLY175     -0.1943
    197  CA        63.2360   77.6180   49.9890 C.3   175  GLY175      0.2014
    198  C         63.5090   78.8260   50.8630 C.2   175  GLY175      0.2639
    199  O         63.0860   78.8650   52.0210 O.2   175  GLY175     -0.2714
    200  N         64.1870   79.8240   50.3090 N.am  176  TRP176     -0.1959
    201  CA        64.5400   81.0120   51.0840 C.3   176  TRP176      0.1771
    202  C         63.3810   81.9920   51.1630 C.2   176  TRP176      0.2619
    203  O         63.0610   82.6570   50.1820 O.2   176  TRP176     -0.2715
    204  CB        65.7700   81.7000   50.4940 C.3   176  TRP176      0.0590
    205  CG        66.2050   82.9370   51.2510 C.ar  176  TRP176      0.0006
    206  CD1       65.7390   83.3690   52.4620 C.ar  176  TRP176      0.0946
    207  CD2       67.2160   83.8740   50.8560 C.ar  176  TRP176      0.0152
    208  NE1       66.3790   84.5250   52.8320 N.ar  176  TRP176     -0.2442
    209  CE2       67.2950   84.8550   51.8670 C.ar  176  TRP176      0.0810
    210  CE3       68.0560   83.9850   49.7420 C.ar  176  TRP176      0.0012
    211  CZ2       68.1830   85.9330   51.7990 C.ar  176  TRP176      0.0191
    212  CZ3       68.9430   85.0540   49.6790 C.ar  176  TRP176      0.0001
    213  CH2       68.9960   86.0130   50.7000 C.ar  176  TRP176      0.0015
    214  N         62.7620   82.0840   52.3390 N.am  177  ILE177     -0.1977
    215  CA        61.6550   83.0110   52.5510 C.3   177  ILE177      0.1596
    216  C         62.0820   84.1170   53.5080 C.2   177  ILE177      0.2287
    217  O         62.4980   83.8490   54.6350 O.2   177  ILE177     -0.2864
    218  CB        60.4250   82.3070   53.1410 C.3   177  ILE177      0.0276
    219  CG1       60.0490   81.0770   52.3070 C.3   177  ILE177      0.0022
    220  CG2       59.2460   83.2780   53.2430 C.3   177  ILE177      0.0022
    221  CD1       59.6500   81.3920   50.8750 C.3   177  ILE177      0.0001
    222  N         61.7870   86.3580   56.2300 N.3   179  VAL179     -0.1245
    223  CA        60.9480   86.6550   57.3830 C.3   179  VAL179      0.1561
    224  C         61.5860   87.7610   58.2280 C.2   179  VAL179      0.2260
    225  O         61.3440   87.8650   59.4300 O.2   179  VAL179     -0.2867
    226  CB        60.6600   85.3950   58.2200 C.3   179  VAL179      0.0252
    227  CG1       59.8530   84.3970   57.3900 C.3   179  VAL179      0.0019
    228  CG2       61.9540   84.7590   58.6890 C.3   179  VAL179      0.0019
@<TRIPOS>BOND
     1   212   210   ar
     2   212   213   ar
     3   210   207   ar
     4   197   196    1
     5   197   198    1
     6   196   191   am
     7   203   202    2
     8   200   198   am
     9   200   201    1
    10   204   201    1
    11   204   205    1
    12   213   211   ar
    13   207   205   ar
    14   207   209   ar
    15   198   199    2
    16   221   219    1
    17   191   190    1
    18   191   192    2
    19   201   202    1
    20   190   189    1
    21   190   193    1
    22   202   214   am
    23   205   206   ar
    24   189   195    1
    25   211   209   ar
    26   209   208   ar
    27   219   218    1
    28   193   194    1
    29   214   215    1
    30   206   208   ar
    31   154   153    2
    32   215   218    1
    33   215   216    1
    34   157   158    1
    35   153   152    1
    36   195   194    1
    37   218   220    1
    38   158   159    1
    39   158   161    1
    40   216   217    2
    41   159   160    2
    42   152   151    1
    43   152   155    1
    44   151   148   am
    45   156   155    1
    46   162   161    1
    47   162   163    1
    48   150   147    1
    49   148   147    1
    50   148   149    2
    51   167   165    1
    52   166   165    1
    53   146   147    1
    54   146   140   am
    55   145   143    1
    56   165   164    2
    57   164   163    1
    58    26    24    1
    59    24    23    1
    60   183   182    2
    61   144   142    1
    62   222   223    1
    63   139   140    1
    64   139   138    1
    65   139   142    1
    66    25    23    1
    67   140   141    2
    68   182   181    1
    69   143   142    1
    70   184   181    1
    71   184   185    1
    72    23    20    1
    73   223   226    1
    74   223   224    1
    75   227   226    1
    76    20    21    1
    77    20    19    1
    78    22    21    2
    79   181   180    1
    80   185   186    1
    81   177   175   ar
    82   177   178   ar
    83   186   187    1
    84   179   178    1
    85   226   228    1
    86   224   225    2
    87   175   173   ar
    88    19    17   am
    89    18    17    2
    90   178   176   ar
    91   187   188    1
    92    17    16    1
    93    95    94    2
    94   171   170    2
    95    16    15    1
    96   170   169    1
    97   173   172    1
    98   173   174   ar
    99   176   174   ar
   100    94    93    1
   101    94    96   am
   102   172   169    1
   103    93    90    1
   104    90    89    1
   105    90    91    1
   106   169   168    1
   107    15     7   am
   108    92    91    2
   109     8     7    2
   110    91    97   am
   111     7     6    1
   112    13    11   ar
   113    13    14   ar
   114   107   106    1
   115   106   103    1
   116    11    10   ar
   117    14    12   ar
   118    97    98    1
   119     6     9    1
   120     6     5    1
   121    10    12   ar
   122    10     9    1
   123     4     3    2
   124   100    99    2
   125    99   102   am
   126    99    98    1
   127   117   116    1
   128   103   102    1
   129   103   104    1
   130   105   104    2
   131    98   101    1
   132   104   108   am
   133   110   111    2
   134   110   109    1
   135     3     2    1
   136   108   109    1
   137   109   112    1
   138   116   118    1
   139   116   115    2
   140     2     1    1
   141   114   115    1
   142   114   113    1
   143   134   133    2
   144   133   132    1
   145   112   113    1
   146    69    67    1
   147    67    68    1
   148    67    66    2
   149   136   135    1
   150    42    40   ar
   151    65    66    1
   152    65    64    1
   153   132   135    1
   154   132   131    1
   155    64    63    1
   156   135   137    1
   157    30    29    2
   158    40    39    1
   159    40    41   ar
   160    27    28    1
   161    62    61    2
   162    33    31    1
   163    88    86    1
   164    39    36    1
   165    29    28    1
   166    29    35   am
   167    63    60    1
   168    87    86    1
   169   122   121    2
   170    28    31    1
   171    86    83    1
   172    61    60    1
   173   121   120    1
   174    58    56   ar
   175    36    35    1
   176    36    37    1
   177    60    59    1
   178    31    32    1
   179    55    56    1
   180    55    52    1
   181    56    57   ar
   182   119   120    1
   183    85    84    2
   184    83    84    1
   185    83    82    1
   186   120   123    1
   187   126   128   ar
   188   126   124   ar
   189    32    34    1
   190    43    37   am
   191    43    44    1
   192    37    38    2
   193   128   129   ar
   194    54    53    2
   195    49    47    1
   196    82    76   am
   197    51    52    1
   198    51    45   am
   199   123   124    1
   200    52    53    1
   201   124   125   ar
   202   129   130    1
   203   129   127   ar
   204    47    44    1
   205    47    48    1
   206    44    45    1
   207    80    79   ar
   208    45    46    2
   209    73    72    2
   210   125   127   ar
   211    76    75    1
   212    76    77    2
   213    75    74    1
   214    75    78    1
   215    50    48    1
   216    79    81   ar
   217    79    78    1
   218    72    74   am
   219    72    71    1
   220    70    71    1
