@<TRIPOS>MOLECULE
tmp/3gehA00.pdb
 104 101 0 0 0
SMALL
GASTEIGER

@<TRIPOS>ATOM
      1  N        -47.1620   30.1060   32.0300 N.3   233  PRO233     -0.2102
      2  CA       -47.4060   29.3340   33.2560 C.3   233  PRO233      0.1504
      3  C        -48.4960   28.2760   33.0990 C.2   233  PRO233      0.2576
      4  O        -49.5270   28.5360   32.4800 O.2   233  PRO233     -0.2718
      5  CB       -47.8500   30.4020   34.2640 C.3   233  PRO233      0.0282
      6  CG       -48.2470   31.5820   33.4400 C.3   233  PRO233      0.0208
      7  CD       -47.3450   31.5510   32.2580 C.3   233  PRO233      0.0893
      8  N        -48.2450   27.0960   33.6650 N.am  234  ASN234     -0.1961
      9  CA       -49.1600   25.9430   33.6250 C.3   234  ASN234      0.1819
     10  C        -49.3370   25.2970   32.2550 C.2   234  ASN234      0.2621
     11  O        -50.3690   24.6790   31.9750 O.2   234  ASN234     -0.2715
     12  CB       -50.5210   26.2860   34.2450 C.3   234  ASN234      0.1195
     13  CG       -50.4900   26.2690   35.7610 C.2   234  ASN234      0.2630
     14  OD1      -49.6630   25.5800   36.3750 O.2   234  ASN234     -0.2716
     15  ND2      -51.3980   27.0240   36.3790 N.am  234  ASN234     -0.0877
     16  N        -48.3190   25.4330   31.4130 N.am  235  VAL235     -0.1963
     17  CA       -48.3430   24.8540   30.0770 C.3   235  VAL235      0.1727
     18  C        -47.7220   23.4500   30.0880 C.2   235  VAL235      0.2617
     19  O        -48.1120   22.5800   29.3060 O.2   235  VAL235     -0.2715
     20  CB       -47.6620   25.7990   29.0510 C.3   235  VAL235      0.0290
     21  CG1      -47.2650   25.0570   27.8060 C.3   235  VAL235      0.0023
     22  CG2      -48.5940   26.9520   28.6910 C.3   235  VAL235      0.0023
     23  N        -46.7710   23.2350   30.9930 N.am  236  GLY236     -0.1940
     24  CA       -46.1240   21.9340   31.1420 C.3   236  GLY236      0.2014
     25  C        -44.6280   21.9660   30.8910 C.2   236  GLY236      0.2639
     26  O        -44.0560   21.0000   30.3800 O.2   236  GLY236     -0.2714
     27  N        -43.9920   23.0760   31.2540 N.am  237  LYS237     -0.1963
     28  CA       -42.5530   23.2260   31.0580 C.3   237  LYS237      0.1728
     29  C        -41.7700   22.2680   31.9610 C.2   237  LYS237      0.2617
     30  O        -40.9510   21.4840   31.4750 O.2   237  LYS237     -0.2715
     31  CB       -42.1170   24.6790   31.2740 C.3   237  LYS237      0.0311
     32  CG       -42.7020   25.6650   30.2690 C.3   237  LYS237      0.0038
     33  CD       -42.0870   27.0500   30.4100 C.3   237  LYS237      0.0206
     34  CE       -42.4620   27.7190   31.7290 C.3   237  LYS237      0.1093
     35  NZ       -43.9210   28.0070   31.8440 N.3   237  LYS237     -0.1314
     36  N        -42.0420   22.3230   33.2660 N.am  238  SER238     -0.1936
     37  CA       -41.4190   21.4270   34.2430 C.3   238  SER238      0.2055
     38  C        -41.7800   19.9740   33.9590 C.2   238  SER238      0.2643
     39  O        -40.9610   19.0750   34.1540 O.2   238  SER238     -0.2714
     40  CB       -41.8290   21.8050   35.6710 C.3   238  SER238      0.2130
     41  OG       -41.2390   23.0320   36.0720 O.3   238  SER238     -0.2179
     42  N        -43.0070   19.7620   33.4870 N.am  239  SER239     -0.1949
     43  CA       -43.4800   18.4390   33.0930 C.3   239  SER239      0.1924
     44  C        -42.7190   17.9170   31.8750 C.2   239  SER239      0.2314
     45  O        -42.4500   16.7210   31.7790 O.2   239  SER239     -0.2863
     46  CB       -44.9840   18.4670   32.8040 C.3   239  SER239      0.2116
     47  OG       -45.7150   19.0110   33.8910 O.3   239  SER239     -0.2180
     48  N        -48.1060   20.8730   23.7690 N.3   318  ASN318     -0.1225
     49  CA       -48.2620   20.0280   24.9490 C.3   318  ASN318      0.1785
     50  C        -49.7110   19.6890   25.3010 C.2   318  ASN318      0.2597
     51  O        -50.6400   20.4260   24.9540 O.2   318  ASN318     -0.2718
     52  CB       -47.5470   20.6410   26.1600 C.3   318  ASN318      0.1169
     53  CG       -47.2570   19.6160   27.2460 C.2   318  ASN318      0.2627
     54  OD1      -46.9160   18.4670   26.9580 O.2   318  ASN318     -0.2716
     55  ND2      -47.3920   20.0300   28.5000 N.am  318  ASN318     -0.0877
     56  N        -49.8720   18.5620   25.9990 N.am  319  LYS319     -0.1980
     57  CA       -51.1620   18.0650   26.4980 C.3   319  LYS319      0.1596
     58  C        -52.0790   17.5380   25.3920 C.2   319  LYS319      0.2287
     59  O        -53.2910   17.7590   25.4460 O.2   319  LYS319     -0.2864
     60  CB       -51.9000   19.1330   27.3270 C.3   319  LYS319      0.0298
     61  CG       -51.0930   19.7790   28.4410 C.3   319  LYS319      0.0038
     62  CD       -52.0020   20.5980   29.3350 C.3   319  LYS319      0.0206
     63  CE       -51.2160   21.4920   30.2680 C.3   319  LYS319      0.1093
     64  NZ       -52.1110   22.4500   30.9640 N.3   319  LYS319     -0.1314
     65  N        -53.0720   14.6720   24.9240 N.3   321  ASP321     -0.1225
     66  CA       -53.9870   13.7090   25.5340 C.3   321  ASP321      0.1805
     67  C        -55.3630   14.3270   25.8320 C.2   321  ASP321      0.2597
     68  O        -56.3170   13.6080   26.1290 O.2   321  ASP321     -0.2718
     69  CB       -53.3750   13.1430   26.8190 C.3   321  ASP321      0.1424
     70  CG       -52.9460   14.2310   27.7890 C.2   321  ASP321      0.3668
     71  OD1      -51.8450   14.7920   27.6030 O.co2 321  ASP321     -0.2456
     72  OD2      -53.7140   14.5270   28.7300 O.co2 321  ASP321     -0.2456
     73  N        -55.4550   15.6550   25.7520 N.am  322  LEU322     -0.1979
     74  CA       -56.7030   16.3740   26.0150 C.3   322  LEU322      0.1596
     75  C        -57.4640   16.7680   24.7460 C.2   322  LEU322      0.2287
     76  O        -58.6780   16.9640   24.7940 O.2   322  LEU322     -0.2864
     77  CB       -56.4510   17.5980   26.9010 C.3   322  LEU322      0.0297
     78  CG       -56.1780   17.3380   28.3860 C.3   322  LEU322      0.0022
     79  CD1      -55.3460   18.4600   28.9730 C.3   322  LEU322      0.0001
     80  CD2      -57.4740   17.1610   29.1750 C.3   322  LEU322      0.0001
     81  N        -47.3540   14.5080   25.1830 N.3   344  ALA344     -0.1231
     82  CA       -48.1250   14.3330   26.4060 C.3   344  ALA344      0.1694
     83  C        -47.1320   14.1250   27.5430 C.2   344  ALA344      0.2592
     84  O        -46.7180   12.9950   27.8230 O.2   344  ALA344     -0.2718
     85  CB       -49.0700   13.1520   26.2790 C.3   344  ALA344      0.0304
     86  N        -46.7430   15.2320   28.1770 N.am  345  ALA345     -0.1966
     87  CA       -45.6620   15.2470   29.1660 C.3   345  ALA345      0.1728
     88  C        -45.9230   14.3530   30.3800 C.2   345  ALA345      0.2616
     89  O        -45.0950   13.4990   30.7100 O.2   345  ALA345     -0.2715
     90  CB       -45.3540   16.6760   29.6020 C.3   345  ALA345      0.0334
     91  N        -47.0720   14.5420   31.0280 N.am  346  ALA346     -0.1963
     92  CA       -47.4520   13.7390   32.1910 C.3   346  ALA346      0.1728
     93  C        -47.4940   12.2480   31.8630 C.2   346  ALA346      0.2616
     94  O        -47.1600   11.4180   32.7060 O.2   346  ALA346     -0.2715
     95  CB       -48.7870   14.2010   32.7360 C.3   346  ALA346      0.0334
     96  N        -47.8900   11.9210   30.6320 N.am  347  GLN347     -0.1977
     97  CA       -47.9460   10.5330   30.1550 C.3   347  GLN347      0.1601
     98  C        -46.5800   10.0340   29.6800 C.2   347  GLN347      0.2287
     99  O        -46.4480    8.8850   29.2480 O.2   347  GLN347     -0.2864
    100  CB       -48.9680   10.3750   29.0150 C.3   347  GLN347      0.0394
    101  CG       -50.3110   11.0880   29.2020 C.3   347  GLN347      0.0908
    102  CD       -51.0610   10.6450   30.4440 C.2   347  GLN347      0.2608
    103  OE1      -51.4750   11.4740   31.2550 O.2   347  GLN347     -0.2717
    104  NE2      -51.2370    9.3340   30.6020 N.am  347  GLN347     -0.0878
@<TRIPOS>BOND
     1    48    49    1
     2    75    76    2
     3    75    74    1
     4    65    66    1
     5    49    50    1
     6    49    52    1
     7    51    50    2
     8    81    82    1
     9    50    56   am
    10    58    59    2
    11    58    57    1
    12    66    67    1
    13    66    69    1
    14    73    67   am
    15    73    74    1
    16    67    68    2
    17    56    57    1
    18    74    77    1
    19    52    53    1
    20    85    82    1
    21    82    83    1
    22    57    60    1
    23    69    70    1
    24    77    78    1
    25    54    53    2
    26    53    55   am
    27    60    61    1
    28    83    84    2
    29    83    86   am
    30    71    70   ar
    31    70    72   ar
    32    21    20    1
    33    86    87    1
    34    78    79    1
    35    78    80    1
    36    61    62    1
    37    22    20    1
    38   100   101    1
    39   100    97    1
    40    20    17    1
    41    87    90    1
    42    87    88    1
    43   101   102    1
    44    99    98    2
    45    19    18    2
    46    62    63    1
    47    98    97    1
    48    17    18    1
    49    17    16    1
    50    18    23   am
    51    97    96    1
    52    63    64    1
    53    32    33    1
    54    32    31    1
    55    88    89    2
    56    88    91   am
    57    26    25    2
    58    33    34    1
    59   102   104   am
    60   102   103    2
    61    96    93   am
    62    25    24    1
    63    25    27   am
    64    23    24    1
    65    91    92    1
    66    28    27    1
    67    28    31    1
    68    28    29    1
    69    16    10   am
    70    30    29    2
    71    34    35    1
    72    45    44    2
    73    93    92    1
    74    93    94    2
    75    44    43    1
    76    29    36   am
    77    11    10    2
    78     1     7    1
    79     1     2    1
    80    92    95    1
    81    10     9    1
    82     7     6    1
    83     4     3    2
    84    46    43    1
    85    46    47    1
    86    43    42    1
    87     3     2    1
    88     3     8   am
    89     2     5    1
    90    36    37    1
    91     6     5    1
    92    42    38   am
    93     9     8    1
    94     9    12    1
    95    38    39    2
    96    38    37    1
    97    37    40    1
    98    12    13    1
    99    40    41    1
   100    13    14    2
   101    13    15   am
