@<TRIPOS>MOLECULE
tmp/3gehA01.pdb
 142 133 0 0 0
SMALL
GASTEIGER

@<TRIPOS>ATOM
      1  N         -5.6090   15.7220   43.0840 N.3    14  ALA14      -0.1245
      2  CA        -5.8810   15.0690   41.7970 C.3    14  ALA14       0.1562
      3  C         -7.3290   14.6360   41.5790 C.2    14  ALA14       0.2260
      4  O         -7.6900   14.2300   40.4780 O.2    14  ALA14      -0.2867
      5  CB        -4.9360   13.8850   41.5920 C.3    14  ALA14       0.0290
      6  N         -7.0890   12.0860   46.2790 N.3    26  ILE26      -0.1245
      7  CA        -5.6590   11.9640   45.9760 C.3    26  ILE26       0.1561
      8  C         -4.9280   13.2970   46.0970 C.2    26  ILE26       0.2260
      9  O         -5.5150   14.3560   45.8910 O.2    26  ILE26      -0.2867
     10  CB        -5.4040   11.4490   44.5310 C.3    26  ILE26       0.0252
     11  CG1       -6.5540   10.5670   44.0150 C.3    26  ILE26       0.0019
     12  CG2       -4.0320   10.7740   44.4330 C.3    26  ILE26       0.0019
     13  CD1       -6.3530    9.0840   44.1190 C.3    26  ILE26       0.0001
     14  N         -1.2790   14.3420   44.3180 N.3    28  ARG28      -0.1245
     15  CA        -0.2140   13.8500   43.4510 C.3    28  ARG28       0.1563
     16  C          1.0160   14.7480   43.5050 C.2    28  ARG28       0.2260
     17  O          0.8990   15.9720   43.4550 O.2    28  ARG28      -0.2867
     18  CB        -0.7050   13.7300   42.0070 C.3    28  ARG28       0.0307
     19  CG         0.0930   12.7390   41.1930 C.3    28  ARG28       0.0489
     20  CD        -0.0830   12.9280   39.7090 C.3    28  ARG28       0.2205
     21  NE        -1.3940   12.5040   39.2280 N.pl3  28  ARG28      -0.0865
     22  CZ        -2.3790   13.3410   38.9180 C.cat  28  ARG28       0.5346
     23  NH1       -2.2060   14.6520   39.0510 N.pl3  28  ARG28       0.1354
     24  NH2       -3.5380   12.8670   38.4750 N.pl3  28  ARG28       0.1354
     25  N          5.6310    0.9990   41.1640 N.3    53  HIS53      -0.1241
     26  CA         4.3500    0.3090   40.9450 C.3    53  HIS53       0.1621
     27  C          3.9880   -0.6460   42.0900 C.2    53  HIS53       0.2264
     28  O          3.5920   -1.7970   41.8750 O.2    53  HIS53      -0.2867
     29  CB         4.3100   -0.3710   39.5730 C.3    53  HIS53       0.0745
     30  CG         4.3250    0.5940   38.4290 C.ar   53  HIS53       0.0817
     31  ND1        5.4040    1.4070   38.1550 N.ar   53  HIS53      -0.2268
     32  CD2        3.3900    0.8820   37.4930 C.ar   53  HIS53       0.1154
     33  CE1        5.1340    2.1520   37.0980 C.ar   53  HIS53       0.1986
     34  NE2        3.9190    1.8520   36.6760 N.ar   53  HIS53      -0.2212
     35  N          1.0980    5.4400   46.6820 N.3    75  LEU75      -0.1245
     36  CA         1.4010    4.8780   45.3760 C.3    75  LEU75       0.1561
     37  C          2.7350    5.4230   44.8750 C.2    75  LEU75       0.2260
     38  O          2.9750    6.6340   44.9140 O.2    75  LEU75      -0.2867
     39  CB         0.2780    5.1960   44.3860 C.3    75  LEU75       0.0270
     40  CG        -0.8640    4.1830   44.2480 C.3    75  LEU75       0.0019
     41  CD1       -1.6340    3.9660   45.5430 C.3    75  LEU75       0.0001
     42  CD2       -1.8060    4.6120   43.1400 C.3    75  LEU75       0.0001
     43  N          5.4230    5.5960   41.6510 N.3    77  MET77      -0.1245
     44  CA         5.6910    5.4370   40.2230 C.3    77  MET77       0.1570
     45  C          7.0100    6.1080   39.8380 C.2    77  MET77       0.2261
     46  O          7.0650    7.3000   39.5160 O.2    77  MET77      -0.2867
     47  CB         4.5050    5.9100   39.3810 C.3    77  MET77       0.0387
     48  CG         3.4190    4.8420   39.2580 C.3    77  MET77       0.0595
     49  SD         1.7380    5.4600   39.0340 S.3    77  MET77      -0.1393
     50  CE         1.4200    6.2360   40.6200 C.3    77  MET77       0.0692
     51  N         11.1000    6.4620   34.2930 N.3    80  PRO80      -0.2102
     52  CA        10.2910    7.1740   33.3000 C.3    80  PRO80       0.1504
     53  C          8.9050    6.5440   33.1210 C.2    80  PRO80       0.2576
     54  O          8.1770    6.9030   32.1900 O.2    80  PRO80      -0.2718
     55  CB        11.1090    7.0060   32.0220 C.3    80  PRO80       0.0282
     56  CG        11.7220    5.6540   32.1730 C.3    80  PRO80       0.0208
     57  CD        11.9900    5.4730   33.6480 C.3    80  PRO80       0.0893
     58  N          8.5600    5.6150   34.0130 N.am   81  ARG81      -0.1966
     59  CA         7.3200    4.8510   33.9270 C.3    81  ARG81       0.1729
     60  C          6.2340    5.4960   34.7940 C.2    81  ARG81       0.2617
     61  O          5.7860    4.9250   35.7940 O.2    81  ARG81      -0.2715
     62  CB         7.5780    3.3940   34.3290 C.3    81  ARG81       0.0348
     63  CG         6.7640    2.3800   33.5430 C.3    81  ARG81       0.0492
     64  CD         7.4710    1.0240   33.4410 C.3    81  ARG81       0.2205
     65  NE         7.4030    0.2410   34.6810 N.pl3  81  ARG81      -0.0865
     66  CZ         6.3690   -0.5200   35.0470 C.cat  81  ARG81       0.5346
     67  NH1        5.2860   -0.6070   34.2750 N.pl3  81  ARG81       0.1354
     68  NH2        6.4110   -1.1920   36.1950 N.pl3  81  ARG81       0.1354
     69  N          5.8300    6.7000   34.3940 N.am   82  SER82      -0.1936
     70  CA         4.8490    7.4960   35.1260 C.3    82  SER82       0.2055
     71  C          4.0110    8.3470   34.1770 C.2    82  SER82       0.2643
     72  O          4.1780    8.2850   32.9610 O.2    82  SER82      -0.2714
     73  CB         5.5530    8.3990   36.1380 C.3    82  SER82       0.2130
     74  OG         6.1480    9.5120   35.4960 O.3    82  SER82      -0.2179
     75  N          3.1110    9.1420   34.7440 N.am   83  TYR83      -0.1973
     76  CA         2.2930   10.0580   33.9650 C.3    83  TYR83       0.1639
     77  C          3.1470   11.1640   33.3420 C.2    83  TYR83       0.2290
     78  O          3.0290   11.4550   32.1500 O.2    83  TYR83      -0.2864
     79  CB         1.1980   10.6610   34.8520 C.3    83  TYR83       0.0560
     80  CG         0.1940   11.5220   34.1160 C.ar   83  TYR83      -0.0198
     81  CD1       -0.8570   10.9430   33.4050 C.ar   83  TYR83      -0.0009
     82  CD2        0.2910   12.9150   34.1370 C.ar   83  TYR83      -0.0009
     83  CE1       -1.7770   11.7230   32.7310 C.ar   83  TYR83       0.0417
     84  CE2       -0.6250   13.7040   33.4640 C.ar   83  TYR83       0.0417
     85  CZ        -1.6560   13.0990   32.7660 C.ar   83  TYR83       0.1957
     86  OH        -2.5710   13.8680   32.0970 O.3    83  TYR83      -0.2866
     87  N          6.5210   11.1980   33.3190 N.3    85  ARG85      -0.1245
     88  CA         7.8520   10.6460   33.0200 C.3    85  ARG85       0.1563
     89  C          8.8600   10.8990   34.1430 C.2    85  ARG85       0.2260
     90  O          9.9420   10.3100   34.1490 O.2    85  ARG85      -0.2867
     91  CB         8.3960   11.1850   31.6990 C.3    85  ARG85       0.0307
     92  CG         7.6970   10.6490   30.4750 C.3    85  ARG85       0.0489
     93  CD         8.4940    9.4930   29.8890 C.3    85  ARG85       0.2205
     94  NE         8.5780    9.6370   28.4390 N.pl3  85  ARG85      -0.0865
     95  CZ         8.0580    8.7730   27.5590 C.cat  85  ARG85       0.5346
     96  NH1        7.4140    7.6790   27.9760 N.pl3  85  ARG85       0.1354
     97  NH2        8.1930    9.0050   26.2600 N.pl3  85  ARG85       0.1354
     98  N          6.9160    9.9600   40.3220 N.3    88  VAL88      -0.1245
     99  CA         5.5590   10.3240   40.7300 C.3    88  VAL88       0.1561
    100  C          5.1350    9.5520   41.9770 C.2    88  VAL88       0.2260
    101  O          5.2540    8.3240   42.0360 O.2    88  VAL88      -0.2867
    102  CB         4.5310   10.1150   39.5730 C.3    88  VAL88       0.0252
    103  CG1        3.0990   10.1230   40.0810 C.3    88  VAL88       0.0019
    104  CG2        4.7080   11.1780   38.5120 C.3    88  VAL88       0.0019
    105  N          1.7630    9.3990   44.9450 N.3    90  GLU90      -0.1245
    106  CA         0.3810    9.7810   45.2070 C.3    90  GLU90       0.1567
    107  C         -0.0320    9.3910   46.6030 C.2    90  GLU90       0.2260
    108  O          0.1000    8.2330   46.9920 O.2    90  GLU90      -0.2867
    109  CB        -0.5660    9.1220   44.2100 C.3    90  GLU90       0.0388
    110  CG        -0.7290    9.8890   42.9230 C.3    90  GLU90       0.1160
    111  CD        -1.6140    9.1810   41.9210 C.2    90  GLU90       0.3649
    112  OE1       -2.5450    8.4590   42.3360 O.co2  90  GLU90      -0.2457
    113  OE2       -1.3750    9.3590   40.7110 O.co2  90  GLU90      -0.2457
    114  N         -3.1400    8.7980   48.9090 N.3    92  HIS92      -0.1241
    115  CA        -4.5530    8.5020   48.7780 C.3    92  HIS92       0.1621
    116  C         -5.2370    8.6370   50.1290 C.2    92  HIS92       0.2264
    117  O         -5.3010    7.6930   50.9170 O.2    92  HIS92      -0.2867
    118  CB        -4.7440    7.1210   48.1610 C.3    92  HIS92       0.0745
    119  CG        -4.3560    7.0520   46.7160 C.ar   92  HIS92       0.0817
    120  ND1       -5.0990    6.3690   45.7770 N.ar   92  HIS92      -0.2268
    121  CD2       -3.3130    7.5970   46.0450 C.ar   92  HIS92       0.1154
    122  CE1       -4.5230    6.4830   44.5940 C.ar   92  HIS92       0.1986
    123  NE2       -3.4410    7.2290   44.7270 N.ar   92  HIS92      -0.2212
    124  N          6.0250   12.1880   26.0830 N.3   129  ARG129     -0.1245
    125  CA         5.1120   11.0630   26.2480 C.3   129  ARG129      0.1563
    126  C          3.8140   11.3440   25.4820 C.2   129  ARG129      0.2260
    127  O          3.1500   10.4250   24.9960 O.2   129  ARG129     -0.2867
    128  CB         4.8320   10.7890   27.7300 C.3   129  ARG129      0.0307
    129  CG         4.1180    9.4590   27.9690 C.3   129  ARG129      0.0489
    130  CD         3.4780    9.3610   29.3430 C.3   129  ARG129      0.2205
    131  NE         2.0650    9.0130   29.2190 N.pl3 129  ARG129     -0.0865
    132  CZ         1.0630    9.8080   29.5870 C.cat 129  ARG129      0.5346
    133  NH1       -0.1920    9.4150   29.4210 N.pl3 129  ARG129      0.1354
    134  NH2        1.3110   10.9920   30.1330 N.pl3 129  ARG129      0.1354
    135  N         -7.1760   14.7900   26.6400 N.3   138  ILE138     -0.1245
    136  CA        -7.4390   14.3090   28.0010 C.3   138  ILE138      0.1561
    137  C         -8.2960   15.3210   28.7650 C.2   138  ILE138      0.2260
    138  O         -9.0860   14.9460   29.6260 O.2   138  ILE138     -0.2867
    139  CB        -6.1690   13.8930   28.8220 C.3   138  ILE138      0.0252
    140  CG1       -5.4700   15.1060   29.4210 C.3   138  ILE138      0.0019
    141  CG2       -5.2110   13.0330   27.9980 C.3   138  ILE138      0.0019
    142  CD1       -5.2400   14.9680   30.8970 C.3   138  ILE138      0.0001
@<TRIPOS>BOND
     1   127   126    2
     2   126   125    1
     3   124   125    1
     4   125   128    1
     5    97    95    1
     6   135   136    1
     7    95    96    1
     8    95    94    2
     9   128   129    1
    10   129   130    1
    11   141   139    1
    12   136   137    1
    13   136   139    1
    14    94    93    1
    15   137   138    2
    16   139   140    1
    17   131   130    1
    18   131   132    2
    19   133   132    1
    20   140   142    1
    21   132   134    1
    22    93    92    1
    23    92    91    1
    24    91    88    1
    25    55    56    1
    26    55    52    1
    27    86    85    1
    28    78    77    2
    29    56    57    1
    30    54    53    2
    31    83    85   ar
    32    83    81   ar
    33    85    84   ar
    34    72    71    2
    35    88    87    1
    36    88    89    1
    37    53    52    1
    38    53    58   am
    39    52    51    1
    40    77    76    1
    41    81    80   ar
    42    64    63    1
    43    64    65    1
    44    84    82   ar
    45    63    62    1
    46    57    51    1
    47    59    58    1
    48    59    62    1
    49    59    60    1
    50    76    75    1
    51    76    79    1
    52    80    82   ar
    53    80    79    1
    54    89    90    2
    55    71    75   am
    56    71    70    1
    57    67    66    1
    58    69    60   am
    59    69    70    1
    60    65    66    2
    61    60    61    2
    62    66    68    1
    63    70    73    1
    64    74    73    1
    65    34    33   ar
    66    34    32   ar
    67    33    31   ar
    68    32    30   ar
    69    31    30   ar
    70    30    29    1
    71    24    22    1
    72   104   102    1
    73    22    23    1
    74    22    21    2
    75    49    48    1
    76    49    50    1
    77    21    20    1
    78    48    47    1
    79    47    44    1
    80    46    45    2
    81   102   103    1
    82   102    99    1
    83    29    26    1
    84    20    19    1
    85    45    44    1
    86    44    43    1
    87    98    99    1
    88     4     3    2
    89   113   111   ar
    90    99   100    1
    91    26    25    1
    92    26    27    1
    93    19    18    1
    94     3     2    1
    95     5     2    1
    96     2     1    1
    97    28    27    2
    98   111   112   ar
    99   111   110    1
   100   100   101    2
   101    18    15    1
   102   110   109    1
   103    42    40    1
   104    15    16    1
   105    15    14    1
   106    17    16    2
   107    11    13    1
   108    11    10    1
   109   109   106    1
   110    40    39    1
   111    40    41    1
   112    39    36    1
   113    12    10    1
   114    10     7    1
   115   122   123   ar
   116   122   120   ar
   117   123   121   ar
   118    37    38    2
   119    37    36    1
   120   105   106    1
   121   106   107    1
   122    36    35    1
   123   120   119   ar
   124     9     8    2
   125     7     8    1
   126     7     6    1
   127   121   119   ar
   128   107   108    2
   129   119   118    1
   130   118   115    1
   131   115   114    1
   132   115   116    1
   133   116   117    2
