@<TRIPOS>MOLECULE
tmp/3geiA00.pdb
 110 107 0 0 0
SMALL
GASTEIGER

@<TRIPOS>ATOM
      1  N          0.0320   12.2650  -19.5920 N.3   235  LYS235     -0.1231
      2  CA        -0.6550   13.5290  -19.8190 C.3   235  LYS235      0.1678
      3  C         -1.0040   13.6100  -21.3010 C.2   235  LYS235      0.2434
      4  O         -0.5060   12.8060  -22.0860 O.2   235  LYS235     -0.2733
      5  CB         0.2680   14.6930  -19.4370 C.3   235  LYS235      0.0284
      6  CG         0.6190   14.7960  -17.9500 C.3   235  LYS235      0.0035
      7  CD        -0.3400   15.7310  -17.1920 C.3   235  LYS235      0.0206
      8  CE         0.1570   16.0450  -15.7700 C.3   235  LYS235      0.1093
      9  NZ         1.5050   16.7020  -15.7190 N.3   235  LYS235     -0.1314
     10  N         -1.8750   14.5600  -21.6940 N.am  236  PRO236     -0.2718
     11  CA        -1.9770   14.8400  -23.1320 C.3   236  PRO236      0.1535
     12  C         -0.6010   15.1790  -23.7320 C.2   236  PRO236      0.2599
     13  O          0.0630   16.1250  -23.2850 O.2   236  PRO236     -0.2715
     14  CB        -2.9290   16.0490  -23.2020 C.3   236  PRO236      0.0310
     15  CG        -3.0530   16.5650  -21.7910 C.3   236  PRO236      0.0237
     16  CD        -2.8110   15.3820  -20.9030 C.3   236  PRO236      0.0939
     17  N         -0.1840   14.3850  -24.7180 N.am  237  ASN237     -0.1959
     18  CA         1.1290   14.5140  -25.3720 C.3   237  ASN237      0.1819
     19  C          2.3390   14.3360  -24.4410 C.2   237  ASN237      0.2621
     20  O          3.1850   15.2290  -24.3040 O.2   237  ASN237     -0.2715
     21  CB         1.2330   15.8120  -26.1960 C.3   237  ASN237      0.1195
     22  CG         0.4830   15.7330  -27.5210 C.2   237  ASN237      0.2630
     23  OD1        0.4690   14.6940  -28.1880 O.2   237  ASN237     -0.2716
     24  ND2       -0.1350   16.8410  -27.9130 N.am  237  ASN237     -0.0877
     25  N          2.3990   13.1720  -23.8000 N.am  238  ALA238     -0.1963
     26  CA         3.5700   12.7590  -23.0280 C.3   238  ALA238      0.1728
     27  C          4.3530   11.6910  -23.7960 C.2   238  ALA238      0.2617
     28  O          5.4730   11.3340  -23.4240 O.2   238  ALA238     -0.2715
     29  CB         3.1570   12.2490  -21.6480 C.3   238  ALA238      0.0334
     30  N          3.7500   11.1940  -24.8740 N.am  239  GLY239     -0.1940
     31  CA         4.3770   10.1980  -25.7340 C.3   239  GLY239      0.2014
     32  C          3.9920    8.7740  -25.3840 C.2   239  GLY239      0.2639
     33  O          4.8090    7.8600  -25.5110 O.2   239  GLY239     -0.2714
     34  N          2.7470    8.5840  -24.9490 N.am  240  LYS240     -0.1963
     35  CA         2.2720    7.2690  -24.5150 C.3   240  LYS240      0.1728
     36  C          2.1560    6.2690  -25.6640 C.2   240  LYS240      0.2617
     37  O          2.6370    5.1390  -25.5490 O.2   240  LYS240     -0.2715
     38  CB         0.9550    7.3900  -23.7420 C.3   240  LYS240      0.0311
     39  CG         1.1380    7.8890  -22.3100 C.3   240  LYS240      0.0038
     40  CD        -0.1790    8.2630  -21.6440 C.3   240  LYS240      0.0206
     41  CE        -0.6420    9.6460  -22.0610 C.3   240  LYS240      0.1093
     42  NZ        -1.7440   10.1520  -21.2050 N.3   240  LYS240     -0.1314
     43  N          1.5380    6.6960  -26.7670 N.am  241  SER241     -0.1936
     44  CA         1.3530    5.8480  -27.9470 C.3   241  SER241      0.2055
     45  C          2.6860    5.4230  -28.5540 C.2   241  SER241      0.2643
     46  O          2.8700    4.2510  -28.8830 O.2   241  SER241     -0.2714
     47  CB         0.4940    6.5550  -28.9970 C.3   241  SER241      0.2130
     48  OG        -0.7870    6.8670  -28.4800 O.3   241  SER241     -0.2179
     49  N          3.6110    6.3740  -28.6830 N.am  242  THR242     -0.1950
     50  CA         4.9330    6.1040  -29.2520 C.3   242  THR242      0.1897
     51  C          5.7700    5.1500  -28.3990 C.2   242  THR242      0.2313
     52  O          6.5630    4.3780  -28.9360 O.2   242  THR242     -0.2863
     53  CB         5.7350    7.3960  -29.5370 C.3   242  THR242      0.1794
     54  OG1        5.3990    8.3970  -28.5710 O.3   242  THR242     -0.2208
     55  CG2        5.4230    7.9270  -30.9310 C.3   242  THR242      0.0378
     56  N         10.1600   11.0960  -20.5340 N.3   307  ASN307     -0.1225
     57  CA        10.2070   10.9130  -21.9810 C.3   307  ASN307      0.1785
     58  C         10.7500   12.1270  -22.7300 C.2   307  ASN307      0.2597
     59  O         10.8300   13.2240  -22.1730 O.2   307  ASN307     -0.2718
     60  CB         8.8130   10.5590  -22.5070 C.3   307  ASN307      0.1169
     61  CG         8.8330   10.0650  -23.9490 C.2   307  ASN307      0.2627
     62  OD1        9.8460    9.5490  -24.4320 O.2   307  ASN307     -0.2716
     63  ND2        7.7080   10.2210  -24.6410 N.am  307  ASN307     -0.0877
     64  N         11.1030   11.9160  -24.0000 N.am  308  LYS308     -0.1980
     65  CA        11.6480   12.9570  -24.8780 C.3   308  LYS308      0.1596
     66  C         12.9560   13.5030  -24.3050 C.2   308  LYS308      0.2287
     67  O         13.0940   14.6980  -24.0510 O.2   308  LYS308     -0.2864
     68  CB        10.6230   14.0740  -25.1340 C.3   308  LYS308      0.0298
     69  CG         9.2340   13.5830  -25.5210 C.3   308  LYS308      0.0038
     70  CD         8.3570   14.7170  -26.0230 C.3   308  LYS308      0.0206
     71  CE         6.9000   14.2870  -26.1230 C.3   308  LYS308      0.1093
     72  NZ         6.0190   15.3980  -26.5880 N.3   308  LYS308     -0.1314
     73  N         15.7050   13.4110  -25.8490 N.3   310  ASP310     -0.1225
     74  CA        16.4630   13.9290  -26.9790 C.3   310  ASP310      0.1805
     75  C         16.2080   15.4140  -27.2470 C.2   310  ASP310      0.2597
     76  O         17.0900   16.1060  -27.7480 O.2   310  ASP310     -0.2718
     77  CB        16.1790   13.1000  -28.2360 C.3   310  ASP310      0.1424
     78  CG        14.7190   13.1590  -28.6670 C.2   310  ASP310      0.3668
     79  OD1       13.8260   13.3280  -27.8040 O.co2 310  ASP310     -0.2456
     80  OD2       14.4680   13.0260  -29.8830 O.co2 310  ASP310     -0.2456
     81  N         15.0090   15.8980  -26.9270 N.am  311  ARG311     -0.1979
     82  CA        14.7060   17.3240  -27.0630 C.3   311  ARG311      0.1597
     83  C         15.3290   18.1490  -25.9360 C.2   311  ARG311      0.2287
     84  O         15.6010   19.3380  -26.1150 O.2   311  ARG311     -0.2864
     85  CB        13.1910   17.5880  -27.1540 C.3   311  ARG311      0.0334
     86  CG        12.3370   17.1800  -25.9240 C.3   311  ARG311      0.0492
     87  CD        12.2640   18.2190  -24.7710 C.3   311  ARG311      0.2205
     88  NE        11.7770   19.5300  -25.2050 N.pl3 311  ARG311     -0.0865
     89  CZ        12.4490   20.6770  -25.0790 C.cat 311  ARG311      0.5346
     90  NH1       11.9170   21.8070  -25.5240 N.pl3 311  ARG311      0.1354
     91  NH2       13.6480   20.7070  -24.5080 N.pl3 311  ARG311      0.1354
     92  N         13.8260    8.2400  -24.5020 N.3   334  SER334     -0.1202
     93  CA        13.3430    8.8520  -25.7380 C.3   334  SER334      0.2020
     94  C         12.5890    7.8180  -26.5730 C.2   334  SER334      0.2619
     95  O         13.1880    6.8950  -27.1190 O.2   334  SER334     -0.2717
     96  CB        14.4780    9.4880  -26.5310 C.3   334  SER334      0.2103
     97  OG        13.9460   10.3470  -27.5210 O.3   334  SER334     -0.2182
     98  N         11.2710    7.9880  -26.6550 N.am  335  ALA335     -0.1965
     99  CA        10.3660    6.9750  -27.2050 C.3   335  ALA335      0.1728
    100  C         10.4490    6.7970  -28.7200 C.2   335  ALA335      0.2616
    101  O         10.4200    5.6650  -29.2030 O.2   335  ALA335     -0.2715
    102  CB         8.9230    7.2430  -26.7690 C.3   335  ALA335      0.0334
    103  N         10.5380    7.8940  -29.4700 N.am  336  LEU336     -0.1977
    104  CA        10.7170    7.7850  -30.9230 C.3   336  LEU336      0.1596
    105  C         12.1660    7.4270  -31.2580 C.2   336  LEU336      0.2287
    106  O         12.4350    6.7410  -32.2430 O.2   336  LEU336     -0.2864
    107  CB        10.2560    9.0570  -31.6590 C.3   336  LEU336      0.0297
    108  CG        11.1120   10.3240  -31.7990 C.3   336  LEU336      0.0022
    109  CD1       12.1290   10.2080  -32.9300 C.3   336  LEU336      0.0001
    110  CD2       10.2090   11.5150  -32.0440 C.3   336  LEU336      0.0001
@<TRIPOS>BOND
     1   109   108    1
     2   106   105    2
     3   110   108    1
     4   108   107    1
     5   107   104    1
     6   105   104    1
     7    55    53    1
     8   104   103    1
     9    80    78   ar
    10    53    50    1
    11    53    54    1
    12   103   100   am
    13    50    49    1
    14    50    51    1
    15   101   100    2
    16    47    48    1
    17    47    44    1
    18    52    51    2
    19    46    45    2
    20   100    99    1
    21    49    45   am
    22    78    77    1
    23    78    79   ar
    24    45    44    1
    25    77    74    1
    26    23    22    2
    27    44    43    1
    28    24    22   am
    29    76    75    2
    30    22    21    1
    31    97    96    1
    32    75    74    1
    33    75    81   am
    34    99   102    1
    35    99    98    1
    36    85    82    1
    37    85    86    1
    38    95    94    2
    39    82    81    1
    40    82    83    1
    41    74    73    1
    42    43    36   am
    43    98    94   am
    44    72    71    1
    45    94    93    1
    46    96    93    1
    47    21    18    1
    48    71    70    1
    49    84    83    2
    50    70    69    1
    51    86    87    1
    52    93    92    1
    53    31    32    1
    54    31    30    1
    55    36    37    2
    56    36    35    1
    57    90    89    1
    58    69    68    1
    59    33    32    2
    60    32    34   am
    61    18    17    1
    62    18    19    1
    63    88    89    2
    64    88    87    1
    65    68    65    1
    66    89    91    1
    67    34    35    1
    68    65    66    1
    69    65    64    1
    70    30    27   am
    71    17    12   am
    72    63    61   am
    73    35    38    1
    74    19    20    2
    75    19    25   am
    76    62    61    2
    77    66    67    2
    78    64    58   am
    79    61    60    1
    80    25    26    1
    81    27    28    2
    82    27    26    1
    83    38    39    1
    84    12    13    2
    85    12    11    1
    86    14    11    1
    87    14    15    1
    88    11    10    1
    89    26    29    1
    90    58    59    2
    91    58    57    1
    92    60    57    1
    93    39    40    1
    94     4     3    2
    95    41    40    1
    96    41    42    1
    97    57    56    1
    98    15    16    1
    99    10     3   am
   100    10    16    1
   101     3     2    1
   102     2     1    1
   103     2     5    1
   104     5     6    1
   105     6     7    1
   106     7     8    1
   107     8     9    1
