@<TRIPOS>MOLECULE
tmp/3genA00.pdb
 159 147 0 0 0
SMALL
GASTEIGER

@<TRIPOS>ATOM
      1  N        -10.6270    1.5470  -19.7160 N.3    17  LEU17      -0.1231
      2  CA       -11.1360    2.8090  -20.2430 C.3    17  LEU17       0.1693
      3  C        -10.2900    4.0000  -19.8050 C.2    17  LEU17       0.2592
      4  O        -10.3130    5.0550  -20.4370 O.2    17  LEU17      -0.2718
      5  CB       -12.5910    3.0080  -19.8180 C.3    17  LEU17       0.0284
      6  CG       -13.6280    1.9880  -20.2940 C.3    17  LEU17       0.0019
      7  CD1      -14.9810    2.3010  -19.6760 C.3    17  LEU17       0.0001
      8  CD2      -13.7190    1.9470  -21.8150 C.3    17  LEU17       0.0001
      9  N         -9.5440    3.8250  -18.7210 N.am   18  GLY18      -0.1957
     10  CA        -8.7050    4.8950  -18.1870 C.3    18  GLY18       0.1869
     11  C         -8.8770    5.0080  -16.6900 C.2    18  GLY18       0.2309
     12  O         -9.0350    4.0030  -16.0050 O.2    18  GLY18      -0.2863
     13  N        -10.8020    2.5060  -14.4560 N.3    22  VAL22      -0.1245
     14  CA       -12.1610    2.1960  -14.8750 C.3    22  VAL22       0.1561
     15  C        -12.0920    1.2250  -16.0400 C.2    22  VAL22       0.2260
     16  O        -11.3120    1.4230  -16.9770 O.2    22  VAL22      -0.2867
     17  CB       -12.9320    3.4670  -15.3070 C.3    22  VAL22       0.0252
     18  CG1      -14.3330    3.1170  -15.8110 C.3    22  VAL22       0.0019
     19  CG2      -13.0040    4.4670  -14.1550 C.3    22  VAL22       0.0019
     20  N        -19.7920   -0.2990  -16.7490 N.3    34  ALA34      -0.1245
     21  CA       -18.4790    0.2350  -16.4140 C.3    34  ALA34       0.1562
     22  C        -18.1710   -0.1820  -14.9830 C.2    34  ALA34       0.2260
     23  O        -19.0640   -0.2110  -14.1370 O.2    34  ALA34      -0.2867
     24  CB       -18.4600    1.7550  -16.5370 C.3    34  ALA34       0.0290
     25  N        -15.7240    0.9240  -12.0050 N.3    36  LYS36      -0.1245
     26  CA       -14.7720    1.8440  -11.3950 C.3    36  LYS36       0.1561
     27  C        -14.1690    1.1660  -10.1730 C.2    36  LYS36       0.2260
     28  O        -14.8800    0.8430   -9.2230 O.2    36  LYS36      -0.2867
     29  CB       -15.4660    3.1530  -11.0020 C.3    36  LYS36       0.0271
     30  CG       -14.5720    4.1750  -10.3130 C.3    36  LYS36       0.0035
     31  CD       -15.3030    5.5020  -10.1670 C.3    36  LYS36       0.0206
     32  CE       -14.3550    6.6270   -9.8230 C.3    36  LYS36       0.1093
     33  NZ       -14.8740    7.9510  -10.2980 N.3    36  LYS36      -0.1314
     34  N        -27.4760    6.6140   -2.9370 N.3    55  MET55      -0.1245
     35  CA       -27.2090    6.8370   -4.3580 C.3    55  MET55       0.1570
     36  C        -27.9330    5.8440   -5.2660 C.2    55  MET55       0.2261
     37  O        -28.3020    6.1840   -6.3940 O.2    55  MET55      -0.2867
     38  CB       -25.7060    6.7990   -4.6230 C.3    55  MET55       0.0387
     39  CG       -24.9380    7.9180   -3.9340 C.3    55  MET55       0.0595
     40  SD       -23.1690    7.6020   -3.8920 S.3    55  MET55      -0.1393
     41  CE       -22.7730    7.7080   -5.6350 C.3    55  MET55       0.0692
     42  N        -25.9110    9.3050  -14.4530 N.3    64  VAL64      -0.1245
     43  CA       -25.2730    7.9990  -14.6030 C.3    64  VAL64       0.1561
     44  C        -25.8310    7.0670  -13.5200 C.2    64  VAL64       0.2260
     45  O        -25.8140    7.4000  -12.3370 O.2    64  VAL64      -0.2867
     46  CB       -23.7390    8.1200  -14.5290 C.3    64  VAL64       0.0252
     47  CG1      -23.0700    6.7480  -14.4260 C.3    64  VAL64       0.0019
     48  CG2      -23.2230    8.8680  -15.7520 C.3    64  VAL64       0.0019
     49  N        -26.1250    4.0690  -10.9800 N.3    66  LEU66      -0.1245
     50  CA       -25.2920    3.2250  -10.1200 C.3    66  LEU66       0.1561
     51  C        -25.9690    1.8710   -9.9430 C.2    66  LEU66       0.2260
     52  O        -27.0170    1.7840   -9.3010 O.2    66  LEU66      -0.2867
     53  CB       -25.0920    3.8880   -8.7470 C.3    66  LEU66       0.0270
     54  CG       -24.3360    3.0990   -7.6640 C.3    66  LEU66       0.0019
     55  CD1      -22.8530    3.4060   -7.7540 C.3    66  LEU66       0.0001
     56  CD2      -24.8330    3.4330   -6.2640 C.3    66  LEU66       0.0001
     57  N        -17.2290    0.0790   -8.1340 N.3    78  ILE78      -0.1245
     58  CA       -18.4870    0.7770   -8.3660 C.3    78  ILE78       0.1561
     59  C        -18.9720    0.4050   -9.7660 C.2    78  ILE78       0.2260
     60  O        -18.2910    0.6700  -10.7600 O.2    78  ILE78      -0.2867
     61  CB       -18.3310    2.3140   -8.2610 C.3    78  ILE78       0.0252
     62  CG1      -17.6900    2.7080   -6.9250 C.3    78  ILE78       0.0019
     63  CG2      -19.6780    2.9920   -8.4450 C.3    78  ILE78       0.0019
     64  CD1      -17.3160    4.1890   -6.8290 C.3    78  ILE78       0.0001
     65  N        -21.5050    0.7450  -12.8500 N.3    80  THR80      -0.1203
     66  CA       -22.4080    1.7400  -13.4130 C.3    80  THR80       0.1994
     67  C        -22.7690    1.4740  -14.8720 C.2    80  THR80       0.2618
     68  O        -22.1550    0.6530  -15.5600 O.2    80  THR80      -0.2717
     69  CB       -21.8230    3.1850  -13.3210 C.3    80  THR80       0.1784
     70  OG1      -20.8070    3.3670  -14.3180 O.3    80  THR80      -0.2211
     71  CG2      -21.2670    3.4930  -11.9250 C.3    80  THR80       0.0376
     72  N        -23.7930    2.1910  -15.3150 N.am   81  GLU81      -0.1965
     73  CA       -24.1010    2.3980  -16.7130 C.3    81  GLU81       0.1733
     74  C        -22.8190    2.6760  -17.5070 C.2    81  GLU81       0.2616
     75  O        -21.9540    3.4190  -17.0460 O.2    81  GLU81      -0.2715
     76  CB       -25.0260    3.6120  -16.7660 C.3    81  GLU81       0.0429
     77  CG       -25.3660    4.1500  -18.1170 C.3    81  GLU81       0.1163
     78  CD       -26.4910    5.1610  -18.0490 C.2    81  GLU81       0.3649
     79  OE1      -26.7630    5.7080  -16.9530 O.co2  81  GLU81      -0.2457
     80  OE2      -27.1100    5.3920  -19.0970 O.co2  81  GLU81      -0.2457
     81  N        -22.7010    2.0560  -18.6810 N.am   82  TYR82      -0.1960
     82  CA       -21.5560    2.2580  -19.5700 C.3    82  TYR82       0.1771
     83  C        -21.8120    3.4230  -20.5160 C.2    82  TYR82       0.2619
     84  O        -22.8290    3.4530  -21.2040 O.2    82  TYR82      -0.2715
     85  CB       -21.2470    0.9840  -20.3690 C.3    82  TYR82       0.0574
     86  CG       -20.1960    1.1660  -21.4480 C.ar   82  TYR82      -0.0198
     87  CD1      -18.9170    1.6360  -21.1340 C.ar   82  TYR82      -0.0009
     88  CD2      -20.4770    0.8790  -22.7830 C.ar   82  TYR82      -0.0009
     89  CE1      -17.9470    1.8070  -22.1150 C.ar   82  TYR82       0.0417
     90  CE2      -19.5090    1.0490  -23.7770 C.ar   82  TYR82       0.0417
     91  CZ       -18.2470    1.5130  -23.4310 C.ar   82  TYR82       0.1957
     92  OH       -17.2810    1.6880  -24.3960 O.3    82  TYR82      -0.2866
     93  N        -20.8740    4.3690  -20.5550 N.am   83  MET83      -0.1977
     94  CA       -21.0290    5.5830  -21.3540 C.3    83  MET83       0.1605
     95  C        -19.9830    5.6060  -22.4750 C.2    83  MET83       0.2287
     96  O        -18.8470    6.0530  -22.2800 O.2    83  MET83      -0.2864
     97  CB       -20.9190    6.8170  -20.4530 C.3    83  MET83       0.0413
     98  CG       -21.9570    6.8530  -19.3220 C.3    83  MET83       0.0598
     99  SD       -23.6530    7.1250  -19.8760 S.3    83  MET83      -0.1393
    100  CE       -23.5640    8.8730  -20.2610 C.3    83  MET83       0.0692
    101  N        -17.3800    8.3680  -23.3460 N.3    86  GLY86      -0.1210
    102  CA       -16.4400    8.7620  -22.3020 C.3    86  GLY86       0.1956
    103  C        -16.6910   10.1120  -21.6740 C.2    86  GLY86       0.2612
    104  O        -17.8270   10.6050  -21.6440 O.2    86  GLY86      -0.2717
    105  N        -15.6050   10.7250  -21.2170 N.am   87  CYS87      -0.1970
    106  CA       -15.6460   11.9800  -20.4750 C.3    87  CYS87       0.1712
    107  C        -16.0720   13.1660  -21.3470 C.2    87  CYS87       0.2296
    108  O        -15.5700   13.3220  -22.4640 O.2    87  CYS87      -0.2864
    109  CB       -14.2670   12.2370  -19.8870 C.3    87  CYS87       0.0983
    110  SG       -14.2070   13.7000  -18.8980 S.3    87  CYS87      -0.0798
    111  N        -13.1180   15.5060  -22.7020 N.3    90  ASN90      -0.1240
    112  CA       -12.4100   14.9550  -23.8490 C.3    90  ASN90       0.1653
    113  C        -13.2480   15.0460  -25.1160 C.2    90  ASN90       0.2266
    114  O        -12.7420   15.3870  -26.1740 O.2    90  ASN90      -0.2867
    115  CB       -12.0040   13.5080  -23.5780 C.3    90  ASN90       0.1155
    116  CG       -10.9190   13.3930  -22.5200 C.2    90  ASN90       0.2627
    117  OD1      -10.2720   14.3810  -22.1540 O.2    90  ASN90      -0.2716
    118  ND2      -10.7120   12.1760  -22.0230 N.am   90  ASN90      -0.0877
    119  N        -20.2910   12.4240  -18.4000 N.3   134  LEU134     -0.1245
    120  CA       -20.0080   11.3640  -19.3650 C.3   134  LEU134      0.1561
    121  C        -20.9670   11.4370  -20.5450 C.2   134  LEU134      0.2260
    122  O        -22.0450   12.0100  -20.4390 O.2   134  LEU134     -0.2867
    123  CB       -20.1120    9.9980  -18.6930 C.3   134  LEU134      0.0270
    124  CG       -19.0960    9.7060  -17.5800 C.3   134  LEU134      0.0019
    125  CD1      -19.5330    8.5130  -16.7200 C.3   134  LEU134      0.0001
    126  CD2      -17.7020    9.4860  -18.1570 C.3   134  LEU134      0.0001
    127  N        -22.0970   12.5490  -13.4910 N.3   144  SER144     -0.1202
    128  CA       -21.4160   11.4100  -12.8830 C.3   144  SER144      0.2020
    129  C        -20.6470   11.8530  -11.6410 C.2   144  SER144      0.2619
    130  O        -20.5050   13.0530  -11.3870 O.2   144  SER144     -0.2717
    131  CB       -20.4570   10.7870  -13.9000 C.3   144  SER144      0.2103
    132  OG       -19.9160    9.5540  -13.4540 O.3   144  SER144     -0.2182
    133  N        -20.1610   10.8720  -10.8750 N.am  145  ASP145     -0.1959
    134  CA       -19.3520   11.1080   -9.6710 C.3   145  ASP145      0.1840
    135  C        -20.0470   11.9990   -8.6410 C.2   145  ASP145      0.2622
    136  O        -19.3820   12.6540   -7.8190 O.2   145  ASP145     -0.2715
    137  CB       -17.9820   11.6970  -10.0480 C.3   145  ASP145      0.1450
    138  CG       -16.9600   10.6330  -10.4280 C.2   145  ASP145      0.3671
    139  OD1      -17.2580    9.4230  -10.3440 O.co2 145  ASP145     -0.2456
    140  OD2      -15.8350   11.0220  -10.8010 O.co2 145  ASP145     -0.2456
    141  N        -21.3790   12.0140   -8.6700 N.am  146  PHE146     -0.1974
    142  CA       -22.1320   12.9410   -7.8280 C.3   146  PHE146      0.1639
    143  C        -21.9390   12.6490   -6.3500 C.2   146  PHE146      0.2290
    144  O        -22.1960   11.5370   -5.8930 O.2   146  PHE146     -0.2864
    145  CB       -23.6240   12.9860   -8.1960 C.3   146  PHE146      0.0560
    146  CG       -24.2000   11.6630   -8.6200 C.ar  146  PHE146     -0.0200
    147  CD1      -24.1740   11.2770   -9.9600 C.ar  146  PHE146     -0.0042
    148  CD2      -24.7980   10.8170   -7.6950 C.ar  146  PHE146     -0.0042
    149  CE1      -24.7160   10.0560  -10.3660 C.ar  146  PHE146     -0.0003
    150  CE2      -25.3480    9.5950   -8.0920 C.ar  146  PHE146     -0.0003
    151  CZ       -25.3060    9.2140   -9.4300 C.ar  146  PHE146     -0.0000
    152  N        -19.2610   12.2510   -4.7140 N.3   148  LEU148     -0.1245
    153  CA       -18.1370   11.3510   -4.4210 C.3   148  LEU148      0.1561
    154  C        -16.9600   12.0330   -3.7290 C.2   148  LEU148      0.2260
    155  O        -16.2160   11.3780   -2.9890 O.2   148  LEU148     -0.2867
    156  CB       -17.6820   10.6230   -5.7010 C.3   148  LEU148      0.0270
    157  CG       -16.9630    9.2750   -5.5830 C.3   148  LEU148      0.0019
    158  CD1      -17.7470    8.2830   -4.7280 C.3   148  LEU148      0.0001
    159  CD2      -16.7270    8.7060   -6.9740 C.3   148  LEU148      0.0001
@<TRIPOS>BOND
     1   114   113    2
     2   113   112    1
     3    92    91    1
     4   112   115    1
     5   112   111    1
     6    90    91   ar
     7    90    88   ar
     8   115   116    1
     9    91    89   ar
    10   101   102    1
    11    88    86   ar
    12   116   117    2
    13   116   118   am
    14    95    96    2
    15    95    94    1
    16   108   107    2
    17   102   103    1
    18    89    87   ar
    19     8     6    1
    20   103   104    2
    21   103   105   am
    22    86    87   ar
    23    86    85    1
    24    94    93    1
    25    94    97    1
    26   107   106    1
    27   105   106    1
    28    84    83    2
    29    93    83   am
    30   121   122    2
    31   121   120    1
    32    83    82    1
    33   106   109    1
    34    97    98    1
    35     4     3    2
    36    85    82    1
    37     6     5    1
    38     6     7    1
    39   100    99    1
    40     2     5    1
    41     2     3    1
    42     2     1    1
    43   109   110    1
    44    99    98    1
    45     3     9   am
    46    82    81    1
    47   120   123    1
    48   120   119    1
    49    80    78   ar
    50     9    10    1
    51   123   124    1
    52    81    74   am
    53    10    11    1
    54   126   124    1
    55    77    78    1
    56    77    76    1
    57    78    79   ar
    58   124   125    1
    59    74    75    2
    60    74    73    1
    61    16    15    2
    62    76    73    1
    63    20    21    1
    64    73    72    1
    65    11    12    2
    66    24    21    1
    67    21    22    1
    68    15    14    1
    69    18    17    1
    70    48    46    1
    71    68    67    2
    72    72    67   am
    73    17    14    1
    74    17    19    1
    75    22    23    2
    76    14    13    1
    77    67    66    1
    78    43    46    1
    79    43    42    1
    80    43    44    1
    81    46    47    1
    82    70    69    1
    83   131   132    1
    84   131   128    1
    85    44    45    2
    86   127   128    1
    87    66    69    1
    88    66    65    1
    89    69    71    1
    90   128   129    1
    91    25    26    1
    92   129   130    2
    93   129   133   am
    94    26    29    1
    95    26    27    1
    96    29    30    1
    97    49    50    1
    98   133   134    1
    99   140   138   ar
   100    60    59    2
   101   138   139   ar
   102   138   137    1
   103   149   147   ar
   104   149   151   ar
   105    30    31    1
   106    33    32    1
   107    27    28    2
   108    31    32    1
   109    50    51    1
   110    50    53    1
   111   137   134    1
   112   147   146   ar
   113    51    52    2
   114    59    58    1
   115   134   135    1
   116   151   150   ar
   117    53    54    1
   118   141   135   am
   119   141   142    1
   120   135   136    2
   121   146   145    1
   122   146   148   ar
   123    63    61    1
   124    58    61    1
   125    58    57    1
   126    61    62    1
   127   145   142    1
   128   150   148   ar
   129   142   143    1
   130    55    54    1
   131    54    56    1
   132   159   157    1
   133    62    64    1
   134    37    36    2
   135   143   144    2
   136   156   157    1
   137   156   153    1
   138    41    40    1
   139   157   158    1
   140    36    35    1
   141   152   153    1
   142    38    35    1
   143    38    39    1
   144   153   154    1
   145    35    34    1
   146    39    40    1
   147   154   155    2
