@<TRIPOS>MOLECULE
tmp/3gepB00.pdb
 126 119 0 0 0
SMALL
GASTEIGER

@<TRIPOS>ATOM
      1  N          6.0670    6.9950   14.0940 N.3    96  LEU96      -0.1245
      2  CA         7.4280    6.4990   14.2170 C.3    96  LEU96       0.1561
      3  C          7.9580    6.8580   15.5970 C.2    96  LEU96       0.2260
      4  O          7.9280    8.0210   16.0100 O.2    96  LEU96      -0.2867
      5  CB         8.3220    7.0760   13.1080 C.3    96  LEU96       0.0270
      6  CG         9.7730    6.5920   12.9750 C.3    96  LEU96       0.0019
      7  CD1       10.2300    6.6080   11.5210 C.3    96  LEU96       0.0001
      8  CD2       10.7130    7.4160   13.8420 C.3    96  LEU96       0.0001
      9  N         11.3220    6.0990   18.3170 N.3    98  SER98      -0.1217
     10  CA        12.6690    5.5820   18.5280 C.3    98  SER98       0.1889
     11  C         12.8740    5.2480   19.9950 C.2    98  SER98       0.2288
     12  O         12.3290    5.9190   20.8710 O.2    98  SER98      -0.2866
     13  CB        13.7270    6.5970   18.0810 C.3    98  SER98       0.2089
     14  OG        13.7400    6.7420   16.6750 O.3    98  SER98      -0.2183
     15  N         13.5200    1.1830   15.9180 N.3   109  LYS109     -0.1245
     16  CA        12.3880    1.9530   15.3860 C.3   109  LYS109      0.1561
     17  C         11.1030    1.1440   15.5270 C.2   109  LYS109      0.2260
     18  O         11.0920   -0.0610   15.2470 O.2   109  LYS109     -0.2867
     19  CB        12.5910    2.3130   13.9070 C.3   109  LYS109      0.0271
     20  CG        13.6850    3.3350   13.6170 C.3   109  LYS109      0.0035
     21  CD        13.2400    4.7530   13.9240 C.3   109  LYS109      0.0206
     22  CE        14.3720    5.7420   13.7180 C.3   109  LYS109      0.1093
     23  NZ        15.5040    5.4680   14.6500 N.3   109  LYS109     -0.1314
     24  N         10.5090   16.1730    8.3100 N.3   127  GLU127     -0.1245
     25  CA        11.1210   15.8530    9.5970 C.3   127  GLU127      0.1567
     26  C         11.3810   17.1150   10.4170 C.2   127  GLU127      0.2260
     27  O         11.3080   18.2220    9.8940 O.2   127  GLU127     -0.2867
     28  CB        12.4380   15.1190    9.3880 C.3   127  GLU127      0.0388
     29  CG        12.2800   13.7040    8.9180 C.3   127  GLU127      0.1160
     30  CD        13.6060   13.0270    8.7470 C.2   127  GLU127      0.3649
     31  OE1       14.2720   12.6770    9.7240 O.co2 127  GLU127     -0.2457
     32  OE2       14.0100   12.8450    7.5050 O.co2 127  GLU127     -0.2457
     33  N         14.2840   17.1900   12.8140 N.3   129  ILE129     -0.1231
     34  CA        15.7290   17.2620   13.0310 C.3   129  ILE129      0.1692
     35  C         16.4320   16.0190   12.4890 C.2   129  ILE129      0.2592
     36  O         15.9590   14.8960   12.6590 O.2   129  ILE129     -0.2718
     37  CB        16.0970   17.4900   14.5440 C.3   129  ILE129      0.0266
     38  CG1       17.6130   17.6600   14.7180 C.3   129  ILE129      0.0019
     39  CG2       15.5580   16.3520   15.4310 C.3   129  ILE129      0.0020
     40  CD1       18.0220   18.4990   15.9000 C.3   129  ILE129      0.0001
     41  N         17.5610   16.2340   11.8260 N.am  130  ILE130     -0.1966
     42  CA        18.4120   15.1340   11.3970 C.3   130  ILE130      0.1727
     43  C         19.7060   15.1880   12.1930 C.2   130  ILE130      0.2616
     44  O         20.4190   16.2020   12.1880 O.2   130  ILE130     -0.2715
     45  CB        18.6590   15.1440    9.8690 C.3   130  ILE130      0.0290
     46  CG1       17.3320   14.8870    9.1440 C.3   130  ILE130      0.0022
     47  CG2       19.6860   14.0890    9.4820 C.3   130  ILE130      0.0023
     48  CD1       17.3320   15.1910    7.6770 C.3   130  ILE130      0.0001
     49  N         19.9780   14.0950   12.8970 N.am  131  ASP131     -0.1957
     50  CA        21.1750   13.9650   13.7140 C.3   131  ASP131      0.1840
     51  C         21.9830   12.7900   13.1720 C.2   131  ASP131      0.2623
     52  O         22.9350   12.9930   12.4120 O.2   131  ASP131     -0.2715
     53  CB        20.7940   13.7800   15.1900 C.3   131  ASP131      0.1450
     54  CG        22.0070   13.6290   16.1070 C.2   131  ASP131      0.3671
     55  OD1       23.1590   13.6160   15.6180 O.co2 131  ASP131     -0.2456
     56  OD2       21.8040   13.4980   17.3340 O.co2 131  ASP131     -0.2456
     57  N         21.5940   11.5680   13.5420 N.am  132  THR132     -0.1937
     58  CA        22.2240   10.3710   12.9830 C.3   132  THR132      0.2028
     59  C         21.7510   10.1180   11.5550 C.2   132  THR132      0.2643
     60  O         22.4990    9.5900   10.7370 O.2   132  THR132     -0.2714
     61  CB        21.9610    9.1070   13.8250 C.3   132  THR132      0.1808
     62  OG1       20.5890    8.7240   13.6960 O.3   132  THR132     -0.2208
     63  CG2       22.3080    9.3370   15.2970 C.3   132  THR132      0.0379
     64  N         20.5040   10.4930   11.2680 N.am  133  GLY133     -0.1939
     65  CA        19.9160   10.2950    9.9430 C.3   133  GLY133      0.2014
     66  C         19.2220    8.9550    9.7770 C.2   133  GLY133      0.2639
     67  O         18.8570    8.5750    8.6690 O.2   133  GLY133     -0.2714
     68  N         19.0410    8.2430   10.8860 N.am  134  LYS134     -0.1963
     69  CA        18.3810    6.9350   10.8800 C.3   134  LYS134      0.1728
     70  C         16.8650    7.0270   10.7460 C.2   134  LYS134      0.2616
     71  O         16.2510    6.1230   10.1950 O.2   134  LYS134     -0.2715
     72  CB        18.7640    6.1230   12.1220 C.3   134  LYS134      0.0311
     73  CG        19.5130    4.8450   11.7990 C.3   134  LYS134      0.0038
     74  CD        20.4390    4.4310   12.9260 C.3   134  LYS134      0.0206
     75  CE        21.8930    4.7250   12.5880 C.3   134  LYS134      0.1093
     76  NZ        22.7900    4.2890   13.6900 N.3   134  LYS134     -0.1314
     77  N         16.2690    8.1060   11.2570 N.am  135  THR135     -0.1951
     78  CA        14.8330    8.3560   11.0910 C.3   135  THR135      0.1897
     79  C         14.5340    8.6280    9.6180 C.2   135  THR135      0.2313
     80  O         13.5960    8.0570    9.0450 O.2   135  THR135     -0.2863
     81  CB        14.3480    9.5520   11.9530 C.3   135  THR135      0.1794
     82  OG1       14.6710    9.3210   13.3230 O.3   135  THR135     -0.2208
     83  CG2       12.8420    9.7490   11.8360 C.3   135  THR135      0.0378
     84  N         21.8720   18.7360   12.2200 N.3   159  LYS159     -0.1245
     85  CA        23.0320   18.8860   13.1060 C.3   159  LYS159      0.1561
     86  C         24.3380   18.6430   12.3760 C.2   159  LYS159      0.2260
     87  O         24.4260   17.7520   11.5280 O.2   159  LYS159     -0.2867
     88  CB        22.9680   17.8960   14.2620 C.3   159  LYS159      0.0271
     89  CG        22.0330   18.2500   15.3800 C.3   159  LYS159      0.0035
     90  CD        22.3110   17.3280   16.5540 C.3   159  LYS159      0.0206
     91  CE        21.2660   17.4890   17.6150 C.3   159  LYS159      0.1093
     92  NZ        21.5660   16.6710   18.8090 N.3   159  LYS159     -0.1314
     93  N         22.2260   19.3500   21.9370 N.3   180  PHE180     -0.1227
     94  CA        20.8820   18.8260   22.1280 C.3   180  PHE180      0.1736
     95  C         19.9080   19.9770   22.3380 C.2   180  PHE180      0.2595
     96  O         20.0400   20.7570   23.2830 O.2   180  PHE180     -0.2718
     97  CB        20.8180   17.8580   23.3150 C.3   180  PHE180      0.0547
     98  CG        19.5650   17.0170   23.3400 C.ar  180  PHE180     -0.0202
     99  CD1       19.5600   15.7430   22.7850 C.ar  180  PHE180     -0.0042
    100  CD2       18.3920   17.5020   23.9110 C.ar  180  PHE180     -0.0042
    101  CE1       18.4060   14.9660   22.8010 C.ar  180  PHE180     -0.0003
    102  CE2       17.2430   16.7350   23.9340 C.ar  180  PHE180     -0.0003
    103  CZ        17.2550   15.4580   23.3750 C.ar  180  PHE180     -0.0000
    104  N         18.9220   20.0520   21.4520 N.am  181  VAL181     -0.1980
    105  CA        18.0170   21.1840   21.3820 C.3   181  VAL181      0.1595
    106  C         16.5850   20.8060   21.7230 C.2   181  VAL181      0.2287
    107  O         16.1550   19.6660   21.5400 O.2   181  VAL181     -0.2864
    108  CB        18.1080   21.9090   20.0090 C.3   181  VAL181      0.0276
    109  CG1       19.4540   22.6480   19.8890 C.3   181  VAL181      0.0022
    110  CG2       17.9290   20.9290   18.8500 C.3   181  VAL181      0.0022
    111  N         10.3980   20.4100   19.2970 N.3   186  LEU186     -0.1231
    112  CA        11.1260   19.3810   20.0380 C.3   186  LEU186      0.1693
    113  C         10.8600   19.4840   21.5380 C.2   186  LEU186      0.2592
    114  O         11.0150   20.5460   22.1310 O.2   186  LEU186     -0.2718
    115  CB        12.6350   19.4650   19.7480 C.3   186  LEU186      0.0284
    116  CG        13.1880   19.2310   18.3240 C.3   186  LEU186      0.0019
    117  CD1       12.8010   17.8590   17.7440 C.3   186  LEU186      0.0001
    118  CD2       12.7790   20.3500   17.3710 C.3   186  LEU186      0.0001
    119  N         10.4330   18.3810   22.1380 N.am  187  ASP187     -0.1974
    120  CA        10.1580   18.3450   23.5700 C.3   187  ASP187      0.1709
    121  C         11.2860   17.6240   24.3010 C.2   187  ASP187      0.2293
    122  O         12.2090   17.1030   23.6770 O.2   187  ASP187     -0.2864
    123  CB         8.8080   17.6630   23.8460 C.3   187  ASP187      0.1436
    124  CG         8.8770   16.1340   23.7150 C.2   187  ASP187      0.3671
    125  OD1        9.2040   15.6330   22.6140 O.co2 187  ASP187     -0.2456
    126  OD2        8.6070   15.4340   24.7140 O.co2 187  ASP187     -0.2456
@<TRIPOS>BOND
     1    32    30   ar
     2    48    46    1
     3    24    25    1
     4    67    66    2
     5    30    29    1
     6    30    31   ar
     7    29    28    1
     8    80    79    2
     9    46    45    1
    10    28    25    1
    11    47    45    1
    12    25    26    1
    13    79    78    1
    14    66    65    1
    15    66    68   am
    16    45    42    1
    17    27    26    2
    18    65    64    1
    19    71    70    2
    20    60    59    2
    21    70    69    1
    22    70    77   am
    23    69    68    1
    24    69    72    1
    25    78    77    1
    26    78    81    1
    27    64    59   am
    28    42    41    1
    29    42    43    1
    30     7     6    1
    31    87    86    2
    32    59    58    1
    33    73    72    1
    34    73    74    1
    35    41    35   am
    36    83    81    1
    37    81    82    1
    38    44    43    2
    39    43    49   am
    40    84    85    1
    41    86    85    1
    42    52    51    2
    43    35    36    2
    44    35    34    1
    45    75    74    1
    46    75    76    1
    47    33    34    1
    48    49    50    1
    49     6     5    1
    50     6     8    1
    51    58    57    1
    52    58    61    1
    53    34    37    1
    54    85    88    1
    55     5     2    1
    56    51    57   am
    57    51    50    1
    58    20    19    1
    59    20    21    1
    60    62    61    1
    61    50    53    1
    62    22    21    1
    63    22    23    1
    64    61    63    1
    65    19    16    1
    66     1     2    1
    67     2     3    1
    68    88    89    1
    69    37    38    1
    70    37    39    1
    71    38    40    1
    72    53    54    1
    73    18    17    2
    74    89    90    1
    75    16    17    1
    76    16    15    1
    77     3     4    2
    78    55    54   ar
    79    54    56   ar
    80    90    91    1
    81    14    13    1
    82   118   116    1
    83    91    92    1
    84   117   116    1
    85    13    10    1
    86     9    10    1
    87   116   115    1
    88    10    11    1
    89   110   108    1
    90   111   112    1
    91   115   112    1
    92   109   108    1
    93    11    12    2
    94   108   105    1
    95   112   113    1
    96   105   104    1
    97   105   106    1
    98   104    95   am
    99   113   114    2
   100   113   119   am
   101   107   106    2
   102    93    94    1
   103    94    95    1
   104    94    97    1
   105   119   120    1
   106    95    96    2
   107   125   124   ar
   108    99   101   ar
   109    99    98   ar
   110   101   103   ar
   111    97    98    1
   112    98   100   ar
   113   103   102   ar
   114   120   123    1
   115   120   121    1
   116   122   121    2
   117   124   123    1
   118   124   126   ar
   119   100   102   ar
