@<TRIPOS>MOLECULE
tmp/3geqA00.pdb
 156 144 0 0 0
SMALL
GASTEIGER

@<TRIPOS>ATOM
      1  N         20.4780   27.0980   -3.2220 N.3    26  LEU26      -0.1231
      2  CA        19.1670   26.4700   -3.3140 C.3    26  LEU26       0.1693
      3  C         18.3640   26.5280   -2.0190 C.2    26  LEU26       0.2592
      4  O         17.1370   26.5660   -2.0460 O.2    26  LEU26      -0.2718
      5  CB        19.3260   25.0080   -3.7430 C.3    26  LEU26       0.0284
      6  CG        19.9700   24.7120   -5.1070 C.3    26  LEU26       0.0019
      7  CD1       20.2730   23.2280   -5.2190 C.3    26  LEU26       0.0001
      8  CD2       19.0450   25.1610   -6.2310 C.3    26  LEU26       0.0001
      9  N         19.0540   26.5330   -0.8850 N.am   27  GLY27      -0.1957
     10  CA        18.3540   26.5590    0.3860 C.3    27  GLY27       0.1869
     11  C         18.9880   27.4160    1.4610 C.2    27  GLY27       0.2309
     12  O         20.1470   27.8220    1.3580 O.2    27  GLY27      -0.2863
     13  N         22.1610   25.5760    1.6490 N.3    34  VAL34      -0.1245
     14  CA        22.3960   24.4670    0.7370 C.3    34  VAL34       0.1561
     15  C         22.6660   25.0080   -0.6590 C.2    34  VAL34       0.2260
     16  O         21.8760   25.7750   -1.2040 O.2    34  VAL34      -0.2867
     17  CB        21.1930   23.5200    0.6710 C.3    34  VAL34       0.0252
     18  CG1       21.4950   22.3740   -0.2790 C.3    34  VAL34       0.0019
     19  CG2       20.8680   22.9930    2.0590 C.3    34  VAL34       0.0019
     20  N         25.4130   18.6950   -4.3170 N.3    46  ALA46      -0.1245
     21  CA        24.7000   19.5570   -3.3910 C.3    46  ALA46       0.1562
     22  C         25.5850   19.6740   -2.1560 C.2    46  ALA46       0.2260
     23  O         26.1390   18.6730   -1.6870 O.2    46  ALA46      -0.2867
     24  CB        23.3560   18.9450   -3.0230 C.3    46  ALA46       0.0290
     25  N         25.7310   21.1860    1.7970 N.3    48  LYS48      -0.1245
     26  CA        25.0490   21.7780    2.9330 C.3    48  LYS48       0.1561
     27  C         26.1450   22.4050    3.7950 C.2    48  LYS48       0.2260
     28  O         27.0550   21.7180    4.2670 O.2    48  LYS48      -0.2867
     29  CB        24.2740   20.7060    3.7070 C.3    48  LYS48       0.0271
     30  CG        23.3320   21.2560    4.7750 C.3    48  LYS48       0.0035
     31  CD        22.3270   20.2030    5.2250 C.3    48  LYS48       0.0206
     32  CE        21.3210   20.7740    6.2140 C.3    48  LYS48       0.1093
     33  NZ        20.2760   19.7780    6.6150 N.3    48  LYS48      -0.1314
     34  N         24.8460   14.8700   11.4920 N.3    63  GLU63      -0.1245
     35  CA        24.0170   14.4820   10.3560 C.3    63  GLU63       0.1567
     36  C         24.8970   13.7930    9.3200 C.2    63  GLU63       0.2260
     37  O         24.4360   12.9400    8.5600 O.2    63  GLU63      -0.2867
     38  CB        23.3430   15.7090    9.7260 C.3    63  GLU63       0.0388
     39  CG        22.7920   15.4500    8.3230 C.3    63  GLU63       0.1160
     40  CD        22.0380   16.6360    7.7500 C.2    63  GLU63       0.3649
     41  OE1       22.5130   17.7790    7.9170 O.co2  63  GLU63      -0.2457
     42  OE2       20.9770   16.4230    7.1200 O.co2  63  GLU63      -0.2457
     43  N         24.6990    9.7940    8.0210 N.3    67  MET67      -0.1245
     44  CA        24.7070    9.5710    6.5840 C.3    67  MET67       0.1570
     45  C         25.8460    8.6750    6.1230 C.2    67  MET67       0.2261
     46  O         25.8460    8.1990    4.9890 O.2    67  MET67      -0.2867
     47  CB        24.7720   10.9040    5.8480 C.3    67  MET67       0.0387
     48  CG        23.5360   11.7560    6.0280 C.3    67  MET67       0.0595
     49  SD        23.6180   13.2350    5.0300 S.3    67  MET67      -0.1393
     50  CE        23.3110   12.5480    3.3780 C.3    67  MET67       0.0692
     51  N         18.9420   10.1970    0.4950 N.3    76  VAL76      -0.1245
     52  CA        19.8830   11.0360   -0.2400 C.3    76  VAL76       0.1561
     53  C         21.2810   10.5080    0.0650 C.2    76  VAL76       0.2260
     54  O         21.6370   10.3010    1.2300 O.2    76  VAL76      -0.2867
     55  CB        19.7790   12.5000    0.1960 C.3    76  VAL76       0.0252
     56  CG1       20.7400   13.3550   -0.6060 C.3    76  VAL76       0.0019
     57  CG2       18.3640   12.9810   -0.0100 C.3    76  VAL76       0.0019
     58  N         29.0510   19.5650    3.5570 N.3    89  ILE89      -0.1245
     59  CA        28.5560   18.2000    3.4370 C.3    89  ILE89       0.1561
     60  C         28.1080   18.0540    1.9880 C.2    89  ILE89       0.2260
     61  O         27.1630   18.7130    1.5550 O.2    89  ILE89      -0.2867
     62  CB        27.3730   17.9520    4.3850 C.3    89  ILE89       0.0252
     63  CG1       27.8050   18.2100    5.8300 C.3    89  ILE89       0.0019
     64  CG2       26.8840   16.5200    4.2490 C.3    89  ILE89       0.0019
     65  CD1       26.6960   18.0140    6.8560 C.3    89  ILE89       0.0001
     66  N         26.6300   15.9020   -1.2660 N.3    91  THR91      -0.1203
     67  CA        25.7290   14.7880   -1.5780 C.3    91  THR91       0.1994
     68  C         25.2360   14.8350   -3.0130 C.2    91  THR91       0.2618
     69  O         25.4350   15.8210   -3.7110 O.2    91  THR91      -0.2717
     70  CB        24.4720   14.8310   -0.6930 C.3    91  THR91       0.1784
     71  OG1       23.6730   15.9680   -1.0650 O.3    91  THR91      -0.2211
     72  CG2       24.8520   14.9480    0.7720 C.3    91  THR91       0.0376
     73  N         24.5750   13.7650   -3.4450 N.am   92  GLU92      -0.1965
     74  CA        24.0170   13.7210   -4.7890 C.3    92  GLU92       0.1733
     75  C         23.0730   14.9120   -4.8750 C.2    92  GLU92       0.2616
     76  O         22.5720   15.3840   -3.8580 O.2    92  GLU92      -0.2715
     77  CB        23.2160   12.4350   -5.0040 C.3    92  GLU92       0.0429
     78  CG        21.8890   12.3850   -4.2420 C.3    92  GLU92       0.1163
     79  CD        21.1340   11.0850   -4.4620 C.2    92  GLU92       0.3649
     80  OE1       20.6470   10.8560   -5.5860 O.co2  92  GLU92      -0.2457
     81  OE2       21.0370   10.2840   -3.5110 O.co2  92  GLU92      -0.2457
     82  N         22.8300   15.3920   -6.0850 N.am   93  TYR93      -0.1960
     83  CA        21.9500   16.5270   -6.2990 C.3    93  TYR93       0.1771
     84  C         20.5680   16.0500   -6.7550 C.2    93  TYR93       0.2619
     85  O         20.4570   15.2680   -7.7000 O.2    93  TYR93      -0.2715
     86  CB        22.5670   17.4470   -7.3550 C.3    93  TYR93       0.0574
     87  CG        21.6830   18.5830   -7.8000 C.ar   93  TYR93      -0.0198
     88  CD1       21.3870   19.6400   -6.9410 C.ar   93  TYR93      -0.0009
     89  CD2       21.1620   18.6140   -9.0950 C.ar   93  TYR93      -0.0009
     90  CE1       20.5980   20.7040   -7.3600 C.ar   93  TYR93       0.0417
     91  CE2       20.3750   19.6710   -9.5240 C.ar   93  TYR93       0.0417
     92  CZ        20.1000   20.7130   -8.6510 C.ar   93  TYR93       0.1957
     93  OH        19.3430   21.7760   -9.0760 O.3    93  TYR93      -0.2866
     94  N         19.5170   16.5020   -6.0730 N.am   94  MET94      -0.1977
     95  CA        18.1550   16.1150   -6.4530 C.3    94  MET94       0.1605
     96  C         17.5970   17.2610   -7.2910 C.2    94  MET94       0.2287
     97  O         17.3080   18.3440   -6.7860 O.2    94  MET94      -0.2864
     98  CB        17.3080   15.8510   -5.2050 C.3    94  MET94       0.0413
     99  CG        17.8630   14.7310   -4.3170 C.3    94  MET94       0.0598
    100  SD        18.1670   13.1520   -5.1860 S.3    94  MET94      -0.1393
    101  CE        16.5030   12.6150   -5.5330 C.3    94  MET94       0.0692
    102  N         14.1720   19.5780   -6.5390 N.3    97  GLY97      -0.1210
    103  CA        14.0150   20.2210   -5.2410 C.3    97  GLY97       0.1956
    104  C         13.2370   19.4250   -4.2000 C.2    97  GLY97       0.2612
    105  O         13.1450   18.2010   -4.2870 O.2    97  GLY97      -0.2717
    106  N         12.6700   20.1210   -3.2180 N.am   98  SER98      -0.1952
    107  CA        11.9080   19.4710   -2.1560 C.3    98  SER98       0.1924
    108  C         10.5460   19.0010   -2.6580 C.2    98  SER98       0.2314
    109  O          9.9950   19.5680   -3.5960 O.2    98  SER98      -0.2863
    110  CB        11.7000   20.4210   -0.9730 C.3    98  SER98       0.2116
    111  OG        10.7290   21.4140   -1.2670 O.3    98  SER98      -0.2180
    112  N          7.8100   21.8640   -2.4960 N.3   101  ASP101     -0.1239
    113  CA         7.7360   22.8280   -3.5950 C.3   101  ASP101      0.1674
    114  C          7.2420   22.1450   -4.8710 C.2   101  ASP101      0.2266
    115  O          6.5150   22.7280   -5.6580 O.2   101  ASP101     -0.2867
    116  CB         9.1040   23.4880   -3.8310 C.3   101  ASP101      0.1410
    117  CG         9.7050   24.0580   -2.5560 C.2   101  ASP101      0.3668
    118  OD1        8.9870   24.7480   -1.7960 O.co2 101  ASP101     -0.2456
    119  OD2       10.9090   23.8200   -2.3120 O.co2 101  ASP101     -0.2456
    120  N          8.7250   18.8510    3.1430 N.3   143  ALA143     -0.1245
    121  CA         9.8310   19.7850    2.9600 C.3   143  ALA143      0.1562
    122  C         11.1700   19.0730    3.0870 C.2   143  ALA143      0.2260
    123  O         12.1960   19.5770    2.6380 O.2   143  ALA143     -0.2867
    124  CB         9.7510   20.9020    3.9940 C.3   143  ALA143      0.0290
    125  N         13.2380   14.8850   -0.9350 N.3   146  LEU146     -0.1245
    126  CA        13.8070   15.4380   -2.1620 C.3   146  LEU146      0.1561
    127  C         13.2990   14.6410   -3.3550 C.2   146  LEU146      0.2260
    128  O         13.0730   13.4330   -3.2600 O.2   146  LEU146     -0.2867
    129  CB        15.3340   15.3800   -2.1150 C.3   146  LEU146      0.0270
    130  CG        15.9980   16.3410   -1.1320 C.3   146  LEU146      0.0019
    131  CD1       17.4980   16.1120   -1.1420 C.3   146  LEU146      0.0001
    132  CD2       15.6660   17.7810   -1.5060 C.3   146  LEU146      0.0001
    133  N         15.5420   12.9460    3.1540 N.3   156  ALA156     -0.1231
    134  CA        16.7000   13.7890    3.4260 C.3   156  ALA156      0.1694
    135  C         16.5370   14.5000    4.7600 C.2   156  ALA156      0.2592
    136  O         15.5180   14.3530    5.4380 O.2   156  ALA156     -0.2718
    137  CB        16.8650   14.8230    2.3150 C.3   156  ALA156      0.0304
    138  N         17.5580   15.2730    5.1210 N.am  157  ASP157     -0.1960
    139  CA        17.5700   16.0400    6.3610 C.3   157  ASP157      0.1840
    140  C         17.5840   15.1610    7.6000 C.2   157  ASP157      0.2622
    141  O         16.5900   15.0600    8.3140 O.2   157  ASP157     -0.2715
    142  CB        16.3700   16.9950    6.4110 C.3   157  ASP157      0.1450
    143  CG        16.4650   18.1080    5.3770 C.2   157  ASP157      0.3671
    144  OD1       16.4460   17.8090    4.1660 O.co2 157  ASP157     -0.2456
    145  OD2       16.5630   19.2890    5.7790 O.co2 157  ASP157     -0.2456
    146  N         18.7240   14.5210    7.8410 N.am  158  PHE158     -0.1974
    147  CA        18.8960   13.6590    9.0050 C.3   158  PHE158      0.1639
    148  C         19.6460   14.4570   10.0730 C.2   158  PHE158      0.2290
    149  O         20.3210   13.8830   10.9300 O.2   158  PHE158     -0.2864
    150  CB        19.7170   12.4170    8.6460 C.3   158  PHE158      0.0560
    151  CG        19.2620   11.7210    7.3970 C.ar  158  PHE158     -0.0200
    152  CD1       19.5320   12.2670    6.1450 C.ar  158  PHE158     -0.0042
    153  CD2       18.5760   10.5120    7.4710 C.ar  158  PHE158     -0.0042
    154  CE1       19.1290   11.6210    4.9810 C.ar  158  PHE158     -0.0003
    155  CE2       18.1660    9.8540    6.3150 C.ar  158  PHE158     -0.0003
    156  CZ        18.4450   10.4110    5.0640 C.ar  158  PHE158     -0.0000
@<TRIPOS>BOND
     1    91    89   ar
     2    91    92   ar
     3    89    87   ar
     4    93    92    1
     5    92    90   ar
     6    87    86    1
     7    87    88   ar
     8    85    84    2
     9    90    88   ar
    10    86    83    1
    11    96    97    2
    12    96    95    1
    13    84    83    1
    14    84    94   am
    15   102   103    1
    16    95    94    1
    17    95    98    1
    18    83    82    1
    19     8     6    1
    20    82    75   am
    21   115   114    2
    22    80    79   ar
    23   101   100    1
    24   103   104    1
    25     7     6    1
    26    98    99    1
    27   100    99    1
    28     6     5    1
    29    77    74    1
    30    77    78    1
    31    75    74    1
    32    75    76    2
    33   114   113    1
    34    74    73    1
    35    79    78    1
    36    79    81   ar
    37    20    21    1
    38   105   104    2
    39   104   106   am
    40   116   113    1
    41   116   117    1
    42     5     2    1
    43    69    68    2
    44   109   108    2
    45   113   112    1
    46    73    68   am
    47    21    24    1
    48    21    22    1
    49   127   128    2
    50   127   126    1
    51     2     1    1
    52     2     3    1
    53   106   107    1
    54    68    67    1
    55   108   107    1
    56   117   119   ar
    57   117   118   ar
    58   126   129    1
    59   126   125    1
    60   107   110    1
    61    22    23    2
    62   129   130    1
    63     4     3    2
    64     3     9   am
    65    67    66    1
    66    67    70    1
    67   132   130    1
    68   111   110    1
    69    16    15    2
    70   131   130    1
    71    71    70    1
    72     9    10    1
    73    70    72    1
    74    15    14    1
    75    56    55    1
    76    18    17    1
    77    52    53    1
    78    52    55    1
    79    52    51    1
    80    57    55    1
    81    53    54    2
    82    10    11    1
    83    17    14    1
    84    17    19    1
    85    14    13    1
    86    12    11    2
    87    61    60    2
    88    25    26    1
    89    60    59    1
    90   137   134    1
    91   123   122    2
    92    26    29    1
    93    26    27    1
    94   121   122    1
    95   121   120    1
    96   121   124    1
    97   133   134    1
    98    50    49    1
    99   134   135    1
   100    59    58    1
   101    59    62    1
   102    29    30    1
   103    27    28    2
   104   144   143   ar
   105    64    62    1
   106    62    63    1
   107   135   138   am
   108   135   136    2
   109    30    31    1
   110   154   156   ar
   111   154   152   ar
   112    46    45    2
   113    49    48    1
   114   156   155   ar
   115   138   139    1
   116    31    32    1
   117   143   145   ar
   118   143   142    1
   119    63    65    1
   120    47    48    1
   121    47    44    1
   122    45    44    1
   123   152   151   ar
   124    32    33    1
   125   155   153   ar
   126   139   142    1
   127   139   140    1
   128    44    43    1
   129    42    40   ar
   130   151   153   ar
   131   151   150    1
   132   140   146   am
   133   140   141    2
   134    40    41   ar
   135    40    39    1
   136   146   147    1
   137    39    38    1
   138    37    36    2
   139   150   147    1
   140   147   148    1
   141    36    35    1
   142    38    35    1
   143   148   149    2
   144    35    34    1
