@<TRIPOS>MOLECULE
tmp/3geyB00.pdb
 123 117 0 0 0
SMALL
GASTEIGER

@<TRIPOS>ATOM
      1  N         15.4110  -26.1430   -2.7790 N.3    78  HIS78      -0.1226
      2  CA        14.5610  -25.1380   -3.4130 C.3    78  HIS78       0.1752
      3  C         15.0480  -24.7370   -4.8010 C.2    78  HIS78       0.2597
      4  O         16.0710  -24.0710   -4.9360 O.2    78  HIS78      -0.2718
      5  CB        14.4250  -23.8920   -2.5310 C.3    78  HIS78       0.0759
      6  CG        13.4700  -22.8710   -3.0740 C.ar   78  HIS78       0.0818
      7  ND1       12.1170  -22.9040   -2.8160 N.ar   78  HIS78      -0.2268
      8  CD2       13.6770  -21.7900   -3.8620 C.ar   78  HIS78       0.1154
      9  CE1       11.5290  -21.8900   -3.4240 C.ar   78  HIS78       0.1986
     10  NE2       12.4530  -21.2000   -4.0700 N.ar   78  HIS78      -0.2212
     11  N         14.2950  -25.1230   -5.8290 N.am   79  GLY79      -0.1942
     12  CA        14.6110  -24.7340   -7.1910 C.3    79  GLY79       0.2014
     13  C         13.9990  -23.3960   -7.5680 C.2    79  GLY79       0.2639
     14  O         12.8250  -23.1440   -7.2980 O.2    79  GLY79      -0.2714
     15  N         14.8000  -22.5270   -8.1810 N.am   80  THR80      -0.1950
     16  CA        14.2990  -21.2580   -8.7090 C.3    80  THR80       0.1897
     17  C         14.9020  -20.9210  -10.0700 C.2    80  THR80       0.2313
     18  O         15.9120  -21.4950  -10.4870 O.2    80  THR80      -0.2863
     19  CB        14.5730  -20.0670   -7.7630 C.3    80  THR80       0.1794
     20  OG1       15.9420  -20.0920   -7.3330 O.3    80  THR80      -0.2208
     21  CG2       13.6510  -20.1120   -6.5620 C.3    80  THR80       0.0378
     22  N          7.5800  -15.2090    0.7650 N.3    95  ARG95      -0.1245
     23  CA         6.2870  -15.7910    0.4190 C.3    95  ARG95       0.1563
     24  C          5.4820  -14.8760   -0.5080 C.2    95  ARG95       0.2260
     25  O          4.6660  -15.3420   -1.3100 O.2    95  ARG95      -0.2867
     26  CB         5.4840  -16.1190    1.6830 C.3    95  ARG95       0.0307
     27  CG         5.0660  -14.9030    2.4990 C.3    95  ARG95       0.0489
     28  CD         4.4670  -15.3270    3.8280 C.3    95  ARG95       0.2205
     29  NE         4.1260  -14.2010    4.6910 N.pl3  95  ARG95      -0.0865
     30  CZ         4.9860  -13.5950    5.5010 C.cat  95  ARG95       0.5346
     31  NH1        6.2560  -13.9870    5.5400 N.pl3  95  ARG95       0.1354
     32  NH2        4.5760  -12.5890    6.2600 N.pl3  95  ARG95       0.1354
     33  N          6.5530  -13.1760   -2.9410 N.3    97  CYS97      -0.1235
     34  CA         6.9860  -13.3940   -4.3160 C.3    97  CYS97       0.1677
     35  C          6.4860  -14.7580   -4.7910 C.2    97  CYS97       0.2270
     36  O          6.2940  -14.9820   -5.9860 O.2    97  CYS97      -0.2867
     37  CB         8.5150  -13.3240   -4.4310 C.3    97  CYS97       0.0956
     38  SG         9.2500  -11.6770   -4.2460 S.3    97  CYS97      -0.0801
     39  N         -1.1440  -27.1120   -3.8720 N.3    98  SER98      -0.1217
     40  CA        -0.8880  -26.0190   -2.9420 C.3    98  SER98       0.1889
     41  C         -1.3330  -26.3740   -1.5320 C.2    98  SER98       0.2288
     42  O         -2.4800  -26.7690   -1.3140 O.2    98  SER98      -0.2866
     43  CB        -1.5950  -24.7440   -3.4010 C.3    98  SER98       0.2089
     44  OG        -1.5470  -23.7440   -2.3950 O.3    98  SER98      -0.2183
     45  N         -0.6630  -24.0890    0.9660 N.3   100  GLY100     -0.1210
     46  CA        -0.6020  -22.7950    1.6180 C.3   100  GLY100      0.1956
     47  C          0.2430  -21.7830    0.8650 C.2   100  GLY100      0.2612
     48  O          1.0090  -22.1330   -0.0310 O.2   100  GLY100     -0.2717
     49  N          0.1070  -20.5180    1.2410 N.am  101  LYS101     -0.1965
     50  CA         0.8350  -19.4320    0.6000 C.3   101  LYS101      0.1728
     51  C          2.0720  -19.0250    1.4030 C.2   101  LYS101      0.2616
     52  O          2.0980  -17.9680    2.0360 O.2   101  LYS101     -0.2715
     53  CB        -0.0910  -18.2320    0.4170 C.3   101  LYS101      0.0311
     54  CG        -1.4780  -18.6150   -0.0490 C.3   101  LYS101      0.0038
     55  CD        -2.3320  -17.4080   -0.3800 C.3   101  LYS101      0.0206
     56  CE        -3.7850  -17.8340   -0.6230 C.3   101  LYS101      0.1093
     57  NZ        -4.5460  -16.8580   -1.4690 N.3   101  LYS101     -0.1314
     58  N          3.0840  -19.8880    1.3820 N.am  102  GLY102     -0.1955
     59  CA         4.3840  -19.5960    1.9570 C.3   102  GLY102      0.1869
     60  C          5.4560  -19.9990    0.9630 C.2   102  GLY102      0.2309
     61  O          5.1740  -20.1370   -0.2270 O.2   102  GLY102     -0.2863
     62  N          8.1040  -22.8290   -0.4910 N.3   104  TYR104     -0.1241
     63  CA         8.0480  -24.2890   -0.5810 C.3   104  TYR104      0.1605
     64  C          9.4280  -24.9440   -0.6320 C.2   104  TYR104      0.2264
     65  O         10.3130  -24.5000   -1.3700 O.2   104  TYR104     -0.2867
     66  CB         7.2430  -24.7080   -1.8100 C.3   104  TYR104      0.0534
     67  CG         5.7450  -24.6590   -1.6290 C.ar  104  TYR104     -0.0201
     68  CD1        4.9880  -25.8220   -1.6510 C.ar  104  TYR104     -0.0009
     69  CD2        5.0850  -23.4550   -1.4380 C.ar  104  TYR104     -0.0009
     70  CE1        3.6150  -25.7870   -1.4920 C.ar  104  TYR104      0.0417
     71  CE2        3.7110  -23.4130   -1.2740 C.ar  104  TYR104      0.0417
     72  CZ         2.9840  -24.5820   -1.3030 C.ar  104  TYR104      0.1957
     73  OH         1.6190  -24.5560   -1.1380 O.3   104  TYR104     -0.2866
     74  N         11.4480  -28.8370   -0.8270 N.3   106  ALA106     -0.1245
     75  CA        11.3240  -30.2580   -1.1140 C.3   106  ALA106      0.1562
     76  C         12.3560  -31.1060   -0.3720 C.2   106  ALA106      0.2260
     77  O         13.4990  -30.6840   -0.1460 O.2   106  ALA106     -0.2867
     78  CB        11.4200  -30.4980   -2.6160 C.3   106  ALA106      0.0290
     79  N         12.7350  -33.3050   -6.8600 N.3   111  TYR111     -0.1227
     80  CA        11.4850  -32.5470   -6.8970 C.3   111  TYR111      0.1736
     81  C         11.7420  -31.0940   -7.3000 C.2   111  TYR111      0.2596
     82  O         10.9590  -30.4840   -8.0400 O.2   111  TYR111     -0.2718
     83  CB        10.7580  -32.6130   -5.5480 C.3   111  TYR111      0.0548
     84  CG         9.2780  -32.2850   -5.6340 C.ar  111  TYR111     -0.0200
     85  CD1        8.3170  -33.2820   -5.5200 C.ar  111  TYR111     -0.0009
     86  CD2        8.8430  -30.9810   -5.8420 C.ar  111  TYR111     -0.0009
     87  CE1        6.9620  -32.9900   -5.6010 C.ar  111  TYR111      0.0417
     88  CE2        7.4900  -30.6800   -5.9300 C.ar  111  TYR111      0.0417
     89  CZ         6.5560  -31.6890   -5.8050 C.ar  111  TYR111      0.1957
     90  OH         5.2110  -31.3980   -5.8880 O.3   111  TYR111     -0.2866
     91  N         12.8520  -30.5500   -6.8170 N.am  112  SER112     -0.1952
     92  CA        13.2180  -29.1690   -7.1160 C.3   112  SER112      0.1924
     93  C         13.9180  -29.0500   -8.4680 C.2   112  SER112      0.2314
     94  O         14.1330  -27.9480   -8.9760 O.2   112  SER112     -0.2863
     95  CB        14.1110  -28.6000   -6.0130 C.3   112  SER112      0.2116
     96  OG        13.5430  -28.8250   -4.7320 O.3   112  SER112     -0.2180
     97  N          9.7990  -26.5690  -14.0540 N.3   116  THR116     -0.1203
     98  CA         8.8100  -25.6420  -13.5170 C.3   116  THR116      0.1994
     99  C          9.3550  -24.8600  -12.3230 C.2   116  THR116      0.2617
    100  O          8.9190  -23.7390  -12.0590 O.2   116  THR116     -0.2717
    101  CB         7.5180  -26.3690  -13.0910 C.3   116  THR116      0.1784
    102  OG1        7.8470  -27.5120  -12.2920 O.3   116  THR116     -0.2211
    103  CG2        6.7470  -26.8310  -14.3090 C.3   116  THR116      0.0376
    104  N         10.3010  -25.4620  -11.6030 N.am  117  TYR117     -0.1975
    105  CA        10.9050  -24.8260  -10.4350 C.3   117  TYR117      0.1639
    106  C         12.2680  -24.2590  -10.7810 C.2   117  TYR117      0.2290
    107  O         12.4260  -23.0430  -10.8870 O.2   117  TYR117     -0.2864
    108  CB        11.0040  -25.8080   -9.2670 C.3   117  TYR117      0.0560
    109  CG         9.6530  -26.3550   -8.8570 C.ar  117  TYR117     -0.0198
    110  CD1        8.5580  -25.4990   -8.6690 C.ar  117  TYR117     -0.0009
    111  CD2        9.4610  -27.7160   -8.6590 C.ar  117  TYR117     -0.0009
    112  CE1        7.3080  -25.9870   -8.2970 C.ar  117  TYR117      0.0417
    113  CE2        8.2180  -28.2110   -8.2830 C.ar  117  TYR117      0.0417
    114  CZ         7.1470  -27.3380   -8.1060 C.ar  117  TYR117      0.1957
    115  OH         5.9100  -27.8150   -7.7340 O.3   117  TYR117     -0.2866
    116  N          7.4550  -32.4300    1.0150 N.3   172  LEU172     -0.1245
    117  CA         7.6410  -30.9840    0.9360 C.3   172  LEU172      0.1561
    118  C          7.1130  -30.2660    2.1700 C.2   172  LEU172      0.2260
    119  O          6.1730  -30.7300    2.8170 O.2   172  LEU172     -0.2867
    120  CB         7.0150  -30.4020   -0.3420 C.3   172  LEU172      0.0270
    121  CG         5.4960  -30.3230   -0.5250 C.3   172  LEU172      0.0019
    122  CD1        4.8760  -29.2790    0.3860 C.3   172  LEU172      0.0001
    123  CD2        5.1570  -30.0120   -1.9750 C.3   172  LEU172      0.0001
@<TRIPOS>BOND
     1   103   101    1
     2    97    98    1
     3    98   101    1
     4    98    99    1
     5   101   102    1
     6    99   100    2
     7    99   104   am
     8   104   105    1
     9   107   106    2
    10   106   105    1
    11    18    17    2
    12   105   108    1
    13    17    16    1
    14   108   109    1
    15    94    93    2
    16   109   110   ar
    17   109   111   ar
    18    16    15    1
    19    16    19    1
    20   110   112   ar
    21   111   113   ar
    22    93    92    1
    23   112   114   ar
    24   113   114   ar
    25    15    13   am
    26   114   115    1
    27    82    81    2
    28    19    20    1
    29    19    21    1
    30    13    14    2
    31    13    12    1
    32    81    80    1
    33    81    91   am
    34    12    11    1
    35    92    91    1
    36    92    95    1
    37    80    79    1
    38    80    83    1
    39    95    96    1
    40    36    35    2
    41    88    86   ar
    42    88    89   ar
    43    90    89    1
    44    86    84   ar
    45    11     3   am
    46    89    87   ar
    47    84    83    1
    48    84    85   ar
    49    87    85   ar
    50     4     3    2
    51     3     2    1
    52    35    34    1
    53    37    34    1
    54    37    38    1
    55    34    33    1
    56    10     8   ar
    57    10     9   ar
    58    39    40    1
    59     8     6   ar
    60     9     7   ar
    61     2     1    1
    62     2     5    1
    63    43    40    1
    64    43    44    1
    65     6     7   ar
    66     6     5    1
    67    40    41    1
    68    78    75    1
    69   123   121    1
    70    66    67    1
    71    66    63    1
    72    68    67   ar
    73    68    70   ar
    74    67    69   ar
    75    41    42    2
    76    70    72   ar
    77    57    56    1
    78    69    71   ar
    79    65    64    2
    80    25    24    2
    81    72    71   ar
    82    72    73    1
    83    75    74    1
    84    75    76    1
    85    64    63    1
    86    56    55    1
    87    63    62    1
    88   121   120    1
    89   121   122    1
    90    24    23    1
    91    55    54    1
    92    76    77    2
    93   120   117    1
    94    61    60    2
    95    54    53    1
    96    48    47    2
    97    53    50    1
    98    23    22    1
    99    23    26    1
   100    50    49    1
   101    50    51    1
   102    47    49   am
   103    47    46    1
   104   117   116    1
   105   117   118    1
   106    60    59    1
   107    45    46    1
   108    58    51   am
   109    58    59    1
   110    51    52    2
   111    26    27    1
   112   118   119    2
   113    27    28    1
   114    28    29    1
   115    29    30    2
   116    30    31    1
   117    30    32    1
