@<TRIPOS>MOLECULE
tmp/3gf4B01.pdb
 153 154 0 0 0
SMALL
GASTEIGER

@<TRIPOS>ATOM
      1  N         -3.3420  -32.0710   -1.1700 N.3    96  LEU96      -0.1231
      2  CA        -1.9910  -32.2950   -1.7160 C.3    96  LEU96       0.1678
      3  C         -1.7990  -33.8010   -1.6860 C.2    96  LEU96       0.2434
      4  O         -2.3980  -34.4520   -0.8510 O.2    96  LEU96      -0.2733
      5  CB        -0.9610  -31.5830   -0.8480 C.3    96  LEU96       0.0284
      6  CG        -0.8160  -30.0830   -1.0970 C.3    96  LEU96       0.0019
      7  CD1        0.4170  -29.5740   -0.3880 C.3    96  LEU96       0.0001
      8  CD2       -0.6660  -29.7410   -2.5900 C.3    96  LEU96       0.0001
      9  N         -1.0250  -34.3780   -2.6020 N.am   97  PRO97      -0.2718
     10  CA        -0.2410  -33.7360   -3.6410 C.3    97  PRO97       0.1535
     11  C         -1.1990  -33.3150   -4.7210 C.2    97  PRO97       0.2598
     12  O         -2.3800  -33.6580   -4.6390 O.2    97  PRO97      -0.2715
     13  CB         0.6880  -34.8430   -4.1230 C.3    97  PRO97       0.0310
     14  CG        -0.0490  -36.1330   -3.8020 C.3    97  PRO97       0.0237
     15  CD        -0.9810  -35.8520   -2.6750 C.3    97  PRO97       0.0939
     16  N         -0.7140  -32.5790   -5.7080 N.am   98  ILE98      -0.1978
     17  CA        -1.5850  -31.9980   -6.7040 C.3    98  ILE98       0.1596
     18  C         -2.3170  -33.0760   -7.4660 C.2    98  ILE98       0.2287
     19  O         -1.6920  -33.8580   -8.1880 O.2    98  ILE98      -0.2864
     20  CB        -0.8190  -31.0520   -7.6520 C.3    98  ILE98       0.0276
     21  CG1       -0.4200  -29.8150   -6.8670 C.3    98  ILE98       0.0022
     22  CG2       -1.7170  -30.5830   -8.8350 C.3    98  ILE98       0.0022
     23  CD1        0.7790  -29.1190   -7.4800 C.3    98  ILE98       0.0001
     24  N         15.1390  -25.3210  -11.4220 N.3   134  PHE134     -0.1241
     25  CA        13.8830  -25.8070  -10.8300 C.3   134  PHE134      0.1605
     26  C         12.7410  -24.9100  -11.2710 C.2   134  PHE134      0.2264
     27  O         11.7100  -25.4150  -11.6910 O.2   134  PHE134     -0.2867
     28  CB        13.9490  -25.8330   -9.3010 C.3   134  PHE134      0.0534
     29  CG        12.6630  -26.2980   -8.6240 C.ar  134  PHE134     -0.0203
     30  CD1       12.4160  -27.6330   -8.3970 C.ar  134  PHE134     -0.0042
     31  CD2       11.7150  -25.3860   -8.1790 C.ar  134  PHE134     -0.0042
     32  CE1       11.2450  -28.0460   -7.7460 C.ar  134  PHE134     -0.0003
     33  CE2       10.5440  -25.8100   -7.5390 C.ar  134  PHE134     -0.0003
     34  CZ        10.3250  -27.1330   -7.3160 C.ar  134  PHE134     -0.0000
     35  N          1.6460  -23.2620   -5.5400 N.3   150  PHE150     -0.1227
     36  CA         1.9910  -24.4590   -4.7350 C.3   150  PHE150      0.1736
     37  C          3.4890  -24.7770   -4.6070 C.2   150  PHE150      0.2595
     38  O          3.8930  -25.5660   -3.7400 O.2   150  PHE150     -0.2718
     39  CB         1.2940  -25.7080   -5.2570 C.3   150  PHE150      0.0547
     40  CG        -0.2290  -25.6060   -5.2920 C.ar  150  PHE150     -0.0202
     41  CD1       -0.9070  -25.3630   -6.5010 C.ar  150  PHE150     -0.0042
     42  CD2       -0.9910  -25.7800   -4.1330 C.ar  150  PHE150     -0.0042
     43  CE1       -2.2870  -25.2670   -6.5300 C.ar  150  PHE150     -0.0003
     44  CE2       -2.3700  -25.6750   -4.1740 C.ar  150  PHE150     -0.0003
     45  CZ        -3.0160  -25.4070   -5.3600 C.ar  150  PHE150     -0.0000
     46  N          4.3270  -24.1810   -5.4530 N.am  151  PHE151     -0.1976
     47  CA         5.7300  -24.5800   -5.4750 C.3   151  PHE151      0.1639
     48  C          6.7440  -23.5280   -5.0610 C.2   151  PHE151      0.2290
     49  O          7.6220  -23.8140   -4.2290 O.2   151  PHE151     -0.2864
     50  CB         6.0740  -25.1330   -6.8240 C.3   151  PHE151      0.0560
     51  CG         5.5010  -26.4860   -7.0750 C.ar  151  PHE151     -0.0200
     52  CD1        4.2280  -26.6220   -7.6150 C.ar  151  PHE151     -0.0042
     53  CD2        6.2410  -27.6250   -6.7780 C.ar  151  PHE151     -0.0042
     54  CE1        3.7040  -27.8800   -7.8710 C.ar  151  PHE151     -0.0003
     55  CE2        5.7310  -28.8790   -7.0090 C.ar  151  PHE151     -0.0003
     56  CZ         4.4450  -29.0190   -7.5710 C.ar  151  PHE151     -0.0000
     57  N          6.7580  -22.3980   -1.3230 N.3   154  TYR154     -0.1227
     58  CA         7.0900  -23.5590   -0.4960 C.3   154  TYR154      0.1736
     59  C          8.5750  -23.8580   -0.5790 C.2   154  TYR154      0.2596
     60  O          9.2550  -23.9620    0.4570 O.2   154  TYR154     -0.2718
     61  CB         6.2640  -24.8200   -0.8650 C.3   154  TYR154      0.0548
     62  CG         6.1590  -25.7540    0.3180 C.ar  154  TYR154     -0.0200
     63  CD1        5.4330  -25.3680    1.4620 C.ar  154  TYR154     -0.0009
     64  CD2        6.8220  -26.9980    0.3310 C.ar  154  TYR154     -0.0009
     65  CE1        5.3390  -26.1820    2.5700 C.ar  154  TYR154      0.0417
     66  CE2        6.7280  -27.8590    1.4660 C.ar  154  TYR154      0.0417
     67  CZ         5.9750  -27.4340    2.5890 C.ar  154  TYR154      0.1957
     68  OH         5.8720  -28.2210    3.7420 O.3   154  TYR154     -0.2866
     69  N          9.0790  -23.9440   -1.8160 N.am  155  THR155     -0.1953
     70  CA        10.4810  -24.2410   -2.0530 C.3   155  THR155      0.1897
     71  C         11.4070  -23.2360   -1.3660 C.2   155  THR155      0.2313
     72  O         12.2680  -23.6180   -0.5910 O.2   155  THR155     -0.2863
     73  CB        10.7350  -24.3560   -3.5370 C.3   155  THR155      0.1794
     74  OG1        9.9300  -25.4300   -4.0250 O.3   155  THR155     -0.2208
     75  CG2       12.1990  -24.6590   -3.8290 C.3   155  THR155      0.0378
     76  N         11.3610  -23.9720    2.3480 N.3   158  GLN158     -0.1231
     77  CA        11.9050  -25.2490    2.7190 C.3   158  GLN158      0.1698
     78  C         13.4360  -25.3200    2.4490 C.2   158  GLN158      0.2592
     79  O         14.2010  -25.8710    3.2670 O.2   158  GLN158     -0.2718
     80  CB        11.1390  -26.3670    1.9720 C.3   158  GLN158      0.0381
     81  CG        11.4020  -27.8220    2.4200 C.3   158  GLN158      0.0905
     82  CD        10.5250  -28.2960    3.6210 C.2   158  GLN158      0.2608
     83  OE1       10.7040  -27.8470    4.7710 O.2   158  GLN158     -0.2717
     84  NE2        9.5980  -29.2430    3.3490 N.am  158  GLN158     -0.0878
     85  N         13.8730  -24.7390    1.3310 N.am  159  TRP159     -0.1976
     86  CA        15.2750  -24.8460    0.9200 C.3   159  TRP159      0.1640
     87  C         16.1180  -23.5910    1.1500 C.2   159  TRP159      0.2290
     88  O         17.3320  -23.6640    1.1820 O.2   159  TRP159     -0.2864
     89  CB        15.3950  -25.3750   -0.5240 C.3   159  TRP159      0.0576
     90  CG        14.8180  -26.7110   -0.6030 C.ar  159  TRP159      0.0006
     91  CD1       13.6370  -27.0580   -1.1880 C.ar  159  TRP159      0.0946
     92  CD2       15.3220  -27.8960    0.0290 C.ar  159  TRP159      0.0152
     93  NE1       13.3790  -28.3940   -0.9820 N.ar  159  TRP159     -0.2442
     94  CE2       14.3940  -28.9350   -0.2320 C.ar  159  TRP159      0.0810
     95  CE3       16.4780  -28.1890    0.7830 C.ar  159  TRP159      0.0012
     96  CZ2       14.5950  -30.2600    0.2210 C.ar  159  TRP159      0.0191
     97  CZ3       16.6790  -29.5120    1.2290 C.ar  159  TRP159      0.0001
     98  CH2       15.7420  -30.5290    0.9370 C.ar  159  TRP159      0.0015
     99  N         15.7060  -31.6490   -9.7430 N.3   170  ILE170     -0.1231
    100  CA        14.9390  -31.8760   -8.5150 C.3   170  ILE170      0.1692
    101  C         13.5250  -32.4180   -8.7950 C.2   170  ILE170      0.2592
    102  O         12.9590  -33.2090   -7.9950 O.2   170  ILE170     -0.2718
    103  CB        14.8590  -30.5880   -7.6720 C.3   170  ILE170      0.0266
    104  CG1       16.2630  -29.9880   -7.5310 C.3   170  ILE170      0.0019
    105  CG2       14.1660  -30.8630   -6.3000 C.3   170  ILE170      0.0020
    106  CD1       16.4010  -28.9780   -6.4130 C.3   170  ILE170      0.0001
    107  N         12.9850  -31.9880   -9.9390 N.am  171  LEU171     -0.1966
    108  CA        11.6530  -32.3660  -10.3730 C.3   171  LEU171      0.1728
    109  C         11.7350  -33.2140  -11.6370 C.2   171  LEU171      0.2616
    110  O         11.6570  -32.6990  -12.7710 O.2   171  LEU171     -0.2715
    111  CB        10.8020  -31.1140  -10.5950 C.3   171  LEU171      0.0311
    112  CG         9.2900  -31.2140  -10.3590 C.3   171  LEU171      0.0022
    113  CD1        8.9660  -31.6290   -8.9040 C.3   171  LEU171      0.0001
    114  CD2        8.5990  -29.9000  -10.7570 C.3   171  LEU171      0.0001
    115  N         11.9190  -34.5180  -11.4190 N.am  172  LYS172     -0.1963
    116  CA        12.0510  -35.4900  -12.5030 C.3   172  LYS172      0.1728
    117  C         10.7030  -35.6870  -13.2170 C.2   172  LYS172      0.2616
    118  O         10.6510  -35.8050  -14.4560 O.2   172  LYS172     -0.2715
    119  CB        12.5910  -36.8410  -11.9800 C.3   172  LYS172      0.0311
    120  CG        14.1360  -36.9680  -11.8230 C.3   172  LYS172      0.0038
    121  CD        14.8730  -37.1460  -13.1880 C.3   172  LYS172      0.0206
    122  CE        16.4120  -36.9400  -13.0430 C.3   172  LYS172      0.1093
    123  NZ        17.0720  -36.3350  -14.2420 N.3   172  LYS172     -0.1314
    124  N          9.6240  -35.6960  -12.4270 N.am  173  ARG173     -0.1977
    125  CA         8.2880  -36.0020  -12.9280 C.3   173  ARG173      0.1597
    126  C          7.3420  -34.8130  -12.7730 C.2   173  ARG173      0.2287
    127  O          7.3720  -34.1060  -11.7460 O.2   173  ARG173     -0.2864
    128  CB         7.7410  -37.2580  -12.2230 C.3   173  ARG173      0.0334
    129  CG         8.4150  -38.5640  -12.7170 C.3   173  ARG173      0.0492
    130  CD         8.1970  -39.7670  -11.7780 C.3   173  ARG173      0.2205
    131  NE         9.2130  -40.8210  -11.9830 N.pl3 173  ARG173     -0.0865
    132  CZ        10.4170  -40.8720  -11.3810 C.cat 173  ARG173      0.5346
    133  NH1       11.2460  -41.8800  -11.6460 N.pl3 173  ARG173      0.1354
    134  NH2       10.8070  -39.9270  -10.5170 N.pl3 173  ARG173      0.1354
    135  N          4.5020  -32.9800  -11.5820 N.3   175  PRO175     -0.2116
    136  CA         3.9150  -33.2590  -10.2620 C.3   175  PRO175      0.1372
    137  C          2.3750  -33.1100  -10.2280 C.2   175  PRO175      0.2244
    138  O          1.8380  -32.3200   -9.4220 O.2   175  PRO175     -0.2868
    139  CB         4.5650  -32.2040   -9.3840 C.3   175  PRO175      0.0268
    140  CG         4.7310  -31.0060  -10.3290 C.3   175  PRO175      0.0207
    141  CD         4.9650  -31.5820  -11.6950 C.3   175  PRO175      0.0892
    142  N         -1.1230  -39.2390    0.1670 N.3   184  TYR184     -0.1241
    143  CA         0.2450  -38.7940   -0.0510 C.3   184  TYR184      0.1605
    144  C          1.1800  -39.8820   -0.5420 C.2   184  TYR184      0.2264
    145  O          2.0890  -39.5920   -1.3130 O.2   184  TYR184     -0.2867
    146  CB         0.8220  -38.2000    1.2170 C.3   184  TYR184      0.0534
    147  CG         1.8410  -37.1130    0.9750 C.ar  184  TYR184     -0.0201
    148  CD1        1.4230  -35.8290    0.6720 C.ar  184  TYR184     -0.0009
    149  CD2        3.2220  -37.3720    1.0450 C.ar  184  TYR184     -0.0009
    150  CE1        2.3260  -34.8020    0.4390 C.ar  184  TYR184      0.0417
    151  CE2        4.1630  -36.3450    0.8070 C.ar  184  TYR184      0.0417
    152  CZ         3.6880  -35.0600    0.5100 C.ar  184  TYR184      0.1957
    153  OH         4.5380  -33.9920    0.2760 O.3   184  TYR184     -0.2866
@<TRIPOS>BOND
     1   118   117    2
     2   123   122    1
     3   117   116    1
     4   117   124   am
     5   121   122    1
     6   121   120    1
     7   125   126    1
     8   125   124    1
     9   125   128    1
    10   126   127    2
    11   110   109    2
    12   129   128    1
    13   129   130    1
    14   116   119    1
    15   116   115    1
    16   131   130    1
    17   131   132    2
    18   119   120    1
    19   141   135    1
    20   141   140    1
    21    27    26    2
    22   133   132    1
    23   109   115   am
    24   109   108    1
    25   135   136    1
    26    24    25    1
    27   132   134    1
    28    26    25    1
    29    25    28    1
    30   114   112    1
    31   111   108    1
    32   111   112    1
    33   108   107    1
    34   112   113    1
    35   140   139    1
    36   136   137    1
    37   136   139    1
    38   137   138    2
    39   107   101   am
    40    99   100    1
    41    28    29    1
    42    22    20    1
    43   101   100    1
    44   101   102    2
    45    29    30   ar
    46    29    31   ar
    47   100   103    1
    48    30    32   ar
    49    19    18    2
    50    31    33   ar
    51    54    52   ar
    52    54    56   ar
    53    32    34   ar
    54   103   104    1
    55   103   105    1
    56    20    21    1
    57    20    17    1
    58    52    51   ar
    59    56    55   ar
    60    33    34   ar
    61   104   106    1
    62    23    21    1
    63    18    17    1
    64    51    50    1
    65    51    53   ar
    66    55    53   ar
    67    50    47    1
    68    17    16    1
    69    43    41   ar
    70    43    45   ar
    71    41    40   ar
    72    16    11   am
    73    35    36    1
    74    47    46    1
    75    47    48    1
    76    46    37   am
    77    45    44   ar
    78    40    39    1
    79    40    42   ar
    80    39    36    1
    81    48    49    2
    82    36    37    1
    83    11    12    2
    84    11    10    1
    85    37    38    2
    86    44    42   ar
    87    13    14    1
    88    13    10    1
    89    74    73    1
    90    75    73    1
    91    14    15    1
    92    10     9    1
    93    73    70    1
    94    15     9    1
    95     9     3   am
    96     8     6    1
    97    70    69    1
    98    70    71    1
    99    69    59   am
   100     2     3    1
   101     2     1    1
   102     2     5    1
   103     3     4    2
   104    71    72    2
   105    57    58    1
   106   145   144    2
   107    91    93   ar
   108    91    90   ar
   109     6     5    1
   110     6     7    1
   111    93    94   ar
   112    61    58    1
   113    61    62    1
   114    90    89    1
   115    90    92   ar
   116    59    58    1
   117    59    60    2
   118   144   143    1
   119    89    86    1
   120    94    92   ar
   121    94    96   ar
   122   143   142    1
   123   143   146    1
   124    92    95   ar
   125    96    98   ar
   126   153   152    1
   127    62    64   ar
   128    62    63   ar
   129    64    66   ar
   130   150   152   ar
   131   150   148   ar
   132   152   151   ar
   133   148   147   ar
   134    95    97   ar
   135   151   149   ar
   136    86    87    1
   137    86    85    1
   138    98    97   ar
   139   147   149   ar
   140   147   146    1
   141    87    88    2
   142    85    78   am
   143    63    65   ar
   144    66    67   ar
   145    80    81    1
   146    80    77    1
   147    76    77    1
   148    81    82    1
   149    78    77    1
   150    78    79    2
   151    65    67   ar
   152    67    68    1
   153    84    82   am
   154    82    83    2
