@<TRIPOS>MOLECULE
tmp/3gf4A01.pdb
 248 242 0 0 0
SMALL
GASTEIGER

@<TRIPOS>ATOM
      1  N        -22.4840  -50.8970   -7.1290 N.3    58  PRO58      -0.2102
      2  CA       -21.2800  -50.9560   -6.2960 C.3    58  PRO58       0.1504
      3  C        -21.7090  -51.3550   -4.9090 C.2    58  PRO58       0.2576
      4  O        -22.7920  -50.9490   -4.4740 O.2    58  PRO58      -0.2718
      5  CB       -20.7950  -49.5110   -6.2640 C.3    58  PRO58       0.0282
      6  CG       -21.3170  -48.9160   -7.5200 C.3    58  PRO58       0.0208
      7  CD       -22.6670  -49.5640   -7.7270 C.3    58  PRO58       0.0893
      8  N        -20.8920  -52.1980   -4.2870 N.am   59  HIS59      -0.1962
      9  CA       -21.1710  -52.8430   -3.0150 C.3    59  HIS59       0.1787
     10  C        -19.9170  -52.7200   -2.1090 C.2    59  HIS59       0.2620
     11  O        -18.9130  -53.3610   -2.3590 O.2    59  HIS59      -0.2715
     12  CB       -21.5450  -54.3240   -3.2940 C.3    59  HIS59       0.0785
     13  CG       -23.0260  -54.5440   -3.4590 C.ar   59  HIS59       0.0821
     14  ND1      -23.7020  -54.2300   -4.6250 N.ar   59  HIS59      -0.2267
     15  CD2      -23.9600  -55.0390   -2.6010 C.ar   59  HIS59       0.1154
     16  CE1      -24.9890  -54.4930   -4.4680 C.ar   59  HIS59       0.1986
     17  NE2      -25.1680  -54.9890   -3.2540 N.ar   59  HIS59      -0.2212
     18  N        -19.9680  -51.8770   -1.0790 N.am   60  ILE60      -0.1977
     19  CA       -18.7910  -51.6510   -0.2400 C.3    60  ILE60       0.1596
     20  C        -19.0190  -52.3070    1.1010 C.2    60  ILE60       0.2287
     21  O        -20.0150  -52.0190    1.7610 O.2    60  ILE60      -0.2864
     22  CB       -18.5750  -50.1470   -0.0590 C.3    60  ILE60       0.0276
     23  CG1      -18.2170  -49.5120   -1.4110 C.3    60  ILE60       0.0022
     24  CG2      -17.4990  -49.8280    0.9860 C.3    60  ILE60       0.0022
     25  CD1      -18.8700  -48.1350   -1.6840 C.3    60  ILE60       0.0001
     26  N        -18.8710  -52.7850    5.0010 N.3    62  HIS62      -0.1241
     27  CA       -18.5660  -51.9200    6.1640 C.3    62  HIS62       0.1621
     28  C        -19.3350  -52.3950    7.3640 C.2    62  HIS62       0.2264
     29  O        -20.5280  -52.6000    7.2820 O.2    62  HIS62      -0.2867
     30  CB       -18.8550  -50.4330    5.9070 C.3    62  HIS62       0.0745
     31  CG       -20.1260  -50.1830    5.1780 C.ar   62  HIS62       0.0817
     32  ND1      -21.3600  -50.5350    5.6870 N.ar   62  HIS62      -0.2268
     33  CD2      -20.3640  -49.6380    3.9600 C.ar   62  HIS62       0.1154
     34  CE1      -22.3030  -50.1970    4.8230 C.ar   62  HIS62       0.1986
     35  NE2      -21.7240  -49.6540    3.7670 N.ar   62  HIS62      -0.2212
     36  N        -14.0140  -45.3530    1.0820 N.3    83  ASN83      -0.1240
     37  CA       -14.8740  -44.7990    0.0620 C.3    83  ASN83       0.1653
     38  C        -14.8360  -43.3060    0.1960 C.2    83  ASN83       0.2266
     39  O        -15.1480  -42.7480    1.2550 O.2    83  ASN83      -0.2867
     40  CB       -16.2860  -45.3160    0.2780 C.3    83  ASN83       0.1155
     41  CG       -17.2380  -44.9740   -0.8580 C.2    83  ASN83       0.2627
     42  OD1      -18.2980  -44.3970   -0.6070 O.2    83  ASN83      -0.2716
     43  ND2      -16.8990  -45.3690   -2.1020 N.am   83  ASN83      -0.0877
     44  N        -16.2780  -40.2150   -1.7730 N.3    85  VAL85      -0.1245
     45  CA       -17.2020  -39.7860   -2.7780 C.3    85  VAL85       0.1561
     46  C        -16.9950  -38.3400   -3.1450 C.2    85  VAL85       0.2260
     47  O        -16.8570  -37.4630   -2.2870 O.2    85  VAL85      -0.2867
     48  CB       -18.5450  -39.9840   -2.2350 C.3    85  VAL85       0.0252
     49  CG1      -19.5840  -39.4070   -3.1500 C.3    85  VAL85       0.0019
     50  CG2      -18.7440  -41.4640   -1.9880 C.3    85  VAL85       0.0019
     51  N        -17.6070  -35.3170   -0.6400 N.3    96  LEU96      -0.1245
     52  CA       -18.6680  -35.6680    0.2980 C.3    96  LEU96       0.1561
     53  C        -18.0590  -36.6910    1.2190 C.2    96  LEU96       0.2260
     54  O        -17.0240  -37.2580    0.8890 O.2    96  LEU96      -0.2867
     55  CB       -19.8450  -36.2660   -0.4710 C.3    96  LEU96       0.0270
     56  CG       -20.5400  -35.1990   -1.3290 C.3    96  LEU96       0.0019
     57  CD1      -21.7030  -35.8020   -2.1040 C.3    96  LEU96       0.0001
     58  CD2      -21.0400  -34.0450   -0.4150 C.3    96  LEU96       0.0001
     59  N        -37.1610  -34.6380    5.8730 N.3   134  PHE134     -0.1241
     60  CA       -35.8520  -34.4670    5.2940 C.3   134  PHE134      0.1605
     61  C        -35.5280  -32.9860    5.1690 C.2   134  PHE134      0.2264
     62  O        -34.4470  -32.5450    5.5560 O.2   134  PHE134     -0.2867
     63  CB       -35.8310  -35.1450    3.9290 C.3   134  PHE134      0.0534
     64  CG       -34.4880  -35.1500    3.2750 C.ar  134  PHE134     -0.0203
     65  CD1      -33.7870  -36.3310    3.1260 C.ar  134  PHE134     -0.0042
     66  CD2      -33.9160  -33.9680    2.7920 C.ar  134  PHE134     -0.0042
     67  CE1      -32.5160  -36.3370    2.5200 C.ar  134  PHE134     -0.0003
     68  CE2      -32.6640  -33.9640    2.1670 C.ar  134  PHE134     -0.0003
     69  CZ       -31.9580  -35.1550    2.0390 C.ar  134  PHE134     -0.0000
     70  N        -26.4610  -29.7670   -2.5070 N.3   150  PHE150     -0.1227
     71  CA       -26.0700  -31.1630   -2.3920 C.3   150  PHE150      0.1736
     72  C        -27.1980  -32.1400   -2.1870 C.2   150  PHE150      0.2595
     73  O        -27.0910  -33.2600   -2.6460 O.2   150  PHE150     -0.2718
     74  CB       -24.9800  -31.3270   -1.3130 C.3   150  PHE150      0.0547
     75  CG       -23.7230  -30.5230   -1.6170 C.ar  150  PHE150     -0.0202
     76  CD1      -23.3900  -29.3720   -0.8520 C.ar  150  PHE150     -0.0042
     77  CD2      -22.9200  -30.8630   -2.7150 C.ar  150  PHE150     -0.0042
     78  CE1      -22.2040  -28.6080   -1.1490 C.ar  150  PHE150     -0.0003
     79  CE2      -21.7390  -30.1230   -3.0130 C.ar  150  PHE150     -0.0003
     80  CZ       -21.3810  -28.9760   -2.2360 C.ar  150  PHE150     -0.0000
     81  N        -28.3110  -31.6920   -1.6150 N.am  151  PHE151     -0.1976
     82  CA       -29.3310  -32.6130   -1.1810 C.3   151  PHE151      0.1639
     83  C        -30.6660  -32.5340   -1.8630 C.2   151  PHE151      0.2290
     84  O        -31.2890  -33.5590   -2.0860 O.2   151  PHE151     -0.2864
     85  CB       -29.4820  -32.5400    0.3370 C.3   151  PHE151      0.0560
     86  CG       -28.2100  -32.8850    1.0560 C.ar  151  PHE151     -0.0200
     87  CD1      -27.2920  -31.9160    1.3750 C.ar  151  PHE151     -0.0042
     88  CD2      -27.8970  -34.1850    1.3430 C.ar  151  PHE151     -0.0042
     89  CE1      -26.1280  -32.2120    2.0040 C.ar  151  PHE151     -0.0003
     90  CE2      -26.7070  -34.5010    1.9910 C.ar  151  PHE151     -0.0003
     91  CZ       -25.8230  -33.5220    2.3160 C.ar  151  PHE151     -0.0000
     92  N        -30.6430  -34.0300   -5.6000 N.3   154  TYR154     -0.1227
     93  CA       -30.2370  -35.4230   -5.5370 C.3   154  TYR154      0.1736
     94  C        -31.3400  -36.2410   -4.9560 C.2   154  TYR154      0.2596
     95  O        -31.6900  -37.2310   -5.5450 O.2   154  TYR154     -0.2718
     96  CB       -28.9760  -35.5660   -4.6900 C.3   154  TYR154      0.0548
     97  CG       -28.3360  -36.9220   -4.7280 C.ar  154  TYR154     -0.0200
     98  CD1      -27.3190  -37.2370   -5.6520 C.ar  154  TYR154     -0.0009
     99  CD2      -28.7440  -37.9020   -3.8390 C.ar  154  TYR154     -0.0009
    100  CE1      -26.7470  -38.4810   -5.6750 C.ar  154  TYR154      0.0417
    101  CE2      -28.1690  -39.1210   -3.8380 C.ar  154  TYR154      0.0417
    102  CZ       -27.1760  -39.4280   -4.7420 C.ar  154  TYR154      0.1957
    103  OH       -26.6710  -40.7190   -4.6630 O.3   154  TYR154     -0.2866
    104  N        -31.9040  -35.8060   -3.8280 N.am  155  THR155     -0.1953
    105  CA       -32.9910  -36.4910   -3.1600 C.3   155  THR155      0.1897
    106  C        -34.2990  -36.5870   -3.9620 C.2   155  THR155      0.2313
    107  O        -34.9430  -37.6360   -4.0130 O.2   155  THR155     -0.2863
    108  CB       -33.2670  -35.8210   -1.8560 C.3   155  THR155      0.1794
    109  OG1      -32.0840  -35.9170   -1.0340 O.3   155  THR155     -0.2208
    110  CG2      -34.4350  -36.4710   -1.1450 C.3   155  THR155      0.0378
    111  N        -33.5290  -39.4650   -6.4270 N.3   158  GLN158     -0.1231
    112  CA       -33.3760  -40.7640   -5.8390 C.3   158  GLN158      0.1698
    113  C        -34.7200  -41.2680   -5.3880 C.2   158  GLN158      0.2592
    114  O        -35.0170  -42.4320   -5.5780 O.2   158  GLN158     -0.2718
    115  CB       -32.4220  -40.6740   -4.6500 C.3   158  GLN158      0.0381
    116  CG       -32.2760  -41.9210   -3.8490 C.3   158  GLN158      0.0905
    117  CD       -31.1530  -42.8220   -4.3730 C.2   158  GLN158      0.2608
    118  OE1      -31.2140  -43.3270   -5.5270 O.2   158  GLN158     -0.2717
    119  NE2      -30.0920  -43.0210   -3.5220 N.am  158  GLN158     -0.0878
    120  N        -35.5460  -40.4060   -4.8050 N.am  159  TRP159     -0.1976
    121  CA       -36.8250  -40.8300   -4.2040 C.3   159  TRP159      0.1640
    122  C        -38.0620  -40.4390   -5.0250 C.2   159  TRP159      0.2290
    123  O        -39.1550  -40.9560   -4.8120 O.2   159  TRP159     -0.2864
    124  CB       -36.9210  -40.3350   -2.7310 C.3   159  TRP159      0.0576
    125  CG       -35.7420  -40.8220   -1.9600 C.ar  159  TRP159      0.0006
    126  CD1      -34.5870  -40.1340   -1.6680 C.ar  159  TRP159      0.0946
    127  CD2      -35.5570  -42.1470   -1.4520 C.ar  159  TRP159      0.0152
    128  NE1      -33.7050  -40.9570   -0.9860 N.ar  159  TRP159     -0.2442
    129  CE2      -34.2790  -42.1940   -0.8490 C.ar  159  TRP159      0.0810
    130  CE3      -36.3580  -43.2990   -1.4420 C.ar  159  TRP159      0.0012
    131  CZ2      -33.7680  -43.3610   -0.2650 C.ar  159  TRP159      0.0191
    132  CZ3      -35.8540  -44.4660   -0.8470 C.ar  159  TRP159      0.0001
    133  CH2      -34.5620  -44.4870   -0.2720 C.ar  159  TRP159      0.0015
    134  N        -33.6270  -40.3590    6.8560 N.3   170  ILE170     -0.1245
    135  CA       -32.8040  -40.5040    5.6490 C.3   170  ILE170      0.1561
    136  C        -31.5610  -39.6260    5.7260 C.2   170  ILE170      0.2260
    137  O        -30.4710  -40.1110    5.5240 O.2   170  ILE170     -0.2867
    138  CB       -33.5680  -40.1580    4.3510 C.3   170  ILE170      0.0252
    139  CG1      -34.7030  -41.1560    4.0970 C.3   170  ILE170      0.0019
    140  CG2      -32.6160  -40.1970    3.1570 C.3   170  ILE170      0.0019
    141  CD1      -35.6670  -40.7090    2.9820 C.3   170  ILE170      0.0001
    142  N        -28.7240  -40.0070    9.0360 N.3   173  ARG173     -0.1231
    143  CA       -27.6480  -40.9900    8.9630 C.3   173  ARG173      0.1694
    144  C        -26.2990  -40.3910    8.5940 C.2   173  ARG173      0.2591
    145  O        -25.2870  -40.8720    9.1010 O.2   173  ARG173     -0.2718
    146  CB       -28.0040  -42.1380    7.9860 C.3   173  ARG173      0.0321
    147  CG       -28.8910  -43.2620    8.6180 C.3   173  ARG173      0.0489
    148  CD       -29.3840  -44.3190    7.5880 C.3   173  ARG173      0.2205
    149  NE       -30.3440  -43.7720    6.6030 N.pl3 173  ARG173     -0.0865
    150  CZ       -30.3430  -44.0380    5.2810 C.cat 173  ARG173      0.5346
    151  NH1      -31.2570  -43.4890    4.4710 N.pl3 173  ARG173      0.1354
    152  NH2      -29.4210  -44.8530    4.7470 N.pl3 173  ARG173      0.1354
    153  N        -26.2860  -39.3660    7.7280 N.am  174  LEU174     -0.1980
    154  CA       -25.0340  -38.8550    7.1170 C.3   174  LEU174      0.1596
    155  C        -24.2340  -37.8580    7.9900 C.2   174  LEU174      0.2287
    156  O        -24.8120  -36.8560    8.5180 O.2   174  LEU174     -0.2864
    157  CB       -25.2550  -38.2010    5.7520 C.3   174  LEU174      0.0297
    158  CG       -25.8180  -38.9690    4.5600 C.3   174  LEU174      0.0022
    159  CD1      -27.3690  -38.9240    4.5610 C.3   174  LEU174      0.0001
    160  CD2      -25.2860  -38.3780    3.2370 C.3   174  LEU174      0.0001
    161  N        -16.5420  -41.7360    3.7360 N.3   184  TYR184     -0.1227
    162  CA       -18.0180  -41.7760    3.6990 C.3   184  TYR184      0.1736
    163  C        -18.6710  -42.5320    4.8560 C.2   184  TYR184      0.2595
    164  O        -19.7740  -42.1940    5.2590 O.2   184  TYR184     -0.2718
    165  CB       -18.4750  -42.4090    2.4050 C.3   184  TYR184      0.0548
    166  CG       -19.8160  -41.9280    1.9190 C.ar  184  TYR184     -0.0200
    167  CD1      -19.9530  -40.6680    1.3150 C.ar  184  TYR184     -0.0009
    168  CD2      -20.9500  -42.7290    2.0360 C.ar  184  TYR184     -0.0009
    169  CE1      -21.1850  -40.2190    0.8480 C.ar  184  TYR184      0.0417
    170  CE2      -22.2060  -42.2790    1.5860 C.ar  184  TYR184      0.0417
    171  CZ       -22.3060  -41.0190    0.9940 C.ar  184  TYR184      0.1957
    172  OH       -23.5200  -40.5770    0.5110 O.3   184  TYR184     -0.2866
    173  N        -17.9920  -43.5770    5.3520 N.am  185  PHE185     -0.1976
    174  CA       -18.5030  -44.4660    6.4100 C.3   185  PHE185      0.1639
    175  C        -17.6790  -44.3820    7.7030 C.2   185  PHE185      0.2290
    176  O        -16.4360  -44.4890    7.6340 O.2   185  PHE185     -0.2864
    177  CB       -18.4770  -45.9270    5.9160 C.3   185  PHE185      0.0560
    178  CG       -19.2690  -46.1580    4.6620 C.ar  185  PHE185     -0.0200
    179  CD1      -18.6420  -46.5750    3.5040 C.ar  185  PHE185     -0.0042
    180  CD2      -20.6640  -45.9130    4.6360 C.ar  185  PHE185     -0.0042
    181  CE1      -19.3630  -46.7680    2.3410 C.ar  185  PHE185     -0.0003
    182  CE2      -21.4070  -46.1050    3.4710 C.ar  185  PHE185     -0.0003
    183  CZ       -20.7570  -46.5470    2.3140 C.ar  185  PHE185     -0.0000
    184  N        -16.8240  -43.2450   -7.4000 N.3   267  VAL267     -0.1245
    185  CA       -18.1860  -42.7070   -7.3600 C.3   267  VAL267      0.1561
    186  C        -18.1400  -41.2060   -7.4810 C.2   267  VAL267      0.2260
    187  O        -17.4640  -40.5350   -6.6880 O.2   267  VAL267     -0.2867
    188  CB       -18.8970  -42.9750   -6.0070 C.3   267  VAL267      0.0252
    189  CG1      -20.3940  -42.4510   -6.0510 C.3   267  VAL267      0.0019
    190  CG2      -18.8410  -44.4350   -5.6360 C.3   267  VAL267      0.0019
    191  N        -21.0430  -38.3390   -7.4750 N.3   269  ASN269     -0.1240
    192  CA       -22.4310  -37.8820   -7.3350 C.3   269  ASN269      0.1653
    193  C        -22.6750  -36.6060   -8.1510 C.2   269  ASN269      0.2266
    194  O        -21.8370  -35.7210   -8.1810 O.2   269  ASN269     -0.2867
    195  CB       -22.8150  -37.6150   -5.8770 C.3   269  ASN269      0.1155
    196  CG       -22.9790  -38.8870   -5.0550 C.2   269  ASN269      0.2627
    197  OD1      -22.6240  -39.9820   -5.4660 O.2   269  ASN269     -0.2716
    198  ND2      -23.5110  -38.7270   -3.8740 N.am  269  ASN269     -0.0877
    199  N        -25.2750  -33.7370   -8.1460 N.3   271  CYS271     -0.1235
    200  CA       -26.2920  -33.3070   -7.1530 C.3   271  CYS271      0.1677
    201  C        -27.3940  -32.4400   -7.7550 C.2   271  CYS271      0.2270
    202  O        -28.4320  -32.2670   -7.1580 O.2   271  CYS271     -0.2867
    203  CB       -25.6590  -32.6390   -5.9470 C.3   271  CYS271      0.0956
    204  SG       -24.4590  -33.6790   -5.1590 S.3   271  CYS271     -0.0801
    205  N        -25.7500  -40.8140  -10.2540 N.3   279  ARG279     -0.1245
    206  CA       -24.3000  -40.8420  -10.1300 C.3   279  ARG279      0.1563
    207  C        -23.6320  -41.4730  -11.3330 C.2   279  ARG279      0.2260
    208  O        -24.2930  -42.1110  -12.1370 O.2   279  ARG279     -0.2867
    209  CB       -23.8400  -41.7110   -8.9570 C.3   279  ARG279      0.0307
    210  CG       -24.6460  -41.7660   -7.7210 C.3   279  ARG279      0.0489
    211  CD       -23.9850  -42.7300   -6.7570 C.3   279  ARG279      0.2205
    212  NE       -24.3140  -44.1370   -6.9860 N.pl3 279  ARG279     -0.0865
    213  CZ       -23.9470  -45.1170   -6.1570 C.cat 279  ARG279      0.5346
    214  NH1      -23.2150  -44.8430   -5.0700 N.pl3 279  ARG279      0.1354
    215  NH2      -24.3060  -46.3730   -6.4090 N.pl3 279  ARG279      0.1354
    216  N        -26.3260  -43.9360  -13.6000 N.3   300  GLU300     -0.1245
    217  CA       -27.2910  -44.6320  -12.7410 C.3   300  GLU300      0.1567
    218  C        -28.5550  -43.7960  -12.5950 C.2   300  GLU300      0.2260
    219  O        -28.5010  -42.6650  -12.1090 O.2   300  GLU300     -0.2867
    220  CB       -26.6120  -44.9230  -11.4050 C.3   300  GLU300      0.0388
    221  CG       -27.4880  -45.2370  -10.2530 C.3   300  GLU300      0.1160
    222  CD       -26.6670  -45.5400   -8.9120 C.2   300  GLU300      0.3649
    223  OE1      -25.5000  -46.1350   -8.9540 O.co2 300  GLU300     -0.2457
    224  OE2      -27.2350  -45.1660   -7.8290 O.co2 300  GLU300     -0.2457
    225  N        -34.5560  -50.1970   -3.8490 N.3   313  TYR313     -0.1241
    226  CA       -34.9100  -49.5140   -2.5770 C.3   313  TYR313      0.1605
    227  C        -36.3750  -49.6100   -2.2250 C.2   313  TYR313      0.2264
    228  O        -37.2220  -49.1290   -2.9800 O.2   313  TYR313     -0.2867
    229  CB       -34.5290  -48.0220   -2.5570 C.3   313  TYR313      0.0534
    230  CG       -33.0820  -47.8030   -2.8320 C.ar  313  TYR313     -0.0201
    231  CD1      -32.6310  -47.6030   -4.1360 C.ar  313  TYR313     -0.0009
    232  CD2      -32.1350  -47.8370   -1.7760 C.ar  313  TYR313     -0.0009
    233  CE1      -31.2790  -47.4430   -4.3960 C.ar  313  TYR313      0.0417
    234  CE2      -30.7840  -47.6440   -2.0230 C.ar  313  TYR313      0.0417
    235  CZ       -30.3610  -47.4520   -3.3430 C.ar  313  TYR313      0.1957
    236  OH       -29.0250  -47.2830   -3.6060 O.3   313  TYR313     -0.2866
    237  N        -34.2390  -52.4320    3.8750 N.3   348  TYR348     -0.1241
    238  CA       -32.9520  -52.2300    3.2420 C.3   348  TYR348      0.1605
    239  C        -31.9230  -52.8350    4.2040 C.2   348  TYR348      0.2264
    240  O        -31.9130  -52.4900    5.3870 O.2   348  TYR348     -0.2867
    241  CB       -32.6710  -50.7390    2.9580 C.3   348  TYR348      0.0534
    242  CG       -31.2950  -50.5700    2.3150 C.ar  348  TYR348     -0.0201
    243  CD1      -31.1490  -50.4340    0.9320 C.ar  348  TYR348     -0.0009
    244  CD2      -30.1220  -50.6270    3.0930 C.ar  348  TYR348     -0.0009
    245  CE1      -29.9010  -50.3210    0.3430 C.ar  348  TYR348      0.0417
    246  CE2      -28.8570  -50.5370    2.4990 C.ar  348  TYR348      0.0417
    247  CZ       -28.7680  -50.3750    1.1200 C.ar  348  TYR348      0.1957
    248  OH       -27.5130  -50.2860    0.5420 O.3   348  TYR348     -0.2866
@<TRIPOS>BOND
     1   216   217    1
     2   217   218    1
     3   217   220    1
     4   218   219    2
     5   208   207    2
     6   220   221    1
     7   207   206    1
     8   205   206    1
     9   221   222    1
    10   206   209    1
    11   209   210    1
    12   223   222   ar
    13   222   224   ar
    14   194   193    2
    15   193   192    1
    16   199   200    1
    17   201   202    2
    18   201   200    1
    19     7     6    1
    20     7     1    1
    21   210   211    1
    22     6     5    1
    23   186   185    1
    24   186   187    2
    25   191   192    1
    26   184   185    1
    27   185   188    1
    28   192   195    1
    29   200   203    1
    30     1     2    1
    31   212   211    1
    32   212   213    2
    33   111   112    1
    34   215   213    1
    35     2     5    1
    36     2     3    1
    37   213   214    1
    38   189   188    1
    39   188   190    1
    40   203   204    1
    41   195   196    1
    42   112   113    1
    43   112   115    1
    44   100    98   ar
    45   100   102   ar
    46    98    97   ar
    47    92    93    1
    48   114   113    2
    49    95    94    2
    50    93    94    1
    51    93    96    1
    52   118   117    2
    53   197   196    2
    54   113   120   am
    55   196   198   am
    56   122   123    2
    57   122   121    1
    58    94   104   am
    59     3     4    2
    60     3     8   am
    61   120   121    1
    62   102   103    1
    63   102   101   ar
    64    97    96    1
    65    97    99   ar
    66   115   116    1
    67    14    16   ar
    68    14    13   ar
    69    16    17   ar
    70   233   231   ar
    71   233   235   ar
    72   117   116    1
    73   117   119   am
    74     8     9    1
    75   121   124    1
    76   231   230   ar
    77   107   106    2
    78   106   105    1
    79   225   226    1
    80    99   101   ar
    81   104   105    1
    82   236   235    1
    83    13    12    1
    84    13    15   ar
    85   235   234   ar
    86    12     9    1
    87    17    15   ar
    88   105   108    1
    89    49    48    1
    90    46    45    1
    91    46    47    2
    92     9    10    1
    93    79    77   ar
    94    79    80   ar
    95   228   227    2
    96   230   229    1
    97   230   232   ar
    98    45    48    1
    99    45    44    1
   100   124   125    1
   101    77    75   ar
   102    73    72    2
   103   226   229    1
   104   226   227    1
   105    70    71    1
   106    71    72    1
   107    71    74    1
   108    11    10    2
   109    80    78   ar
   110    48    50    1
   111    72    81   am
   112    10    18   am
   113    57    56    1
   114    43    41   am
   115    84    83    2
   116   234   232   ar
   117   125   126   ar
   118   125   127   ar
   119    83    82    1
   120   108   110    1
   121   108   109    1
   122    25    23    1
   123   126   128   ar
   124    75    74    1
   125    75    76   ar
   126    81    82    1
   127   127   130   ar
   128   127   129   ar
   129   130   132   ar
   130    23    22    1
   131    56    55    1
   132    56    58    1
   133    82    85    1
   134    78    76   ar
   135    18    19    1
   136   128   129   ar
   137    41    42    2
   138    41    40    1
   139   129   131   ar
   140   132   133   ar
   141    51    52    1
   142    55    52    1
   143   133   131   ar
   144    19    22    1
   145    19    20    1
   146    22    24    1
   147    37    38    1
   148    37    40    1
   149    37    36    1
   150    38    39    2
   151    52    53    1
   152    85    86    1
   153   245   243   ar
   154   245   247   ar
   155   172   171    1
   156   248   247    1
   157   169   171   ar
   158   169   167   ar
   159    54    53    2
   160   243   242   ar
   161   171   170   ar
   162    86    88   ar
   163    86    87   ar
   164    20    21    2
   165   247   246   ar
   166   167   166   ar
   167    88    90   ar
   168    87    89   ar
   169   170   168   ar
   170   166   168   ar
   171   166   165    1
   172    90    91   ar
   173    89    91   ar
   174    69    68   ar
   175    69    67   ar
   176    68    66   ar
   177   183   181   ar
   178   183   182   ar
   179   242   241    1
   180   242   244   ar
   181   181   179   ar
   182   165   162    1
   183   246   244   ar
   184    67    65   ar
   185    66    64   ar
   186   241   238    1
   187   141   139    1
   188    65    64   ar
   189   140   138    1
   190   160   158    1
   191   238   237    1
   192   238   239    1
   193    64    63    1
   194   182   180   ar
   195   179   178   ar
   196   162   161    1
   197   162   163    1
   198    35    33   ar
   199    35    34   ar
   200    63    60    1
   201    33    31   ar
   202   139   138    1
   203   239   240    2
   204   138   135    1
   205   151   150    1
   206   158   159    1
   207   158   157    1
   208   180   178   ar
   209   178   177    1
   210   152   150    1
   211    34    32   ar
   212   163   164    2
   213   163   173   am
   214    26    27    1
   215    61    60    1
   216    61    62    2
   217    31    32   ar
   218    31    30    1
   219   150   149    2
   220    60    59    1
   221   173   174    1
   222   137   136    2
   223   135   136    1
   224   135   134    1
   225   157   154    1
   226    30    27    1
   227   177   174    1
   228    27    28    1
   229   174   175    1
   230   149   148    1
   231   154   153    1
   232   154   155    1
   233    29    28    2
   234   148   147    1
   235   176   175    2
   236   153   144   am
   237   146   147    1
   238   146   143    1
   239   155   156    2
   240   144   143    1
   241   144   145    2
   242   143   142    1
