@<TRIPOS>MOLECULE
tmp/3gfaB00.pdb
 74 71 0 0 0
SMALL
GASTEIGER

@<TRIPOS>ATOM
      1  N          7.9630   60.9930    3.2740 N.3    33  ASN33      -0.1225
      2  CA         8.3580   59.6730    2.8210 C.3    33  ASN33       0.1785
      3  C          9.6090   59.1090    3.4920 C.2    33  ASN33       0.2597
      4  O         10.0080   57.9980    3.1750 O.2    33  ASN33      -0.2718
      5  CB         8.5030   59.6340    1.2920 C.3    33  ASN33       0.1169
      6  CG         7.1980   59.4310    0.5830 C.2    33  ASN33       0.2627
      7  OD1        6.3220   58.7050    1.0840 O.2    33  ASN33      -0.2716
      8  ND2        7.0790   60.0220   -0.6300 N.am   33  ASN33      -0.0877
      9  N         10.2110   59.8500    4.4160 N.am   34  ALA34      -0.1966
     10  CA        11.2960   59.3040    5.1870 C.3    34  ALA34       0.1713
     11  C         10.8240   58.1190    6.0100 C.2    34  ALA34       0.2458
     12  O          9.6450   58.0220    6.3950 O.2    34  ALA34      -0.2730
     13  CB        11.9080   60.3830    6.1090 C.3    34  ALA34       0.0333
     14  N         11.7400   57.2250    6.3370 N.am   35  PRO35      -0.2716
     15  CA        11.4460   56.2130    7.3500 C.3    35  PRO35       0.1536
     16  C         11.3970   56.8550    8.7300 C.2    35  PRO35       0.2599
     17  O         11.8990   57.9570    8.9430 O.2    35  PRO35      -0.2715
     18  CB        12.6070   55.2530    7.2270 C.3    35  PRO35       0.0310
     19  CG        13.7450   56.1590    6.8440 C.3    35  PRO35       0.0237
     20  CD        13.1370   57.1580    5.8960 C.3    35  PRO35       0.0939
     21  N         10.7550   56.1760    9.6790 N.am   36  SER36      -0.1936
     22  CA        10.8010   56.6200   11.0480 C.3    36  SER36       0.2055
     23  C         10.6050   55.4580   11.9850 C.2    36  SER36       0.2644
     24  O          9.9630   54.4670   11.6430 O.2    36  SER36      -0.2714
     25  CB         9.7480   57.6910   11.3360 C.3    36  SER36       0.2130
     26  OG         8.3980   57.2640   11.0840 O.3    36  SER36      -0.2179
     27  N         11.2040   55.5770   13.1700 N.am   37  SER37      -0.1935
     28  CA        11.1060   54.5450   14.1820 C.3    37  SER37       0.2055
     29  C          9.6290   54.3150   14.5230 C.2    37  SER37       0.2643
     30  O          8.9100   55.2770   14.8150 O.2    37  SER37      -0.2714
     31  CB        11.8900   55.0110   15.4020 C.3    37  SER37       0.2130
     32  OG        11.6880   54.1280   16.4850 O.3    37  SER37      -0.2179
     33  N          9.2200   53.0490   14.4180 N.am   38  LYS38      -0.1963
     34  CA         7.8470   52.5870   14.6580 C.3    38  LYS38       0.1728
     35  C          6.8410   53.3060   13.7520 C.2    38  LYS38       0.2616
     36  O          5.6450   53.3520   14.0330 O.2    38  LYS38      -0.2715
     37  CB         7.4820   52.6530   16.1540 C.3    38  LYS38       0.0311
     38  CG         8.3460   51.7570   17.0390 C.3    38  LYS38       0.0038
     39  CD         8.1190   50.2900   16.8010 C.3    38  LYS38       0.0206
     40  CE         9.0350   49.3930   17.6260 C.3    38  LYS38       0.1093
     41  NZ         8.8050   47.9620   17.2950 N.3    38  LYS38      -0.1314
     42  N          7.3350   53.8160   12.6210 N.am   39  ASN39      -0.1972
     43  CA         6.5240   54.6420   11.7220 C.3    39  ASN39       0.1688
     44  C          5.7700   55.7470   12.4450 C.2    39  ASN39       0.2292
     45  O          4.6440   56.1350   12.0330 O.2    39  ASN39      -0.2864
     46  CB         5.5340   53.7980   10.8770 C.3    39  ASN39       0.1181
     47  CG         5.0900   54.5080    9.6070 C.2    39  ASN39       0.2629
     48  OD1        5.8560   55.2910    9.0600 O.2    39  ASN39      -0.2716
     49  ND2        3.8830   54.2210    9.1090 N.am   39  ASN39      -0.0877
     50  N         16.0390   57.9930   18.4870 N.3   118  ALA118     -0.1245
     51  CA        15.3490   57.3750   17.3660 C.3   118  ALA118      0.1562
     52  C         14.5220   58.3980   16.6230 C.2   118  ALA118      0.2260
     53  O         14.5170   58.4120   15.3870 O.2   118  ALA118     -0.2867
     54  CB        14.4810   56.2090   17.8280 C.3   118  ALA118      0.0290
     55  N         16.9050   60.8510   14.6280 N.3   120  GLN120     -0.1231
     56  CA        17.3860   60.2330   13.4060 C.3   120  GLN120      0.1698
     57  C         16.3300   60.2450   12.3170 C.2   120  GLN120      0.2592
     58  O         16.6210   60.5090   11.1500 O.2   120  GLN120     -0.2718
     59  CB        17.7390   58.7510   13.6920 C.3   120  GLN120      0.0381
     60  CG        18.9810   58.5910   14.3840 C.3   120  GLN120      0.0905
     61  CD        19.1540   57.1360   14.7330 C.2   120  GLN120      0.2608
     62  OE1       19.4710   56.3240   13.8530 O.2   120  GLN120     -0.2717
     63  NE2       19.0070   56.8250   16.0040 N.am  120  GLN120     -0.0878
     64  N         15.1110   59.9020   12.7020 N.am  121  SER121     -0.1952
     65  CA        14.0030   59.8890   11.7800 C.3   121  SER121      0.1924
     66  C         13.7910   61.2670   11.1450 C.2   121  SER121      0.2314
     67  O         13.5930   61.3910    9.9440 O.2   121  SER121     -0.2863
     68  CB        12.7360   59.4290   12.5030 C.3   121  SER121      0.2116
     69  OG        12.9580   58.1480   13.0800 O.3   121  SER121     -0.2180
     70  N         16.3820   62.0570    8.6410 N.3   124  ALA124     -0.1245
     71  CA        16.0930   61.4420    7.3610 C.3   124  ALA124      0.1562
     72  C         15.0870   62.2930    6.5700 C.2   124  ALA124      0.2260
     73  O         15.2700   62.4790    5.3700 O.2   124  ALA124     -0.2867
     74  CB        15.5430   60.0060    7.5670 C.3   124  ALA124      0.0290
@<TRIPOS>BOND
     1     8     6   am
     2     6     7    2
     3     6     5    1
     4     5     2    1
     5     2     1    1
     6     2     3    1
     7     4     3    2
     8     3     9   am
     9     9    10    1
    10    10    11    1
    11    10    13    1
    12    73    72    2
    13    20    14    1
    14    20    19    1
    15    11    14   am
    16    11    12    2
    17    14    15    1
    18    72    71    1
    19    19    18    1
    20    18    15    1
    21    15    16    1
    22    71    74    1
    23    71    70    1
    24    16    17    2
    25    16    21   am
    26    48    47    2
    27    49    47   am
    28    47    46    1
    29    21    22    1
    30    67    66    2
    31    46    43    1
    32    22    25    1
    33    22    23    1
    34    26    25    1
    35    66    65    1
    36    58    57    2
    37    24    23    2
    38    43    44    1
    39    43    42    1
    40    65    68    1
    41    65    64    1
    42    23    27   am
    43    45    44    2
    44    57    64   am
    45    57    56    1
    46    68    69    1
    47    42    35   am
    48    27    28    1
    49    56    59    1
    50    56    55    1
    51    59    60    1
    52    35    36    2
    53    35    34    1
    54    62    61    2
    55    28    29    1
    56    28    31    1
    57    60    61    1
    58    33    29   am
    59    33    34    1
    60    29    30    2
    61    34    37    1
    62    61    63   am
    63    53    52    2
    64    31    32    1
    65    37    38    1
    66    52    51    1
    67    39    38    1
    68    39    40    1
    69    41    40    1
    70    51    54    1
    71    51    50    1
