@<TRIPOS>MOLECULE
tmp/3gfaB01.pdb
 143 139 0 0 0
SMALL
GASTEIGER

@<TRIPOS>ATOM
      1  N         24.5690   68.0790   -3.7090 N.3     8  ARG8       -0.1231
      2  CA        24.0140   68.8780   -2.6320 C.3     8  ARG8        0.1694
      3  C         25.0620   69.6850   -1.8720 C.2     8  ARG8        0.2592
      4  O         26.0900   69.1540   -1.4930 O.2     8  ARG8       -0.2718
      5  CB        23.2870   67.9570   -1.6650 C.3     8  ARG8        0.0321
      6  CG        22.5170   68.6980   -0.5620 C.3     8  ARG8        0.0489
      7  CD        22.5390   67.9280    0.7500 C.3     8  ARG8        0.2205
      8  NE        23.8930   67.5700    1.1530 N.pl3   8  ARG8       -0.0865
      9  CZ        24.7710   68.4190    1.6930 C.cat   8  ARG8        0.5346
     10  NH1       24.4280   69.6700    1.9690 N.pl3   8  ARG8        0.1354
     11  NH2       25.9920   67.9810    1.9630 N.pl3   8  ARG8        0.1354
     12  N         24.7900   70.9730   -1.6830 N.am    9  ARG9       -0.1966
     13  CA        25.5730   71.8640   -0.8810 C.3     9  ARG9        0.1729
     14  C         24.6800   72.6560    0.0550 C.2     9  ARG9        0.2616
     15  O         23.5060   72.9190   -0.2490 O.2     9  ARG9       -0.2715
     16  CB        26.3310   72.8780   -1.7450 C.3     9  ARG9        0.0348
     17  CG        27.2200   72.3210   -2.8130 C.3     9  ARG9        0.0492
     18  CD        28.5290   71.7510   -2.2620 C.3     9  ARG9        0.2205
     19  NE        29.2560   71.2260   -3.4260 N.pl3   9  ARG9       -0.0865
     20  CZ        29.1610   69.9880   -3.8910 C.cat   9  ARG9        0.5346
     21  NH1       28.4430   69.0870   -3.2550 N.pl3   9  ARG9        0.1354
     22  NH2       29.8130   69.6330   -4.9900 N.pl3   9  ARG9        0.1354
     23  N         25.2230   73.0780    1.1850 N.am   10  SER10      -0.1950
     24  CA        24.5900   74.0810    2.0030 C.3    10  SER10       0.1924
     25  C         24.6630   75.4310    1.2870 C.2    10  SER10       0.2314
     26  O         25.7480   75.8930    0.9540 O.2    10  SER10      -0.2863
     27  CB        25.2540   74.1720    3.3640 C.3    10  SER10       0.2116
     28  OG        24.9850   73.0110    4.1340 O.3    10  SER10      -0.2180
     29  N         23.9250   79.4930    1.0830 N.3    12  ARG12      -0.1245
     30  CA        23.8170   80.6390    1.9850 C.3    12  ARG12       0.1563
     31  C         23.6730   81.9720    1.2330 C.2    12  ARG12       0.2260
     32  O         23.7600   83.0490    1.8450 O.2    12  ARG12      -0.2867
     33  CB        24.9980   80.6660    2.9460 C.3    12  ARG12       0.0307
     34  CG        25.0710   79.3930    3.8020 C.3    12  ARG12       0.0489
     35  CD        26.2210   79.4640    4.7940 C.3    12  ARG12       0.2205
     36  NE        26.2970   78.2820    5.6410 N.pl3  12  ARG12      -0.0865
     37  CZ        26.9510   77.1770    5.3210 C.cat  12  ARG12       0.5346
     38  NH1       27.6310   77.0530    4.1970 N.pl3  12  ARG12       0.1354
     39  NH2       26.9570   76.1710    6.1660 N.pl3  12  ARG12       0.1354
     40  N         24.9420   85.3680   11.4070 N.3    84  TYR84      -0.1227
     41  CA        25.0410   85.2300    9.9500 C.3    84  TYR84       0.1736
     42  C         23.8590   84.3930    9.4550 C.2    84  TYR84       0.2596
     43  O         23.2350   84.7270    8.4550 O.2    84  TYR84      -0.2718
     44  CB        26.3960   84.6440    9.5010 C.3    84  TYR84       0.0548
     45  CG        26.6570   84.9000    8.0400 C.ar   84  TYR84      -0.0200
     46  CD1       26.9010   86.1960    7.5680 C.ar   84  TYR84      -0.0009
     47  CD2       26.6320   83.8560    7.1100 C.ar   84  TYR84      -0.0009
     48  CE1       27.1140   86.4340    6.2070 C.ar   84  TYR84       0.0417
     49  CE2       26.8410   84.0900    5.7640 C.ar   84  TYR84       0.0417
     50  CZ        27.0720   85.3800    5.3180 C.ar   84  TYR84       0.1957
     51  OH        27.2750   85.5930    3.9630 O.3    84  TYR84      -0.2866
     52  N         23.5030   83.3480   10.1980 N.am   85  THR85      -0.1953
     53  CA        22.3350   82.5300    9.8350 C.3    85  THR85       0.1897
     54  C         21.0610   83.3670    9.7480 C.2    85  THR85       0.2313
     55  O         20.2670   83.2000    8.8230 O.2    85  THR85      -0.2863
     56  CB        22.1740   81.3040   10.7800 C.3    85  THR85       0.1794
     57  OG1       23.3770   80.5280   10.6740 O.3    85  THR85      -0.2208
     58  CG2       20.9640   80.4210   10.4080 C.3    85  THR85       0.0378
     59  N         21.0450   85.0480    6.4870 N.3    88  ILE88      -0.1245
     60  CA        20.7360   84.1240    5.4100 C.3    88  ILE88       0.1561
     61  C         19.2250   83.8390    5.3560 C.2    88  ILE88       0.2260
     62  O         18.6360   83.8170    4.2660 O.2    88  ILE88      -0.2867
     63  CB        21.5050   82.8160    5.5790 C.3    88  ILE88       0.0252
     64  CG1       23.0070   83.0610    5.5290 C.3    88  ILE88       0.0019
     65  CG2       21.0620   81.7680    4.4900 C.3    88  ILE88       0.0019
     66  CD1       23.8100   81.8560    6.1280 C.3    88  ILE88       0.0001
     67  N         19.4230   75.4530    3.2050 N.3   140  LEU140     -0.1231
     68  CA        20.3250   75.4850    4.3750 C.3   140  LEU140      0.1693
     69  C         19.5840   74.8890    5.5600 C.2   140  LEU140      0.2592
     70  O         18.5160   75.3670    5.9870 O.2   140  LEU140     -0.2718
     71  CB        20.7250   76.9080    4.7310 C.3   140  LEU140      0.0284
     72  CG        21.7440   76.9810    5.8820 C.3   140  LEU140      0.0019
     73  CD1       23.0530   76.2990    5.4360 C.3   140  LEU140      0.0001
     74  CD2       21.9260   78.4190    6.3300 C.3   140  LEU140      0.0001
     75  N         20.1710   73.8050    6.0880 N.am  141  TRP141     -0.1962
     76  CA        19.6940   73.1560    7.3040 C.3   141  TRP141      0.1771
     77  C         20.2840   73.9570    8.4610 C.2   141  TRP141      0.2619
     78  O         21.4650   74.2840    8.4540 O.2   141  TRP141     -0.2715
     79  CB        20.2340   71.7470    7.3250 C.3   141  TRP141      0.0590
     80  CG        19.6680   70.7510    8.2940 C.ar  141  TRP141      0.0006
     81  CD1       19.1730   70.9430    9.5460 C.ar  141  TRP141      0.0946
     82  CD2       19.6270   69.3260    8.0570 C.ar  141  TRP141      0.0152
     83  NE1       18.7730   69.7250   10.0600 N.ar  141  TRP141     -0.2442
     84  CE2       19.0560   68.7290    9.1750 C.ar  141  TRP141      0.0810
     85  CE3       19.9860   68.5310    6.9620 C.ar  141  TRP141      0.0012
     86  CZ2       18.8640   67.3570    9.2560 C.ar  141  TRP141      0.0191
     87  CZ3       19.8070   67.1950    7.0150 C.ar  141  TRP141      0.0001
     88  CH2       19.2760   66.6170    8.1660 C.ar  141  TRP141      0.0015
     89  N         19.4500   74.2530    9.4530 N.am  142  ILE142     -0.1963
     90  CA        19.7660   75.2380   10.5030 C.3   142  ILE142      0.1727
     91  C         19.4910   74.7130   11.8880 C.2   142  ILE142      0.2616
     92  O         18.3320   74.4700   12.2410 O.2   142  ILE142     -0.2715
     93  CB        18.9830   76.5680   10.2520 C.3   142  ILE142      0.0290
     94  CG1       19.4260   77.2030    8.9270 C.3   142  ILE142      0.0022
     95  CG2       19.1790   77.5260   11.4660 C.3   142  ILE142      0.0023
     96  CD1       18.4290   78.3020    8.4500 C.3   142  ILE142      0.0001
     97  N         20.5390   74.6060   12.7210 N.am  143  CYS143     -0.1954
     98  CA        20.3520   74.4230   14.1670 C.3   143  CYS143      0.1843
     99  C         20.7650   75.6510   14.9610 C.2   143  CYS143      0.2625
    100  O         20.6050   75.6450   16.1740 O.2   143  CYS143     -0.2714
    101  CB        21.0620   73.1840   14.7350 C.3   143  CYS143      0.0997
    102  SG        20.2840   71.6280   14.2490 S.3   143  CYS143     -0.0797
    103  N         21.1820   76.7220   14.2820 N.am  144  ASP144     -0.1971
    104  CA        21.4650   77.9760   14.9860 C.3   144  ASP144      0.1709
    105  C         20.1990   78.5170   15.6840 C.2   144  ASP144      0.2293
    106  O         20.2830   79.3480   16.5820 O.2   144  ASP144     -0.2864
    107  CB        22.1160   79.0180   14.0680 C.3   144  ASP144      0.1436
    108  CG        23.6060   78.8310   13.8990 C.2   144  ASP144      0.3671
    109  OD1       24.2240   78.0400   14.6730 O.co2 144  ASP144     -0.2456
    110  OD2       24.1580   79.4690   12.9800 O.co2 144  ASP144     -0.2456
    111  N         32.7350   71.4450   -3.2630 N.3   177  ARG177     -0.1231
    112  CA        32.5010   70.4650   -2.1930 C.3   177  ARG177      0.1694
    113  C         33.1970   70.8660   -0.9070 C.2   177  ARG177      0.2591
    114  O         34.3740   71.2490   -0.8830 O.2   177  ARG177     -0.2718
    115  CB        32.9650   69.0430   -2.5950 C.3   177  ARG177      0.0321
    116  CG        32.4240   67.8910   -1.6980 C.3   177  ARG177      0.0489
    117  CD        32.8740   66.4930   -2.1600 C.3   177  ARG177      0.2205
    118  NE        31.9870   65.9230   -3.1850 N.pl3 177  ARG177     -0.0865
    119  CZ        31.0640   64.9800   -2.9600 C.cat 177  ARG177      0.5346
    120  NH1       30.8850   64.4760   -1.7400 N.pl3 177  ARG177      0.1354
    121  NH2       30.3080   64.5420   -3.9620 N.pl3 177  ARG177      0.1354
    122  N         32.4880   70.7220    0.2050 N.am  178  ARG178     -0.1980
    123  CA        33.0670   71.0030    1.4910 C.3   178  ARG178      0.1597
    124  C         33.8870   69.8070    1.9330 C.2   178  ARG178      0.2287
    125  O         33.6710   68.6930    1.4690 O.2   178  ARG178     -0.2864
    126  CB        32.0110   71.3760    2.5130 C.3   178  ARG178      0.0334
    127  CG        31.6180   72.8630    2.5020 C.3   178  ARG178      0.0492
    128  CD        30.9200   73.2900    1.2480 C.3   178  ARG178      0.2205
    129  NE        30.7730   74.7570    1.2070 N.pl3 178  ARG178     -0.0865
    130  CZ        29.6230   75.4280    1.1890 C.cat 178  ARG178      0.5346
    131  NH1       28.4480   74.8060    1.2240 N.pl3 178  ARG178      0.1354
    132  NH2       29.6510   76.7590    1.1330 N.pl3 178  ARG178      0.1354
    133  N         35.4760   66.5890    3.5420 N.3   180  ARG180     -0.1245
    134  CA        34.9880   65.3680    4.1400 C.3   180  ARG180      0.1563
    135  C         36.1560   64.4650    4.5080 C.2   180  ARG180      0.2260
    136  O         37.1730   64.4020    3.7900 O.2   180  ARG180     -0.2867
    137  CB        34.0500   64.5910    3.2140 C.3   180  ARG180      0.0307
    138  CG        32.7360   65.2410    2.9400 C.3   180  ARG180      0.0489
    139  CD        31.9240   65.4680    4.2130 C.3   180  ARG180      0.2205
    140  NE        30.5260   65.8330    3.9630 N.pl3 180  ARG180     -0.0865
    141  CZ        30.1320   67.0550    3.6280 C.cat 180  ARG180      0.5346
    142  NH1       31.0000   68.0350    3.4410 N.pl3 180  ARG180      0.1354
    143  NH2       28.8560   67.2860    3.4270 N.pl3 180  ARG180      0.1354
@<TRIPOS>BOND
     1    22    20    1
     2   121   119    1
     3    20    19    2
     4    20    21    1
     5     1     2    1
     6    19    18    1
     7   111   112    1
     8   118   119    2
     9   118   117    1
    10   119   120    1
    11    17    18    1
    12    17    16    1
    13     2     3    1
    14     2     5    1
    15   115   112    1
    16   115   116    1
    17   112   113    1
    18   117   116    1
    19     3    12   am
    20     3     4    2
    21    16    13    1
    22    12    13    1
    23     5     6    1
    24   113   114    2
    25   113   122   am
    26    13    14    1
    27     6     7    1
    28    15    14    2
    29    14    23   am
    30   122   123    1
    31     7     8    1
    32    26    25    2
    33    29    30    1
    34   132   130    1
    35     8     9    2
    36    23    24    1
    37   130   129    2
    38   130   131    1
    39   129   128    1
    40    31    32    2
    41    31    30    1
    42   128   127    1
    43    25    24    1
    44   125   124    2
    45   123   124    1
    46   123   126    1
    47     9    11    1
    48     9    10    1
    49    30    33    1
    50    24    27    1
    51   127   126    1
    52   138   137    1
    53   138   139    1
    54    33    34    1
    55    67    68    1
    56   137   134    1
    57    27    28    1
    58   143   141    1
    59   142   141    1
    60   133   134    1
    61   141   140    2
    62   136   135    2
    63    34    35    1
    64    51    50    1
    65   140   139    1
    66   134   135    1
    67    38    37    1
    68    62    61    2
    69    68    71    1
    70    68    69    1
    71    65    63    1
    72    71    72    1
    73    35    36    1
    74    50    49   ar
    75    50    48   ar
    76    37    36    2
    77    37    39    1
    78    61    60    1
    79    60    63    1
    80    60    59    1
    81    73    72    1
    82    64    63    1
    83    64    66    1
    84    69    70    2
    85    69    75   am
    86    49    47   ar
    87    72    74    1
    88    75    76    1
    89    48    46   ar
    90    85    87   ar
    91    85    82   ar
    92    87    88   ar
    93    47    45   ar
    94    76    79    1
    95    76    77    1
    96    79    80    1
    97    46    45   ar
    98    45    44    1
    99    82    80   ar
   100    82    84   ar
   101    88    86   ar
   102    80    81   ar
   103    96    94    1
   104    78    77    2
   105    43    42    2
   106    77    89   am
   107    55    54    2
   108    94    93    1
   109    84    86   ar
   110    84    83   ar
   111    89    90    1
   112    42    41    1
   113    42    52   am
   114    44    41    1
   115    81    83   ar
   116    54    53    1
   117    53    52    1
   118    53    56    1
   119    41    40    1
   120    93    90    1
   121    93    95    1
   122    58    56    1
   123    90    91    1
   124    57    56    1
   125    91    92    2
   126    91    97   am
   127    97    98    1
   128   110   108   ar
   129   108   107    1
   130   108   109   ar
   131   107   104    1
   132    98   101    1
   133    98    99    1
   134   102   101    1
   135   103    99   am
   136   103   104    1
   137    99   100    2
   138   104   105    1
   139   105   106    2
