@<TRIPOS>MOLECULE
tmp/3gfbA00.pdb
 191 184 0 0 0
SMALL
GASTEIGER

@<TRIPOS>ATOM
      1  N         12.8590  -49.4680   10.4050 N.3   154  ASN154     -0.1240
      2  CA        12.0360  -50.0950   11.4550 C.3   154  ASN154      0.1653
      3  C         10.6440  -49.6560   11.2990 C.2   154  ASN154      0.2266
      4  O          9.7700  -50.5030   11.3050 O.2   154  ASN154     -0.2867
      5  CB        12.5210  -49.8440   12.9050 C.3   154  ASN154      0.1155
      6  CG        13.7970  -50.6010   13.1940 C.2   154  ASN154      0.2627
      7  OD1       14.7240  -50.0410   13.7540 O.2   154  ASN154     -0.2716
      8  ND2       13.8570  -51.8790   12.7900 N.am  154  ASN154     -0.0877
      9  N          0.3030  -47.5460   18.7800 N.3   172  THR172     -0.1203
     10  CA         0.6530  -47.3110   20.1910 C.3   172  THR172      0.1994
     11  C          2.1450  -46.9960   20.3960 C.2   172  THR172      0.2618
     12  O          3.0870  -47.8300   20.0340 O.2   172  THR172     -0.2717
     13  CB         0.1750  -48.4350   21.1690 C.3   172  THR172      0.1784
     14  OG1        0.8360  -49.6470   20.7970 O.3   172  THR172     -0.2211
     15  CG2       -1.2630  -48.6160   21.1310 C.3   172  THR172      0.0376
     16  N          2.3350  -45.8050   21.0040 N.am  173  GLY173     -0.1956
     17  CA         3.6640  -45.3090   21.4480 C.3   173  GLY173      0.1869
     18  C          4.1670  -44.3160   20.3860 C.2   173  GLY173      0.2309
     19  O          4.2280  -44.6660   19.1760 O.2   173  GLY173     -0.2863
     20  N          7.1520  -42.4910   20.7950 N.3   175  GLY175     -0.1210
     21  CA         8.5910  -42.3070   20.9090 C.3   175  GLY175      0.1940
     22  C          9.1780  -42.0450   19.5300 C.2   175  GLY175      0.2454
     23  O          8.4470  -41.8950   18.4710 O.2   175  GLY175     -0.2732
     24  N         10.5220  -41.9470   19.4790 N.am  176  PRO176     -0.2717
     25  CA        11.1290  -41.6680   18.1410 C.3   176  PRO176      0.1535
     26  C         10.6370  -42.6180   17.0360 C.2   176  PRO176      0.2598
     27  O         10.1470  -42.1670   16.0320 O.2   176  PRO176     -0.2715
     28  CB        12.5950  -41.8400   18.4460 C.3   176  PRO176      0.0310
     29  CG        12.6760  -41.3480   19.8770 C.3   176  PRO176      0.0237
     30  CD        11.5670  -42.0700   20.5160 C.3   176  PRO176      0.0939
     31  N         10.6790  -43.9140   17.2590 N.am  177  LEU177     -0.1964
     32  CA        10.2420  -44.8560   16.2400 C.3   177  LEU177      0.1728
     33  C          8.7880  -44.7390   15.8950 C.2   177  LEU177      0.2616
     34  O          8.4160  -44.8800   14.7240 O.2   177  LEU177     -0.2715
     35  CB        10.5410  -46.2570   16.6540 C.3   177  LEU177      0.0311
     36  CG        11.9630  -46.7990   16.4920 C.3   177  LEU177      0.0022
     37  CD1       11.9090  -48.1100   17.2140 C.3   177  LEU177      0.0001
     38  CD2       12.3520  -47.1040   14.9760 C.3   177  LEU177      0.0001
     39  N          7.9510  -44.5040   16.9030 N.am  178  GLY178     -0.1955
     40  CA         6.5200  -44.3150   16.7010 C.3   178  GLY178      0.1869
     41  C          6.1740  -43.0730   15.9620 C.2   178  GLY178      0.2309
     42  O          5.2450  -43.1190   15.1510 O.2   178  GLY178     -0.2863
     43  N         -2.0040  -43.5550   20.2830 N.3   196  SER196     -0.1202
     44  CA        -2.2320  -43.6770   21.7240 C.3   196  SER196      0.2020
     45  C         -0.9080  -43.5330   22.4030 C.2   196  SER196      0.2619
     46  O          0.0020  -44.3670   22.1790 O.2   196  SER196     -0.2717
     47  CB        -2.9020  -44.9810   22.1350 C.3   196  SER196      0.2103
     48  OG        -2.9100  -45.0750   23.5860 O.3   196  SER196     -0.2182
     49  N         -0.8160  -42.4210   23.1560 N.am  197  GLU197     -0.1965
     50  CA         0.3870  -42.0160   23.8500 C.3   197  GLU197      0.1718
     51  C          0.1660  -41.3030   25.2350 C.2   197  GLU197      0.2458
     52  O         -0.4730  -40.2660   25.2980 O.2   197  GLU197     -0.2730
     53  CB         1.2270  -41.0980   22.8940 C.3   197  GLU197      0.0428
     54  CG         2.4850  -40.4220   23.5290 C.3   197  GLU197      0.1163
     55  CD         3.5320  -41.3990   24.0550 C.2   197  GLU197      0.3649
     56  OE1        3.9550  -42.2820   23.3030 O.co2 197  GLU197     -0.2457
     57  OE2        3.9810  -41.3230   25.2220 O.co2 197  GLU197     -0.2457
     58  N          0.8010  -41.8000   26.3090 N.am  198  PRO198     -0.2716
     59  CA         0.7040  -41.1720   27.6580 C.3   198  PRO198      0.1536
     60  C          1.3910  -39.7580   27.7640 C.2   198  PRO198      0.2599
     61  O          0.7300  -38.7810   28.1560 O.2   198  PRO198     -0.2715
     62  CB         1.3630  -42.2220   28.5730 C.3   198  PRO198      0.0310
     63  CG         2.0450  -43.0560   27.7450 C.3   198  PRO198      0.0237
     64  CD         1.6010  -43.0030   26.3610 C.3   198  PRO198      0.0939
     65  N          2.6810  -39.6750   27.3660 N.am  199  SER199     -0.1950
     66  CA         3.4510  -38.4190   27.2250 C.3   199  SER199      0.1924
     67  C          2.8170  -37.3160   26.3880 C.2   199  SER199      0.2314
     68  O          2.6460  -37.4720   25.1640 O.2   199  SER199     -0.2863
     69  CB         4.8220  -38.7130   26.6880 C.3   199  SER199      0.2116
     70  OG         5.5340  -37.4980   26.6040 O.3   199  SER199     -0.2180
     71  N          5.2030  -35.9580   23.6510 N.3   202  ARG202     -0.1245
     72  CA         5.1550  -36.9580   22.6100 C.3   202  ARG202      0.1563
     73  C          3.8610  -36.9730   21.7060 C.2   202  ARG202      0.2260
     74  O          3.9750  -37.2160   20.4540 O.2   202  ARG202     -0.2867
     75  CB         5.6050  -38.3230   23.1820 C.3   202  ARG202      0.0307
     76  CG         7.0540  -38.3060   23.4410 C.3   202  ARG202      0.0489
     77  CD         7.4220  -39.6390   23.9280 C.3   202  ARG202      0.2205
     78  NE         8.8560  -39.7080   23.9570 N.pl3 202  ARG202     -0.0865
     79  CZ         9.5970  -40.8090   24.1260 C.cat 202  ARG202      0.5346
     80  NH1        9.0640  -42.0130   24.2740 N.pl3 202  ARG202      0.1354
     81  NH2       10.9320  -40.6790   24.1360 N.pl3 202  ARG202      0.1354
     82  N         -3.9310  -42.6310   26.8900 N.3   217  PRO217     -0.2102
     83  CA        -4.5290  -43.8370   27.5120 C.3   217  PRO217      0.1504
     84  C         -4.7510  -43.7180   29.0350 C.2   217  PRO217      0.2575
     85  O         -5.8680  -43.9870   29.4790 O.2   217  PRO217     -0.2718
     86  CB        -3.5390  -44.9540   27.1750 C.3   217  PRO217      0.0282
     87  CG        -2.3100  -44.2420   27.0020 C.3   217  PRO217      0.0208
     88  CD        -2.6660  -42.9890   26.2510 C.3   217  PRO217      0.0893
     89  N         -3.7200  -43.3420   29.8190 N.am  218  PHE218     -0.1977
     90  CA        -3.8570  -42.8120   31.2450 C.3   218  PHE218      0.1639
     91  C         -4.9860  -41.8340   31.5190 C.2   218  PHE218      0.2290
     92  O         -5.3480  -41.6230   32.6670 O.2   218  PHE218     -0.2864
     93  CB        -2.5210  -42.1990   31.7060 C.3   218  PHE218      0.0560
     94  CG        -1.3860  -43.1800   31.5660 C.ar  218  PHE218     -0.0200
     95  CD1       -1.6740  -44.5090   31.2010 C.ar  218  PHE218     -0.0042
     96  CD2       -0.0630  -42.8190   31.8040 C.ar  218  PHE218     -0.0042
     97  CE1       -0.6490  -45.4550   31.0320 C.ar  218  PHE218     -0.0003
     98  CE2        0.9760  -43.7320   31.6670 C.ar  218  PHE218     -0.0003
     99  CZ         0.6970  -45.0610   31.2800 C.ar  218  PHE218     -0.0000
    100  N          4.2620  -49.9430   18.8930 N.3   241  PHE241     -0.1227
    101  CA         5.5280  -49.2150   19.0470 C.3   241  PHE241      0.1736
    102  C          6.0990  -49.2230   20.5160 C.2   241  PHE241      0.2596
    103  O          7.2440  -49.6440   20.7290 O.2   241  PHE241     -0.2718
    104  CB         5.3990  -47.8340   18.3480 C.3   241  PHE241      0.0547
    105  CG         5.6110  -47.9200   16.8030 C.ar  241  PHE241     -0.0202
    106  CD1        6.9070  -48.0990   16.2640 C.ar  241  PHE241     -0.0042
    107  CD2        4.5280  -47.7930   15.9160 C.ar  241  PHE241     -0.0042
    108  CE1        7.1080  -48.1400   14.8500 C.ar  241  PHE241     -0.0003
    109  CE2        4.6920  -47.8650   14.5100 C.ar  241  PHE241     -0.0003
    110  CZ         5.9920  -48.0710   13.9690 C.ar  241  PHE241     -0.0000
    111  N          5.2370  -48.9670   21.5040 N.am  242  SER242     -0.1952
    112  CA         5.5940  -48.9120   22.9500 C.3   242  SER242      0.1924
    113  C          6.3520  -50.0550   23.6600 C.2   242  SER242      0.2314
    114  O          7.2490  -49.7590   24.4380 O.2   242  SER242     -0.2863
    115  CB         4.3780  -48.5250   23.7590 C.3   242  SER242      0.2116
    116  OG         3.4050  -49.5380   23.6480 O.3   242  SER242     -0.2180
    117  N          4.4280  -51.6130   25.8580 N.3   244  ALA244     -0.1245
    118  CA         3.7360  -51.5930   27.0810 C.3   244  ALA244      0.1562
    119  C          2.6880  -52.8090   27.0820 C.2   244  ALA244      0.2260
    120  O          1.7590  -52.7980   26.2140 O.2   244  ALA244     -0.2867
    121  CB         3.0130  -50.2750   27.1820 C.3   244  ALA244      0.0290
    122  N         -0.0830  -53.3570   28.5360 N.3   246  LYS246     -0.1231
    123  CA        -1.4230  -52.8570   28.3710 C.3   246  LYS246      0.1693
    124  C         -1.7820  -52.3590   27.0020 C.2   246  LYS246      0.2588
    125  O         -2.9230  -52.3220   26.6560 O.2   246  LYS246     -0.2718
    126  CB        -1.6940  -51.7770   29.3890 C.3   246  LYS246      0.0285
    127  CG        -3.1420  -51.4020   29.5370 C.3   246  LYS246      0.0035
    128  CD        -3.7750  -52.0160   30.7700 C.3   246  LYS246      0.0206
    129  CE        -5.2960  -52.1890   30.6900 C.3   246  LYS246      0.1093
    130  NZ        -5.7710  -53.3260   31.5230 N.3   246  LYS246     -0.1314
    131  N         -0.8090  -51.9490   26.2190 N.am  247  ALA247     -0.2033
    132  CA        -1.1430  -51.3730   24.9540 C.3   247  ALA247      0.1283
    133  C         -1.2680  -52.5230   23.9890 C.3   247  ALA247      0.2036
    134  O         -2.1200  -52.3850   23.2070 O.3   247  ALA247     -0.2185
    135  CB        -0.1860  -50.4630   24.5150 C.3   247  ALA247      0.0262
    136  N         -4.7710  -53.6020   24.5920 N.3   250  GLN250     -0.1245
    137  CA        -5.7360  -52.6300   24.1430 C.3   250  GLN250      0.1566
    138  C         -5.8880  -52.5690   22.6040 C.2   250  GLN250      0.2260
    139  O         -6.9480  -52.4650   22.1200 O.2   250  GLN250     -0.2867
    140  CB        -5.4530  -51.2400   24.7320 C.3   250  GLN250      0.0367
    141  CG        -5.5700  -51.0980   26.1980 C.3   250  GLN250      0.0905
    142  CD        -5.0410  -49.6970   26.6370 C.2   250  GLN250      0.2608
    143  OE1       -5.8050  -48.7760   26.9400 O.2   250  GLN250     -0.2717
    144  NE2       -3.7200  -49.5300   26.5920 N.am  250  GLN250     -0.0878
    145  N          3.8120  -55.9120   15.4590 N.3   263  LEU263     -0.1231
    146  CA         4.4330  -55.9270   16.7660 C.3   263  LEU263      0.1693
    147  C          5.9340  -55.5660   16.6930 C.2   263  LEU263      0.2592
    148  O          6.8010  -56.4690   16.2790 O.2   263  LEU263     -0.2718
    149  CB         4.3840  -57.3960   17.3580 C.3   263  LEU263      0.0284
    150  CG         2.9720  -57.7790   17.8380 C.3   263  LEU263      0.0019
    151  CD1        2.9130  -58.9420   18.9190 C.3   263  LEU263      0.0001
    152  CD2        2.0430  -56.5410   18.2160 C.3   263  LEU263      0.0001
    153  N          6.2560  -54.3000   17.0370 N.am  264  LEU264     -0.1966
    154  CA         7.7120  -53.8700   17.0100 C.3   264  LEU264      0.1728
    155  C          8.2660  -53.6220   18.4580 C.2   264  LEU264      0.2617
    156  O          9.3930  -54.0730   18.7820 O.2   264  LEU264     -0.2715
    157  CB         7.9000  -52.5430   16.2180 C.3   264  LEU264      0.0311
    158  CG         9.3480  -51.9700   16.0830 C.3   264  LEU264      0.0022
    159  CD1       10.2450  -52.7930   15.0720 C.3   264  LEU264      0.0001
    160  CD2        9.3580  -50.5370   15.7190 C.3   264  LEU264      0.0001
    161  N          7.5460  -52.8220   19.2700 N.am  265  GLY265     -0.1940
    162  CA         7.9080  -52.6080   20.6790 C.3   265  GLY265      0.2014
    163  C          8.2470  -53.9150   21.4460 C.2   265  GLY265      0.2638
    164  O          7.5730  -54.9640   21.2870 O.2   265  GLY265     -0.2714
    165  N          9.3000  -53.8450   22.2670 N.am  266  LEU266     -0.1977
    166  CA         9.7790  -54.9600   23.0530 C.3   266  LEU266      0.1596
    167  C          9.2120  -54.8830   24.4910 C.2   266  LEU266      0.2287
    168  O          9.1240  -53.7770   25.0660 O.2   266  LEU266     -0.2864
    169  CB        11.3490  -55.0930   22.9940 C.3   266  LEU266      0.0297
    170  CG        11.9820  -55.4100   21.6060 C.3   266  LEU266      0.0022
    171  CD1       13.5620  -55.1930   21.5150 C.3   266  LEU266      0.0001
    172  CD2       11.5970  -56.8370   21.1050 C.3   266  LEU266      0.0001
    173  N          7.9860  -57.9950   14.0390 N.3   289  ILE289     -0.1231
    174  CA         8.8640  -57.1770   13.1670 C.3   289  ILE289      0.1692
    175  C         10.1660  -56.9250   13.8620 C.2   289  ILE289      0.2593
    176  O         10.2590  -56.2890   14.9380 O.2   289  ILE289     -0.2718
    177  CB         8.2760  -55.7500   12.9220 C.3   289  ILE289      0.0266
    178  CG1        6.7610  -55.7430   12.6010 C.3   289  ILE289      0.0019
    179  CG2        9.2110  -54.9370   11.9400 C.3   289  ILE289      0.0020
    180  CD1        6.4870  -56.3850   11.1880 C.3   289  ILE289      0.0001
    181  N         11.2320  -57.3540   13.2600 N.am  290  THR290     -0.1939
    182  CA        12.5030  -56.9940   13.8120 C.3   290  THR290      0.2028
    183  C         13.5010  -56.7420   12.6560 C.2   290  THR290      0.2642
    184  O         13.3260  -57.3240   11.6140 O.2   290  THR290     -0.2714
    185  CB        13.0350  -58.1510   14.7310 C.3   290  THR290      0.1808
    186  OG1       14.1970  -57.6820   15.4860 O.3   290  THR290     -0.2208
    187  CG2       13.3760  -59.4320   13.8620 C.3   290  THR290      0.0379
    188  N         14.5460  -55.9110   12.8310 N.am  291  GLY291     -0.1954
    189  CA        15.6010  -55.8220   11.7900 C.3   291  GLY291      0.1869
    190  C         15.0450  -55.1840   10.4710 C.2   291  GLY291      0.2309
    191  O         14.0350  -54.4290   10.5010 O.2   291  GLY291     -0.2863
@<TRIPOS>BOND
     1     1     2    1
     2   190   191    2
     3   190   189    1
     4   180   178    1
     5     3     4    2
     6     3     2    1
     7     2     5    1
     8   184   183    2
     9   189   188    1
    10   179   177    1
    11   178   177    1
    12   183   188   am
    13   183   182    1
    14     8     6   am
    15     5     6    1
    16   177   174    1
    17   174   175    1
    18   174   173    1
    19     6     7    2
    20   181   182    1
    21   181   175   am
    22   182   185    1
    23   187   185    1
    24   175   176    2
    25   110   109   ar
    26   110   108   ar
    27   109   107   ar
    28    34    33    2
    29   185   186    1
    30   108   106   ar
    31    38    36    1
    32   159   158    1
    33    42    41    2
    34   145   146    1
    35   160   158    1
    36    33    32    1
    37    33    39   am
    38   107   105   ar
    39    41    40    1
    40    27    26    2
    41   158   157    1
    42   157   154    1
    43    32    35    1
    44    32    31    1
    45   106   105   ar
    46   148   147    2
    47    36    35    1
    48    36    37    1
    49   147   146    1
    50   147   153   am
    51    40    39    1
    52   146   149    1
    53   105   104    1
    54   154   153    1
    55   154   155    1
    56    26    31   am
    57    26    25    1
    58   149   150    1
    59   150   152    1
    60   150   151    1
    61    25    28    1
    62    25    24    1
    63   104   101    1
    64    28    29    1
    65   155   156    2
    66   155   161   am
    67    23    22    2
    68     9    10    1
    69   100   101    1
    70   101   102    1
    71    19    18    2
    72   161   162    1
    73    24    22   am
    74    24    30    1
    75    22    21    1
    76    29    30    1
    77    12    11    2
    78    10    11    1
    79    10    13    1
    80    43    44    1
    81    18    17    1
    82    11    16   am
    83    74    73    2
    84   102   103    2
    85   102   111   am
    86   162   163    1
    87    20    21    1
    88    14    13    1
    89    16    17    1
    90   172   170    1
    91    15    13    1
    92   164   163    2
    93   163   165   am
    94   111   112    1
    95   171   170    1
    96   170   169    1
    97    73    72    1
    98    44    47    1
    99    44    45    1
   100   139   138    2
   101    47    48    1
   102    46    45    2
   103   165   166    1
   104    45    49   am
   105   138   137    1
   106    72    75    1
   107    72    71    1
   108    53    54    1
   109    53    50    1
   110   112   113    1
   111   112   115    1
   112   169   166    1
   113   166   167    1
   114    49    50    1
   115    75    76    1
   116   134   133    1
   117    56    55   ar
   118    76    77    1
   119    54    55    1
   120   116   115    1
   121   113   114    2
   122    50    51    1
   123    77    78    1
   124    78    79    2
   125   133   132    1
   126    55    57   ar
   127    79    81    1
   128    79    80    1
   129   137   136    1
   130   137   140    1
   131   167   168    2
   132   135   132    1
   133   140   141    1
   134   132   131    1
   135    68    67    2
   136    51    52    2
   137    51    58   am
   138   117   118    1
   139   141   142    1
   140   120   119    2
   141   131   124   am
   142    88    82    1
   143    88    87    1
   144    58    64    1
   145    58    59    1
   146    64    63    1
   147    67    66    1
   148   144   142   am
   149    70    69    1
   150   142   143    2
   151   125   124    2
   152    69    66    1
   153    82    83    1
   154    87    86    1
   155   124   123    1
   156   118   119    1
   157   118   121    1
   158    86    83    1
   159    66    65    1
   160    65    60   am
   161    83    84    1
   162    59    60    1
   163    59    62    1
   164    63    62    1
   165    60    61    2
   166   123   122    1
   167   123   126    1
   168    84    85    2
   169    84    89   am
   170   126   127    1
   171   127   128    1
   172    89    90    1
   173   129   128    1
   174   129   130    1
   175    97    95   ar
   176    97    99   ar
   177    95    94   ar
   178    90    91    1
   179    90    93    1
   180    99    98   ar
   181    91    92    2
   182    94    93    1
   183    94    96   ar
   184    98    96   ar
