@<TRIPOS>MOLECULE
tmp/3gfeA00.pdb
 178 168 0 0 0
SMALL
GASTEIGER

@<TRIPOS>ATOM
      1  N         -1.1950   33.7300   39.7840 N.3    30  VAL30      -0.1231
      2  CA        -2.2600   33.5950   38.7880 C.3    30  VAL30       0.1692
      3  C         -2.6070   32.1240   38.5230 C.2    30  VAL30       0.2592
      4  O         -3.7410   31.8090   38.1550 O.2    30  VAL30      -0.2718
      5  CB        -1.9340   34.3290   37.4440 C.3    30  VAL30       0.0266
      6  CG1       -1.6450   35.8030   37.6800 C.3    30  VAL30       0.0020
      7  CG2       -0.7760   33.6710   36.7090 C.3    30  VAL30       0.0020
      8  N         -1.6300   31.2370   38.7200 N.am   31  GLY31      -0.1957
      9  CA        -1.7980   29.8090   38.4340 C.3    31  GLY31       0.1869
     10  C         -0.7060   28.9180   38.9990 C.2    31  GLY31       0.2309
     11  O          0.3670   29.3940   39.3800 O.2    31  GLY31      -0.2863
     12  N          2.8860   30.1320   38.3680 N.3    38  VAL38      -0.1245
     13  CA         3.0520   31.4080   37.6800 C.3    38  VAL38       0.1561
     14  C          2.5300   32.5660   38.5320 C.2    38  VAL38       0.2260
     15  O          1.4550   32.4750   39.1320 O.2    38  VAL38      -0.2867
     16  CB         2.3430   31.4070   36.2940 C.3    38  VAL38       0.0252
     17  CG1        2.5880   32.7190   35.5450 C.3    38  VAL38       0.0019
     18  CG2        2.8080   30.2280   35.4470 C.3    38  VAL38       0.0019
     19  N          4.6630   38.0480   33.3790 N.3    51  ALA51      -0.1231
     20  CA         4.3810   36.7640   34.0150 C.3    51  ALA51       0.1694
     21  C          5.7010   36.0840   34.3540 C.2    51  ALA51       0.2592
     22  O          6.6140   36.0490   33.5290 O.2    51  ALA51      -0.2718
     23  CB         3.5500   35.8800   33.1040 C.3    51  ALA51       0.0304
     24  N          5.7960   35.5580   35.5720 N.am   52  VAL52      -0.1966
     25  CA         6.9840   34.8410   36.0300 C.3    52  VAL52       0.1727
     26  C          6.6090   33.4000   36.3710 C.2    52  VAL52       0.2616
     27  O          5.7760   33.1640   37.2440 O.2    52  VAL52      -0.2715
     28  CB         7.6290   35.5010   37.2850 C.3    52  VAL52       0.0290
     29  CG1        8.9950   34.8800   37.5730 C.3    52  VAL52       0.0023
     30  CG2        7.7510   37.0180   37.1210 C.3    52  VAL52       0.0023
     31  N          7.2190   32.4440   35.6760 N.am   53  LYS53      -0.1977
     32  CA         6.9980   31.0280   35.9670 C.3    53  LYS53       0.1596
     33  C          8.1660   30.4520   36.7500 C.2    53  LYS53       0.2287
     34  O          9.3130   30.5220   36.3070 O.2    53  LYS53      -0.2864
     35  CB         6.7790   30.2230   34.6790 C.3    53  LYS53       0.0298
     36  CG         6.5170   28.7330   34.9150 C.3    53  LYS53       0.0038
     37  CD         6.7440   27.8920   33.6630 C.3    53  LYS53       0.0206
     38  CE         5.5370   27.8940   32.7470 C.3    53  LYS53       0.1093
     39  NZ         5.6350   26.8000   31.7360 N.3    53  LYS53      -0.1314
     40  N         12.2620   23.6420   27.4670 N.3    71  GLU71      -0.1245
     41  CA        11.4340   24.8440   27.6210 C.3    71  GLU71       0.1567
     42  C         12.2730   26.1200   27.4820 C.2    71  GLU71       0.2260
     43  O         11.9010   27.0380   26.7430 O.2    71  GLU71      -0.2867
     44  CB        10.6500   24.8360   28.9480 C.3    71  GLU71       0.0388
     45  CG         9.8420   26.1280   29.1840 C.3    71  GLU71       0.1160
     46  CD         8.6850   25.9960   30.1740 C.2    71  GLU71       0.3649
     47  OE1        8.6590   25.0430   30.9850 O.co2  71  GLU71      -0.2457
     48  OE2        7.7930   26.8690   30.1420 O.co2  71  GLU71      -0.2457
     49  N         13.5180   26.6290   23.8930 N.3    74  LEU74      -0.1231
     50  CA        12.3470   27.0720   23.1230 C.3    74  LEU74       0.1693
     51  C         12.0470   28.5610   23.3020 C.2    74  LEU74       0.2591
     52  O         11.9040   29.2990   22.3220 O.2    74  LEU74      -0.2718
     53  CB        11.1140   26.2380   23.5130 C.3    74  LEU74       0.0284
     54  CG        10.4740   25.1740   22.6020 C.3    74  LEU74       0.0019
     55  CD1       11.3300   24.7240   21.4300 C.3    74  LEU74       0.0001
     56  CD2       10.0010   23.9800   23.4230 C.3    74  LEU74       0.0001
     57  N         11.9610   28.9930   24.5580 N.am   75  LEU75      -0.1980
     58  CA        11.6680   30.3840   24.8910 C.3    75  LEU75       0.1596
     59  C         12.7680   31.3450   24.4570 C.2    75  LEU75       0.2287
     60  O         12.4850   32.4680   24.0420 O.2    75  LEU75      -0.2864
     61  CB        11.4080   30.5300   26.3910 C.3    75  LEU75       0.0297
     62  CG        10.0210   30.1290   26.8880 C.3    75  LEU75       0.0022
     63  CD1       10.0250   30.0650   28.4030 C.3    75  LEU75       0.0001
     64  CD2        8.9570   31.1120   26.3840 C.3    75  LEU75       0.0001
     65  N          4.9810   33.8840   22.3990 N.3    84  ILE84      -0.1245
     66  CA         5.5400   34.1810   23.7140 C.3    84  ILE84       0.1561
     67  C          7.0710   34.0420   23.6830 C.2    84  ILE84       0.2260
     68  O          7.6160   33.0700   23.1490 O.2    84  ILE84      -0.2867
     69  CB         4.8780   33.3490   24.8500 C.3    84  ILE84       0.0252
     70  CG1        4.9240   34.1080   26.1820 C.3    84  ILE84       0.0019
     71  CG2        5.4890   31.9480   24.9730 C.3    84  ILE84       0.0019
     72  CD1        4.0330   35.3420   26.2360 C.3    84  ILE84       0.0001
     73  N         11.3070   31.8890   34.7150 N.3   104  LEU104     -0.1245
     74  CA        11.1800   32.3760   33.3470 C.3   104  LEU104      0.1561
     75  C         10.2120   33.5480   33.3150 C.2   104  LEU104      0.2260
     76  O          9.1410   33.4870   33.9190 O.2   104  LEU104     -0.2867
     77  CB        10.6770   31.2610   32.4190 C.3   104  LEU104      0.0270
     78  CG        11.4280   29.9280   32.4150 C.3   104  LEU104      0.0019
     79  CD1       10.5240   28.8040   31.9140 C.3   104  LEU104      0.0001
     80  CD2       12.7080   30.0150   31.5940 C.3   104  LEU104      0.0001
     81  N          8.0350   36.3680   30.9730 N.3   106  THR106     -0.1203
     82  CA         7.4530   36.7170   29.6780 C.3   106  THR106      0.1994
     83  C          6.5410   37.9230   29.8530 C.2   106  THR106      0.2618
     84  O          6.3010   38.3570   30.9770 O.2   106  THR106     -0.2717
     85  CB         6.6200   35.5490   29.0730 C.3   106  THR106      0.1784
     86  OG1        5.4040   35.3770   29.8170 O.3   106  THR106     -0.2211
     87  CG2        7.4060   34.2400   29.0700 C.3   106  THR106      0.0376
     88  N          6.0370   38.4680   28.7460 N.am  107  HIS107     -0.1961
     89  CA         4.9810   39.4740   28.8050 C.3   107  HIS107      0.1787
     90  C          3.7720   38.9050   29.5430 C.2   107  HIS107      0.2620
     91  O          3.4700   37.7140   29.4220 O.2   107  HIS107     -0.2715
     92  CB         4.5510   39.8880   27.3960 C.3   107  HIS107      0.0785
     93  CG         5.4880   40.8470   26.7310 C.ar  107  HIS107      0.0821
     94  ND1        6.3290   40.4740   25.7050 N.ar  107  HIS107     -0.2267
     95  CD2        5.7120   42.1650   26.9430 C.ar  107  HIS107      0.1154
     96  CE1        7.0310   41.5230   25.3120 C.ar  107  HIS107      0.1986
     97  NE2        6.6770   42.5610   26.0490 N.ar  107  HIS107     -0.2212
     98  N          3.0990   39.7490   30.3190 N.am  108  LEU108     -0.1963
     99  CA         1.8480   39.3610   30.9580 C.3   108  LEU108      0.1728
    100  C          0.7100   39.6250   29.9850 C.2   108  LEU108      0.2616
    101  O          0.5840   40.7320   29.4540 O.2   108  LEU108     -0.2715
    102  CB         1.6250   40.1330   32.2660 C.3   108  LEU108      0.0311
    103  CG         0.3980   39.7850   33.1160 C.3   108  LEU108      0.0022
    104  CD1        0.4690   38.3590   33.6600 C.3   108  LEU108      0.0001
    105  CD2        0.2210   40.7860   34.2500 C.3   108  LEU108      0.0001
    106  N         -0.0980   38.5970   29.7410 N.am  109  MET109     -0.1963
    107  CA        -1.2640   38.7170   28.8670 C.3   109  MET109      0.1736
    108  C         -2.5520   38.8410   29.6880 C.2   109  MET109      0.2617
    109  O         -2.5680   38.5140   30.8750 O.2   109  MET109     -0.2715
    110  CB        -1.3320   37.5410   27.8880 C.3   109  MET109      0.0427
    111  CG        -0.1000   37.3950   26.9770 C.3   109  MET109      0.0599
    112  SD         0.2420   38.8330   25.9310 S.3   109  MET109     -0.1393
    113  CE        -1.0720   38.7140   24.7130 C.3   109  MET109      0.0692
    114  N         -3.6220   39.3180   29.0500 N.am  110  GLY110     -0.1940
    115  CA        -4.8670   39.6590   29.7480 C.3   110  GLY110      0.2014
    116  C         -5.8520   38.5170   29.9340 C.2   110  GLY110      0.2639
    117  O         -6.4960   38.4080   30.9800 O.2   110  GLY110     -0.2714
    118  N         -5.9740   37.6710   28.9130 N.am  111  ALA111     -0.1963
    119  CA        -6.9110   36.5470   28.9200 C.3   111  ALA111      0.1728
    120  C         -6.5050   35.5240   27.8590 C.2   111  ALA111      0.2616
    121  O         -5.6970   35.8350   26.9870 O.2   111  ALA111     -0.2715
    122  CB        -8.3210   37.0460   28.6520 C.3   111  ALA111      0.0334
    123  N         -7.0530   34.3110   27.9400 N.am  112  ASP112     -0.1971
    124  CA        -6.9230   33.3480   26.8410 C.3   112  ASP112      0.1709
    125  C         -8.1950   33.3300   25.9870 C.2   112  ASP112      0.2293
    126  O         -9.2030   33.9330   26.3670 O.2   112  ASP112     -0.2864
    127  CB        -6.5180   31.9460   27.3380 C.3   112  ASP112      0.1436
    128  CG        -7.5580   31.3020   28.2440 C.2   112  ASP112      0.3671
    129  OD1       -8.7560   31.3060   27.9020 O.co2 112  ASP112     -0.2456
    130  OD2       -7.1660   30.7600   29.2980 O.co2 112  ASP112     -0.2456
    131  N        -11.5310   32.3970   27.6360 N.3   115  ASN115     -0.1240
    132  CA       -12.0740   33.4790   28.4530 C.3   115  ASN115      0.1653
    133  C        -12.7270   34.5940   27.6380 C.2   115  ASN115      0.2266
    134  O        -13.6670   35.2380   28.1110 O.2   115  ASN115     -0.2867
    135  CB       -10.9880   34.0720   29.3610 C.3   115  ASN115      0.1155
    136  CG       -10.4780   33.0860   30.4080 C.2   115  ASN115      0.2627
    137  OD1       -9.4100   33.2910   30.9870 O.2   115  ASN115     -0.2716
    138  ND2      -11.2380   32.0190   30.6600 N.am  115  ASN115     -0.0877
    139  N         -3.1910   33.4810   24.0380 N.3   157  ALA157     -0.1245
    140  CA        -3.3790   34.5560   24.9970 C.3   157  ALA157      0.1562
    141  C         -3.5980   35.8910   24.3000 C.2   157  ALA157      0.2260
    142  O         -2.9730   36.1890   23.2810 O.2   157  ALA157     -0.2867
    143  CB        -2.1960   34.6210   25.9450 C.3   157  ALA157      0.0290
    144  N          1.2730   30.5020   23.2300 N.3   167  LEU167     -0.1231
    145  CA         2.0310   29.9490   24.3520 C.3   167  LEU167      0.1693
    146  C          2.1060   28.4210   24.2810 C.2   167  LEU167      0.2592
    147  O          1.3690   27.7860   23.5170 O.2   167  LEU167     -0.2718
    148  CB         1.4300   30.3640   25.7080 C.3   167  LEU167      0.0284
    149  CG         0.7340   31.6990   26.0420 C.3   167  LEU167      0.0019
    150  CD1        0.7930   31.9270   27.5470 C.3   167  LEU167      0.0001
    151  CD2        1.2860   32.9160   25.3250 C.3   167  LEU167      0.0001
    152  N          3.0100   27.8530   25.0820 N.am  168  ASP168     -0.1960
    153  CA         3.0770   26.4110   25.3700 C.3   168  ASP168      0.1840
    154  C          3.4620   25.4870   24.2030 C.2   168  ASP168      0.2622
    155  O          3.2210   24.2790   24.2610 O.2   168  ASP168     -0.2715
    156  CB         1.7850   25.9260   26.0510 C.3   168  ASP168      0.1450
    157  CG         1.6930   26.3570   27.5060 C.2   168  ASP168      0.3671
    158  OD1        2.7510   26.4510   28.1730 O.co2 168  ASP168     -0.2456
    159  OD2        0.5610   26.5900   27.9900 O.co2 168  ASP168     -0.2456
    160  N          4.0880   26.0560   23.1440 N.am  169  PHE169     -0.1974
    161  CA         4.5730   25.2710   22.0010 C.3   169  PHE169      0.1639
    162  C          5.6840   24.3070   22.3960 C.2   169  PHE169      0.2290
    163  O          6.5220   24.6220   23.2440 O.2   169  PHE169     -0.2864
    164  CB         5.0620   26.1810   20.8620 C.3   169  PHE169      0.0560
    165  CG         5.8420   27.3710   21.3340 C.ar  169  PHE169     -0.0200
    166  CD1        7.2130   27.2820   21.5540 C.ar  169  PHE169     -0.0042
    167  CD2        5.2020   28.5820   21.5720 C.ar  169  PHE169     -0.0042
    168  CE1        7.9340   28.3850   22.0040 C.ar  169  PHE169     -0.0003
    169  CE2        5.9120   29.6870   22.0240 C.ar  169  PHE169     -0.0003
    170  CZ         7.2820   29.5880   22.2370 C.ar  169  PHE169     -0.0000
    171  N          6.1100   21.5780   24.0630 N.3   171  LEU171     -0.1245
    172  CA         6.2520   21.0200   25.3800 C.3   171  LEU171      0.1561
    173  C          5.0800   20.2340   26.0480 C.2   171  LEU171      0.2260
    174  O          5.1760   19.8010   27.1780 O.2   171  LEU171     -0.2867
    175  CB         6.7710   22.1370   26.2410 C.3   171  LEU171      0.0270
    176  CG         6.0190   22.8830   27.3160 C.3   171  LEU171      0.0019
    177  CD1        6.8010   24.0270   27.8080 C.3   171  LEU171      0.0001
    178  CD2        4.6780   23.2710   26.9930 C.3   171  LEU171      0.0001
@<TRIPOS>BOND
     1   164   165    1
     2   164   161    1
     3   165   166   ar
     4   165   167   ar
     5    55    54    1
     6   166   168   ar
     7   167   169   ar
     8   161   162    1
     9   161   160    1
    10   168   170   ar
    11   169   170   ar
    12    52    51    2
    13   162   163    2
    14    65    66    1
    15    54    56    1
    16    54    53    1
    17    50    51    1
    18    50    53    1
    19    50    49    1
    20   160   154   am
    21    68    67    2
    22   144   145    1
    23   142   141    2
    24    51    57   am
    25   147   146    2
    26    67    66    1
    27    66    69    1
    28   139   140    1
    29    60    59    2
    30   171   172    1
    31   154   155    2
    32   154   153    1
    33   146   145    1
    34   146   152   am
    35   141   140    1
    36   145   148    1
    37    59    58    1
    38    57    58    1
    39   113   112    1
    40    69    71    1
    41    69    70    1
    42    58    61    1
    43   140   143    1
    44   152   153    1
    45    96    94   ar
    46    96    97   ar
    47   151   149    1
    48   153   156    1
    49   172   173    1
    50   172   175    1
    51    94    93   ar
    52   148   149    1
    53   112   111    1
    54   125   126    2
    55   125   124    1
    56   149   150    1
    57   173   174    2
    58    97    95   ar
    59   156   157    1
    60    70    72    1
    61   175   176    1
    62    64    62    1
    63    61    62    1
    64    93    95   ar
    65    93    92    1
    66    43    42    2
    67   124   127    1
    68   124   123    1
    69    62    63    1
    70   111   110    1
    71   121   120    2
    72   178   176    1
    73   176   177    1
    74   127   128    1
    75    92    89    1
    76    40    41    1
    77    42    41    1
    78   157   159   ar
    79   157   158   ar
    80    41    44    1
    81   131   132    1
    82   133   134    2
    83   133   132    1
    84   120   123   am
    85   120   119    1
    86   110   107    1
    87   129   128   ar
    88   128   130   ar
    89   132   135    1
    90   122   119    1
    91    88    89    1
    92    88    83   am
    93    89    90    1
    94   107   108    1
    95   107   106    1
    96   118   119    1
    97   118   116   am
    98    44    45    1
    99   114   108   am
   100   114   115    1
   101    87    85    1
   102    85    82    1
   103    85    86    1
   104    45    46    1
   105   135   136    1
   106    91    90    2
   107   101   100    2
   108    90    98   am
   109    82    83    1
   110    82    81    1
   111   108   109    2
   112   106   100   am
   113   115   116    1
   114    83    84    2
   115   116   117    2
   116   100    99    1
   117    48    46   ar
   118    46    47   ar
   119    98    99    1
   120   136   138   am
   121   136   137    2
   122    99   102    1
   123    80    78    1
   124    39    38    1
   125    79    78    1
   126   102   103    1
   127    78    77    1
   128    77    74    1
   129    38    37    1
   130    23    20    1
   131   103   104    1
   132   103   105    1
   133    75    74    1
   134    75    76    2
   135    74    73    1
   136    19    20    1
   137    22    21    2
   138    37    36    1
   139    20    21    1
   140    21    24   am
   141    35    36    1
   142    35    32    1
   143    18    16    1
   144    17    16    1
   145    24    25    1
   146    31    32    1
   147    31    26   am
   148    32    33    1
   149    25    26    1
   150    25    28    1
   151    16    13    1
   152    34    33    2
   153    26    27    2
   154     7     5    1
   155    30    28    1
   156    28    29    1
   157     5     6    1
   158     5     2    1
   159    13    12    1
   160    13    14    1
   161     4     3    2
   162     9     8    1
   163     9    10    1
   164     3     8   am
   165     3     2    1
   166    14    15    2
   167     2     1    1
   168    10    11    2
