@<TRIPOS>MOLECULE
tmp/3gfrD00.pdb
 108 105 0 0 0
SMALL
GASTEIGER

@<TRIPOS>ATOM
      1  N         20.7650  -58.3360  -20.5770 N.3     7  THR7       -0.1218
      2  CA        20.2260  -59.4330  -19.7760 C.3     7  THR7        0.1862
      3  C         21.1650  -60.6380  -19.7490 C.2     7  THR7        0.2287
      4  O         21.6180  -61.1070  -20.7930 O.2     7  THR7       -0.2866
      5  CB        18.8100  -59.8640  -20.2280 C.3     7  THR7        0.1770
      6  OG1       18.2030  -60.6540  -19.1980 O.3     7  THR7       -0.2211
      7  CG2       18.8630  -60.6710  -21.5160 C.3     7  THR7        0.0375
      8  N         20.3130  -63.5280  -18.6560 N.3     9  ARG9       -0.1245
      9  CA        19.5060  -64.7300  -18.8200 C.3     9  ARG9        0.1563
     10  C         19.3870  -65.1420  -20.2840 C.2     9  ARG9        0.2260
     11  O         18.9110  -64.3730  -21.1190 O.2     9  ARG9       -0.2867
     12  CB        18.1190  -64.5340  -18.2100 C.3     9  ARG9        0.0307
     13  CG        18.1420  -64.1490  -16.7420 C.3     9  ARG9        0.0489
     14  CD        16.8160  -64.4590  -16.0760 C.3     9  ARG9        0.2205
     15  NE        15.6980  -63.8410  -16.7800 N.pl3   9  ARG9       -0.0865
     16  CZ        14.4220  -64.0190  -16.4570 C.cat   9  ARG9        0.5346
     17  NH1       14.0970  -64.8030  -15.4390 N.pl3   9  ARG9        0.1354
     18  NH2       13.4710  -63.4120  -17.1550 N.pl3   9  ARG9        0.1354
     19  N         16.0390  -64.6700  -21.4630 N.3    12  GLY12      -0.1210
     20  CA        15.5110  -63.3530  -21.1580 C.3    12  GLY12       0.1956
     21  C         14.8170  -62.6690  -22.3220 C.2    12  GLY12       0.2612
     22  O         15.2230  -62.8070  -23.4780 O.2    12  GLY12      -0.2717
     23  N         13.7640  -61.9220  -22.0100 N.am   13  ARG13      -0.1965
     24  CA        13.0280  -61.1800  -23.0230 C.3    13  ARG13       0.1729
     25  C         13.9160  -60.1310  -23.6860 C.2    13  ARG13       0.2616
     26  O         13.8080  -59.8850  -24.8890 O.2    13  ARG13      -0.2715
     27  CB        11.7920  -60.5160  -22.4140 C.3    13  ARG13       0.0348
     28  CG        10.7460  -61.4900  -21.9030 C.3    13  ARG13       0.0492
     29  CD         9.4520  -60.7680  -21.5640 C.3    13  ARG13       0.2205
     30  NE         8.4090  -61.6860  -21.1180 N.pl3  13  ARG13      -0.0865
     31  CZ         8.0870  -61.8900  -19.8460 C.cat  13  ARG13       0.5346
     32  NH1        8.7260  -61.2370  -18.8850 N.pl3  13  ARG13       0.1354
     33  NH2        7.1240  -62.7460  -19.5330 N.pl3  13  ARG13       0.1354
     34  N         14.7940  -59.5190  -22.8970 N.am   14  THR14      -0.1951
     35  CA        15.6760  -58.4720  -23.4010 C.3    14  THR14       0.1897
     36  C         16.5910  -59.0040  -24.5010 C.2    14  THR14       0.2313
     37  O         16.9790  -58.2680  -25.4090 O.2    14  THR14      -0.2863
     38  CB        16.5330  -57.8610  -22.2750 C.3    14  THR14       0.1794
     39  OG1       15.6840  -57.4140  -21.2100 O.3    14  THR14      -0.2208
     40  CG2       17.3470  -56.6860  -22.7960 C.3    14  THR14       0.0378
     41  N         17.2280  -55.1730  -18.8930 N.3    70  PRO70      -0.2102
     42  CA        16.0000  -55.5160  -18.1730 C.3    70  PRO70       0.1504
     43  C         15.8720  -54.6220  -16.9520 C.2    70  PRO70       0.2576
     44  O         16.8800  -54.0910  -16.4830 O.2    70  PRO70      -0.2718
     45  CB        16.2470  -56.9600  -17.7080 C.3    70  PRO70       0.0282
     46  CG        17.5540  -57.3810  -18.3100 C.3    70  PRO70       0.0208
     47  CD        18.3060  -56.1390  -18.6350 C.3    70  PRO70       0.0893
     48  N         14.6590  -54.4520  -16.4410 N.am   71  GLU71      -0.1966
     49  CA        14.4930  -53.7610  -15.1720 C.3    71  GLU71       0.1733
     50  C         14.5820  -54.7560  -14.0210 C.2    71  GLU71       0.2616
     51  O         13.6610  -55.5360  -13.7850 O.2    71  GLU71      -0.2715
     52  CB        13.1770  -52.9860  -15.1160 C.3    71  GLU71       0.0429
     53  CG        12.8530  -52.4580  -13.7270 C.3    71  GLU71       0.1163
     54  CD        12.1410  -51.1240  -13.7580 C.2    71  GLU71       0.3649
     55  OE1       12.6740  -50.1840  -14.3820 O.co2  71  GLU71      -0.2457
     56  OE2       11.0560  -51.0130  -13.1500 O.co2  71  GLU71      -0.2457
     57  N         15.7120  -54.7310  -13.3240 N.am   72  TYR72      -0.1960
     58  CA        15.9190  -55.5590  -12.1470 C.3    72  TYR72       0.1771
     59  C         15.8950  -54.6640  -10.9200 C.2    72  TYR72       0.2620
     60  O         16.7900  -53.8410  -10.7330 O.2    72  TYR72      -0.2715
     61  CB        17.2670  -56.2750  -12.2320 C.3    72  TYR72       0.0574
     62  CG        17.2970  -57.4430  -13.1890 C.ar   72  TYR72      -0.0198
     63  CD1       18.4470  -58.2110  -13.3390 C.ar   72  TYR72      -0.0009
     64  CD2       16.1710  -57.7930  -13.9260 C.ar   72  TYR72      -0.0009
     65  CE1       18.4810  -59.2840  -14.2090 C.ar   72  TYR72       0.0417
     66  CE2       16.1950  -58.8670  -14.7980 C.ar   72  TYR72       0.0417
     67  CZ        17.3520  -59.6090  -14.9350 C.ar   72  TYR72       0.1957
     68  OH        17.3810  -60.6780  -15.8050 O.3    72  TYR72      -0.2866
     69  N         14.8670  -54.8190  -10.0940 N.am   73  HIS73      -0.1959
     70  CA        14.7390  -54.0280   -8.8720 C.3    73  HIS73       0.1787
     71  C         14.8760  -52.5290   -9.1410 C.2    73  HIS73       0.2620
     72  O         15.6350  -51.8370   -8.4600 O.2    73  HIS73      -0.2715
     73  CB        15.7820  -54.4580   -7.8370 C.3    73  HIS73       0.0785
     74  CG        15.7960  -55.9290   -7.5650 C.ar   73  HIS73       0.0821
     75  ND1       14.6450  -56.6640   -7.3730 N.ar   73  HIS73      -0.2267
     76  CD2       16.8230  -56.8020   -7.4310 C.ar   73  HIS73       0.1154
     77  CE1       14.9610  -57.9240   -7.1470 C.ar   73  HIS73       0.1986
     78  NE2       16.2780  -58.0360   -7.1740 N.ar   73  HIS73      -0.2212
     79  N         14.1480  -52.0390  -10.1400 N.am   74  SER74      -0.1950
     80  CA        14.1280  -50.6120  -10.4600 C.3    74  SER74       0.1924
     81  C         15.4930  -50.0720  -10.8810 C.2    74  SER74       0.2314
     82  O         15.8180  -48.9130  -10.6230 O.2    74  SER74      -0.2863
     83  CB        13.5860  -49.8030   -9.2800 C.3    74  SER74       0.2116
     84  OG        12.1980  -50.0300   -9.1060 O.3    74  SER74      -0.2180
     85  N         13.4060  -53.4320  -20.6180 N.3   102  VAL102     -0.1231
     86  CA        12.3260  -54.4090  -20.6450 C.3   102  VAL102      0.1692
     87  C         11.8460  -54.7270  -19.2320 C.2   102  VAL102      0.2592
     88  O         12.5870  -55.2930  -18.4260 O.2   102  VAL102     -0.2718
     89  CB        12.7610  -55.7130  -21.3380 C.3   102  VAL102      0.0266
     90  CG1       11.5820  -56.6710  -21.4580 C.3   102  VAL102      0.0020
     91  CG2       13.3510  -55.4130  -22.7060 C.3   102  VAL102      0.0020
     92  N         10.6010  -54.3640  -18.9420 N.am  103  ALA103     -0.1966
     93  CA        10.0370  -54.5580  -17.6130 C.3   103  ALA103      0.1728
     94  C          9.0130  -55.6850  -17.5990 C.2   103  ALA103      0.2617
     95  O          8.5020  -56.0870  -18.6460 O.2   103  ALA103     -0.2715
     96  CB         9.4100  -53.2660  -17.1100 C.3   103  ALA103      0.0334
     97  N          8.7170  -56.1890  -16.4050 N.am  104  GLY104     -0.1940
     98  CA         7.7680  -57.2740  -16.2410 C.3   104  GLY104      0.2014
     99  C          6.3400  -56.8510  -16.5260 C.2   104  GLY104      0.2639
    100  O          5.4340  -57.6830  -16.5720 O.2   104  GLY104     -0.2714
    101  N          6.1410  -55.5520  -16.7150 N.am  105  GLY105     -0.1954
    102  CA         4.8290  -55.0220  -17.0340 C.3   105  GLY105      0.1869
    103  C          4.4650  -53.8140  -16.1960 C.2   105  GLY105      0.2309
    104  O          5.2530  -53.3570  -15.3680 O.2   105  GLY105     -0.2863
    105  N          6.8410  -50.5250  -14.8130 N.3   108  GLY108     -0.1225
    106  CA         8.2730  -50.7510  -14.8790 C.3   108  GLY108      0.1811
    107  C          8.9440  -50.1510  -16.1000 C.2   108  GLY108      0.2280
    108  O          8.2880  -49.8260  -17.0900 O.2   108  GLY108     -0.2866
@<TRIPOS>BOND
     1    37    36    2
     2    26    25    2
     3    36    35    1
     4    25    24    1
     5    25    34   am
     6    22    21    2
     7    35    34    1
     8    35    38    1
     9    24    27    1
    10    24    23    1
    11    40    38    1
    12    91    89    1
    13    27    28    1
    14    21    23   am
    15    21    20    1
    16    38    39    1
    17    28    29    1
    18    29    30    1
    19     7     5    1
    20    19    20    1
    21    90    89    1
    22    89    86    1
    23    11    10    2
    24    30    31    2
    25     4     3    2
    26    86    85    1
    27    86    87    1
    28     1     2    1
    29    10     9    1
    30     5     2    1
    31     5     6    1
    32    31    33    1
    33    31    32    1
    34     2     3    1
    35    87    92   am
    36    87    88    2
    37    92    93    1
    38    41    47    1
    39    41    42    1
    40     9     8    1
    41     9    12    1
    42    95    94    2
    43    47    46    1
    44    46    45    1
    45    12    13    1
    46    42    45    1
    47    42    43    1
    48    93    94    1
    49    93    96    1
    50    94    97   am
    51    18    16    1
    52   108   107    2
    53   102   101    1
    54   102   103    1
    55    43    44    2
    56    43    48   am
    57    15    16    2
    58    15    14    1
    59    13    14    1
    60   101    99   am
    61   100    99    2
    62    99    98    1
    63    16    17    1
    64    48    49    1
    65    97    98    1
    66   103   104    2
    67   107   106    1
    68    68    67    1
    69    49    52    1
    70    49    50    1
    71    52    53    1
    72    67    66   ar
    73    67    65   ar
    74   106   105    1
    75    66    64   ar
    76    55    54   ar
    77    65    63   ar
    78    50    51    2
    79    50    57   am
    80    64    62   ar
    81    54    53    1
    82    54    56   ar
    83    63    62   ar
    84    57    58    1
    85    62    61    1
    86    61    58    1
    87    58    59    1
    88    59    60    2
    89    59    69   am
    90    81    82    2
    91    81    80    1
    92    80    79    1
    93    80    83    1
    94    79    71   am
    95    69    70    1
    96    83    84    1
    97    71    70    1
    98    71    72    2
    99    70    73    1
   100    73    74    1
   101    74    76   ar
   102    74    75   ar
   103    76    78   ar
   104    75    77   ar
   105    78    77   ar
