@<TRIPOS>MOLECULE
tmp/3gfwA00.pdb
 146 133 0 0 0
SMALL
GASTEIGER

@<TRIPOS>ATOM
      1  N          6.9050   16.9790   54.0050 N.3    15  LYS15      -0.1245
      2  CA         7.0600   15.6290   53.4590 C.3    15  LYS15       0.1561
      3  C          7.2580   15.6890   51.9570 C.2    15  LYS15       0.2260
      4  O          7.0000   16.7130   51.3170 O.2    15  LYS15      -0.2867
      5  CB         5.8370   14.7270   53.7820 C.3    15  LYS15       0.0271
      6  CG         4.5750   15.1510   53.0340 C.3    15  LYS15       0.0035
      7  CD         3.3260   14.3470   53.4290 C.3    15  LYS15       0.0206
      8  CE         2.8600   13.2910   52.4160 C.3    15  LYS15       0.1093
      9  NZ         2.4110   12.0230   53.0310 N.3    15  LYS15      -0.1314
     10  N          5.8020   14.2410   48.5340 N.3    17  ILE17      -0.1231
     11  CA         4.5940   13.6670   47.9440 C.3    17  ILE17       0.1692
     12  C          4.9580   12.6980   46.8300 C.2    17  ILE17       0.2592
     13  O          4.3390   11.6490   46.6920 O.2    17  ILE17      -0.2718
     14  CB         3.6930   14.7210   47.2650 C.3    17  ILE17       0.0266
     15  CG1        3.4670   15.9740   48.1230 C.3    17  ILE17       0.0019
     16  CG2        2.3780   14.1120   46.9200 C.3    17  ILE17       0.0020
     17  CD1        3.1310   17.1990   47.2870 C.3    17  ILE17       0.0001
     18  N          5.9470   13.0590   46.0140 N.am   18  GLY18      -0.1957
     19  CA         6.3070   12.2540   44.8380 C.3    18  GLY18       0.1869
     20  C          7.7690   12.3380   44.4260 C.2    18  GLY18       0.2309
     21  O          8.3950   13.3940   44.5560 O.2    18  GLY18      -0.2863
     22  N          8.6310   16.2150   44.4130 N.3    25  VAL25      -0.1245
     23  CA         7.7920   17.2570   44.9590 C.3    25  VAL25       0.1561
     24  C          7.6970   17.0950   46.4790 C.2    25  VAL25       0.2260
     25  O          7.3730   16.0180   47.0070 O.2    25  VAL25      -0.2867
     26  CB         6.4120   17.2580   44.3180 C.3    25  VAL25       0.0252
     27  CG1        5.5870   18.4360   44.8340 C.3    25  VAL25       0.0019
     28  CG2        6.5460   17.3130   42.8030 C.3    25  VAL25       0.0019
     29  N          5.9830   18.8360   50.0500 N.3    27  GLN27      -0.1245
     30  CA         5.0070   19.7240   50.6350 C.3    27  GLN27       0.1566
     31  C          5.7530   20.5420   51.6740 C.2    27  GLN27       0.2260
     32  O          6.4860   19.9910   52.4910 O.2    27  GLN27      -0.2867
     33  CB         3.9090   18.8950   51.2450 C.3    27  GLN27       0.0367
     34  CG         2.6330   19.6230   51.5470 C.3    27  GLN27       0.0905
     35  CD         1.7650   18.8100   52.4870 C.2    27  GLN27       0.2608
     36  OE1        1.6880   19.1140   53.6690 O.2    27  GLN27      -0.2717
     37  NE2        1.1620   17.7360   51.9770 N.am   27  GLN27      -0.0878
     38  N          3.6410   23.4080   47.2980 N.3    37  ALA37      -0.1245
     39  CA         4.3590   22.2700   46.7600 C.3    37  ALA37       0.1562
     40  C          5.5680   22.9050   46.1250 C.2    37  ALA37       0.2260
     41  O          5.4530   23.9680   45.5320 O.2    37  ALA37      -0.2867
     42  CB         3.5500   21.4980   45.7580 C.3    37  ALA37       0.0290
     43  N          8.5130   21.6480   43.5510 N.3    39  LYS39      -0.1245
     44  CA         9.0740   20.6340   42.6680 C.3    39  LYS39       0.1561
     45  C         10.5280   20.9930   42.5260 C.2    39  LYS39       0.2260
     46  O         10.9040   22.1880   42.3890 O.2    39  LYS39      -0.2867
     47  CB         8.3900   20.6860   41.2950 C.3    39  LYS39       0.0271
     48  CG         9.0040   19.8540   40.1750 C.3    39  LYS39       0.0035
     49  CD         8.0020   19.7320   39.0330 C.3    39  LYS39       0.0206
     50  CE         8.5650   19.1220   37.7670 C.3    39  LYS39       0.1093
     51  NZ         7.5100   19.0190   36.7090 N.3    39  LYS39      -0.1314
     52  N         -2.5980   25.8140   37.4880 N.3    72  ILE72      -0.1245
     53  CA        -1.8880   25.7410   38.7830 C.3    72  ILE72       0.1561
     54  C         -1.0400   26.9870   39.0300 C.2    72  ILE72       0.2260
     55  O         -0.5050   27.5340   38.0840 O.2    72  ILE72      -0.2867
     56  CB        -0.9680   24.4680   38.8220 C.3    72  ILE72       0.0252
     57  CG1       -0.6190   24.0760   40.2560 C.3    72  ILE72       0.0019
     58  CG2        0.2830   24.6730   37.9990 C.3    72  ILE72       0.0019
     59  CD1       -1.8520   23.9890   41.1780 C.3    72  ILE72       0.0001
     60  N          5.1650   26.3200   43.8620 N.3    88  MET88      -0.1230
     61  CA         3.8320   26.2260   43.3100 C.3    88  MET88       0.1702
     62  C          2.7650   26.0700   44.3810 C.2    88  MET88       0.2592
     63  O          3.0410   25.7610   45.5190 O.2    88  MET88      -0.2718
     64  CB         3.7790   25.0050   42.4040 C.3    88  MET88       0.0401
     65  CG         4.3200   25.2210   40.9920 C.3    88  MET88       0.0596
     66  SD         4.7710   23.5820   40.4290 S.3    88  MET88      -0.1393
     67  CE         3.9420   23.4510   38.8800 C.3    88  MET88       0.0692
     68  N          1.5310   26.2770   43.9800 N.am   89  GLU89      -0.1966
     69  CA         0.3320   25.9710   44.7790 C.3    89  GLU89       0.1733
     70  C          0.2880   24.4700   45.1300 C.2    89  GLU89       0.2616
     71  O          0.5130   23.6320   44.2530 O.2    89  GLU89      -0.2715
     72  CB        -0.8540   26.3250   43.8830 C.3    89  GLU89       0.0429
     73  CG        -2.2080   26.5250   44.4420 C.3    89  GLU89       0.1163
     74  CD        -3.1810   26.9540   43.3320 C.2    89  GLU89       0.3649
     75  OE1       -4.3430   27.3010   43.6140 O.co2  89  GLU89      -0.2457
     76  OE2       -2.7770   26.9590   42.1500 O.co2  89  GLU89      -0.2457
     77  N          0.0150   24.1430   46.3950 N.am   90  CYS90      -0.1954
     78  CA        -0.1350   22.7560   46.8210 C.3    90  CYS90       0.1843
     79  C         -1.5530   22.2130   46.6560 C.2    90  CYS90       0.2626
     80  O         -2.5270   22.7660   47.1850 O.2    90  CYS90      -0.2714
     81  CB         0.2540   22.5590   48.2760 C.3    90  CYS90       0.0997
     82  SG         0.5660   20.7960   48.5770 S.3    90  CYS90      -0.0797
     83  N         -1.6570   21.1040   45.9380 N.am   91  GLY91      -0.1940
     84  CA        -2.9330   20.4610   45.7540 C.3    91  GLY91       0.2014
     85  C         -3.3640   19.6500   46.9560 C.2    91  GLY91       0.2639
     86  O         -2.5480   19.2880   47.7980 O.2    91  GLY91      -0.2714
     87  N         -4.6560   19.3590   47.0110 N.am   92  ASN92      -0.1958
     88  CA        -5.2060   18.4660   48.0020 C.3    92  ASN92       0.1819
     89  C         -5.0270   17.0150   47.5490 C.2    92  ASN92       0.2621
     90  O         -4.7360   16.1170   48.3640 O.2    92  ASN92      -0.2715
     91  CB        -6.6920   18.7830   48.2370 C.3    92  ASN92       0.1195
     92  CG        -6.9300   20.2370   48.6960 C.2    92  ASN92       0.2630
     93  OD1       -7.8310   20.9160   48.2040 O.2    92  ASN92      -0.2716
     94  ND2       -6.1220   20.7100   49.6380 N.am   92  ASN92      -0.0877
     95  N         -5.1770   16.7960   46.2470 N.am   93  ILE93      -0.1963
     96  CA        -5.1590   15.4540   45.6720 C.3    93  ILE93       0.1727
     97  C         -5.2520   15.6340   44.1650 C.2    93  ILE93       0.2616
     98  O         -5.7500   16.6440   43.6900 O.2    93  ILE93      -0.2715
     99  CB        -6.3340   14.5690   46.2300 C.3    93  ILE93       0.0290
    100  CG1       -6.2690   13.1250   45.7200 C.3    93  ILE93       0.0022
    101  CG2       -7.6810   15.1870   45.9000 C.3    93  ILE93       0.0023
    102  CD1       -7.1590   12.1320   46.5240 C.3    93  ILE93       0.0001
    103  N         -4.7360   14.6820   43.4120 N.am   94  ASP94      -0.1971
    104  CA        -4.8360   14.7490   41.9800 C.3    94  ASP94       0.1709
    105  C         -6.1090   14.0510   41.6200 C.2    94  ASP94       0.2293
    106  O         -6.5900   13.1900   42.3560 O.2    94  ASP94      -0.2864
    107  CB        -3.6560   14.0730   41.2820 C.3    94  ASP94       0.1436
    108  CG        -3.6090   12.5790   41.5270 C.2    94  ASP94       0.3671
    109  OD1       -3.2050   12.1780   42.6530 O.co2  94  ASP94      -0.2456
    110  OD2       -3.9740   11.8160   40.5990 O.co2  94  ASP94      -0.2456
    111  N         -6.1320    9.9510   41.5970 N.3    97  SER97      -0.1217
    112  CA        -6.2560    9.4020   42.9290 C.3    97  SER97       0.1889
    113  C         -7.6840    9.6120   43.3500 C.2    97  SER97       0.2288
    114  O         -8.3360    8.6950   43.8340 O.2    97  SER97      -0.2866
    115  CB        -5.3330   10.1240   43.8980 C.3    97  SER97       0.2089
    116  OG        -4.0150   10.1260   43.4030 O.3    97  SER97      -0.2183
    117  N        -10.3160    6.5370   44.1310 N.3   101  LYS101     -0.1245
    118  CA       -10.8300    6.3480   45.5050 C.3   101  LYS101      0.1561
    119  C        -12.2810    6.8530   45.7010 C.2   101  LYS101      0.2260
    120  O        -12.7470    6.9410   46.8320 O.2   101  LYS101     -0.2867
    121  CB        -9.8860    7.0110   46.5260 C.3   101  LYS101      0.0271
    122  CG        -8.4460    6.4710   46.3730 C.3   101  LYS101      0.0035
    123  CD        -7.5900    6.9620   47.5360 C.3   101  LYS101      0.0206
    124  CE        -6.2410    6.2060   47.5340 C.3   101  LYS101      0.1093
    125  NZ        -5.5490    6.5830   46.2550 N.3   101  LYS101     -0.1314
    126  N         -4.4060   12.4460   35.8810 N.3   137  ALA137     -0.1245
    127  CA        -3.2270   12.8200   36.6830 C.3   137  ALA137      0.1562
    128  C         -2.6960   14.2110   36.3310 C.2   137  ALA137      0.2260
    129  O         -1.9580   14.8090   37.1040 O.2   137  ALA137     -0.2867
    130  CB        -2.1310   11.7870   36.5410 C.3   137  ALA137      0.0290
    131  N         -5.4570   18.7350   39.2780 N.3   140  LEU140     -0.1245
    132  CA        -5.2500   18.8240   40.7040 C.3   140  LEU140      0.1561
    133  C         -6.5060   19.4410   41.2660 C.2   140  LEU140      0.2260
    134  O         -7.0680   20.3500   40.6620 O.2   140  LEU140     -0.2867
    135  CB        -4.0640   19.7370   40.9450 C.3   140  LEU140      0.0270
    136  CG        -2.9430   19.3290   41.8750 C.3   140  LEU140      0.0019
    137  CD1       -2.4630   17.9410   41.5270 C.3   140  LEU140      0.0001
    138  CD2       -1.8020   20.3880   41.8290 C.3   140  LEU140      0.0001
    139  N         -1.9730   21.3700   35.6580 N.3   149  ILE149     -0.1245
    140  CA        -0.6280   21.5600   36.2090 C.3   149  ILE149      0.1561
    141  C          0.5030   21.6210   35.1970 C.2   149  ILE149      0.2260
    142  O          1.5870   22.0830   35.5180 O.2   149  ILE149     -0.2867
    143  CB        -0.2770   20.4610   37.2270 C.3   149  ILE149      0.0252
    144  CG1       -0.5070   19.0650   36.6290 C.3   149  ILE149      0.0019
    145  CG2       -1.1010   20.6660   38.4690 C.3   149  ILE149      0.0019
    146  CD1        0.4180   18.0380   37.1570 C.3   149  ILE149      0.0001
@<TRIPOS>BOND
     1   141   142    2
     2   141   140    1
     3   139   140    1
     4   126   127    1
     5   140   143    1
     6   128   127    1
     7   128   129    2
     8   130   127    1
     9   144   146    1
    10   144   143    1
    11    51    50    1
    12   143   145    1
    13    52    53    1
    14    50    49    1
    15    58    56    1
    16    55    54    2
    17    53    56    1
    18    53    54    1
    19    56    57    1
    20    67    66    1
    21    49    48    1
    22   131   132    1
    23    48    47    1
    24    57    59    1
    25    66    65    1
    26   110   108   ar
    27   134   133    2
    28   132   135    1
    29   132   133    1
    30   135   136    1
    31    65    64    1
    32   107   108    1
    33   107   104    1
    34    47    44    1
    35   137   136    1
    36   108   109   ar
    37   111   112    1
    38   105   104    1
    39   105   106    2
    40   138   136    1
    41   104   103    1
    42    76    74   ar
    43    46    45    2
    44    64    61    1
    45    45    44    1
    46    44    43    1
    47    28    26    1
    48   112   113    1
    49   112   115    1
    50    61    60    1
    51    61    62    1
    52    74    75   ar
    53    74    73    1
    54   113   114    2
    55   116   115    1
    56   103    97   am
    57    98    97    2
    58    72    73    1
    59    72    69    1
    60    68    62   am
    61    68    69    1
    62   117   118    1
    63    97    96    1
    64    71    70    2
    65    26    27    1
    66    26    23    1
    67    62    63    2
    68    22    23    1
    69    20    21    2
    70    20    19    1
    71    69    70    1
    72    19    18    1
    73    23    24    1
    74    70    77   am
    75   118   119    1
    76   118   121    1
    77    41    40    2
    78    96    99    1
    79    96    95    1
    80   119   120    2
    81   100    99    1
    82   100   102    1
    83    84    83    1
    84    84    85    1
    85    42    39    1
    86   101    99    1
    87    83    79   am
    88    18    12   am
    89    40    39    1
    90    95    89   am
    91   125   124    1
    92   122   121    1
    93   122   123    1
    94    77    78    1
    95    24    25    2
    96    79    78    1
    97    79    80    2
    98    13    12    2
    99    39    38    1
   100    78    81    1
   101    12    11    1
   102    16    14    1
   103    85    87   am
   104    85    86    2
   105    87    88    1
   106    14    11    1
   107    14    15    1
   108    17    15    1
   109   124   123    1
   110    89    88    1
   111    89    90    2
   112    11    10    1
   113    88    91    1
   114    93    92    2
   115    91    92    1
   116    81    82    1
   117    92    94   am
   118    29    30    1
   119    30    33    1
   120    30    31    1
   121    33    34    1
   122     4     3    2
   123    34    35    1
   124    31    32    2
   125     3     2    1
   126    37    35   am
   127     8     9    1
   128     8     7    1
   129    35    36    2
   130     6     7    1
   131     6     5    1
   132     2     5    1
   133     2     1    1
