@<TRIPOS>MOLECULE
tmp/3gfxB00.pdb
 151 141 0 0 0
SMALL
GASTEIGER

@<TRIPOS>ATOM
      1  N          7.3010   -3.0640  -11.4230 N.3     7  TYR7       -0.1241
      2  CA         7.6530   -1.8430  -12.1400 C.3     7  TYR7        0.1605
      3  C          7.7110   -2.0580  -13.6500 C.2     7  TYR7        0.2264
      4  O          7.8170   -3.1890  -14.1270 O.2     7  TYR7       -0.2867
      5  CB         8.9900   -1.2710  -11.6340 C.3     7  TYR7        0.0534
      6  CG        10.2040   -2.0420  -12.1060 C.ar    7  TYR7       -0.0201
      7  CD1       10.8220   -1.7380  -13.3190 C.ar    7  TYR7       -0.0009
      8  CD2       10.7270   -3.0810  -11.3430 C.ar    7  TYR7       -0.0009
      9  CE1       11.9220   -2.4510  -13.7600 C.ar    7  TYR7        0.0417
     10  CE2       11.8340   -3.7940  -11.7720 C.ar    7  TYR7        0.0417
     11  CZ        12.4220   -3.4770  -12.9830 C.ar    7  TYR7        0.1957
     12  OH        13.5180   -4.1820  -13.4160 O.3     7  TYR7       -0.2866
     13  N         21.8850  -10.8270  -18.3900 N.3    23  LEU23      -0.1245
     14  CA        21.0080  -10.1700  -17.4260 C.3    23  LEU23       0.1561
     15  C         20.2400  -11.1810  -16.5790 C.2    23  LEU23       0.2260
     16  O         20.2870  -11.1280  -15.3510 O.2    23  LEU23      -0.2867
     17  CB        20.0230   -9.2470  -18.1500 C.3    23  LEU23       0.0270
     18  CG        19.0880   -8.3990  -17.2860 C.3    23  LEU23       0.0019
     19  CD1       19.8630   -7.2830  -16.6310 C.3    23  LEU23       0.0001
     20  CD2       17.9470   -7.8380  -18.1150 C.3    23  LEU23       0.0001
     21  N         22.5390  -13.8250  -14.4010 N.3    26  ARG26      -0.1231
     22  CA        23.1120  -13.2250  -13.2050 C.3    26  ARG26       0.1694
     23  C         22.0340  -12.8100  -12.2070 C.2    26  ARG26       0.2591
     24  O         22.2640  -12.8400  -11.0000 O.2    26  ARG26      -0.2718
     25  CB        23.9980  -12.0380  -13.5810 C.3    26  ARG26       0.0321
     26  CG        25.2140  -12.4390  -14.4070 C.3    26  ARG26       0.0489
     27  CD        25.9310  -11.2330  -14.9930 C.3    26  ARG26       0.2205
     28  NE        26.5690  -10.4130  -13.9660 N.pl3  26  ARG26      -0.0865
     29  CZ        27.7800  -10.6390  -13.4640 C.cat  26  ARG26       0.5346
     30  NH1       28.5070  -11.6680  -13.8850 N.pl3  26  ARG26       0.1354
     31  NH2       28.2690   -9.8310  -12.5330 N.pl3  26  ARG26       0.1354
     32  N         20.8610  -12.4340  -12.7090 N.am   27  ALA27      -0.1980
     33  CA        19.7090  -12.0910  -11.8770 C.3    27  ALA27       0.1597
     34  C         19.2160  -13.3060  -11.1010 C.2    27  ALA27       0.2287
     35  O         19.1240  -13.2710   -9.8780 O.2    27  ALA27      -0.2864
     36  CB        18.5890  -11.5280  -12.7310 C.3    27  ALA27       0.0319
     37  N         21.6090  -14.5300   -8.4700 N.3    30  LYS30      -0.1231
     38  CA        21.7320  -13.6380   -7.3180 C.3    30  LYS30       0.1693
     39  C         20.4610  -13.6740   -6.4690 C.2    30  LYS30       0.2592
     40  O         20.5240  -13.6040   -5.2390 O.2    30  LYS30      -0.2718
     41  CB        22.0320  -12.2090   -7.7850 C.3    30  LYS30       0.0285
     42  CG        22.4360  -11.2380   -6.6880 C.3    30  LYS30       0.0035
     43  CD        22.8150   -9.8910   -7.2780 C.3    30  LYS30       0.0206
     44  CE        22.8730   -8.8100   -6.2140 C.3    30  LYS30       0.1093
     45  NZ        23.0260   -7.4540   -6.8120 N.3    30  LYS30      -0.1314
     46  N         19.3180  -13.7960   -7.1370 N.am   31  ASN31      -0.1974
     47  CA        18.0070  -13.7830   -6.4880 C.3    31  ASN31       0.1688
     48  C         17.7200  -15.0020   -5.6130 C.2    31  ASN31       0.2292
     49  O         17.1110  -14.8790   -4.5490 O.2    31  ASN31      -0.2864
     50  CB        16.9000  -13.6470   -7.5390 C.3    31  ASN31       0.1181
     51  CG        16.8340  -12.2600   -8.1510 C.2    31  ASN31       0.2629
     52  OD1       17.5650  -11.3510   -7.7590 O.2    31  ASN31      -0.2716
     53  ND2       15.9530  -12.0950   -9.1290 N.am   31  ASN31      -0.0877
     54  N         10.3580  -11.5220  -15.7870 N.3    40  LEU40      -0.1245
     55  CA        10.7370  -10.3410  -16.5550 C.3    40  LEU40       0.1561
     56  C         10.1720  -10.3970  -17.9730 C.2    40  LEU40       0.2260
     57  O         10.3760  -11.3660  -18.7000 O.2    40  LEU40      -0.2867
     58  CB        12.2630  -10.1780  -16.5780 C.3    40  LEU40       0.0270
     59  CG        12.8740   -8.9740  -17.3030 C.3    40  LEU40       0.0019
     60  CD1       12.3730   -7.6520  -16.7340 C.3    40  LEU40       0.0001
     61  CD2       14.3950   -9.0420  -17.2440 C.3    40  LEU40       0.0001
     62  N         10.7750   -2.8680  -20.4370 N.3    47  PHE47      -0.1241
     63  CA        10.8530   -3.9540  -19.4670 C.3    47  PHE47       0.1605
     64  C          9.6600   -3.9310  -18.5120 C.2    47  PHE47       0.2264
     65  O          9.0980   -2.8730  -18.2310 O.2    47  PHE47      -0.2867
     66  CB        12.1440   -3.8720  -18.6550 C.3    47  PHE47       0.0534
     67  CG        13.3650   -4.3490  -19.3890 C.ar   47  PHE47      -0.0203
     68  CD1       13.5530   -5.7010  -19.6540 C.ar   47  PHE47      -0.0042
     69  CD2       14.3510   -3.4500  -19.7790 C.ar   47  PHE47      -0.0042
     70  CE1       14.6910   -6.1460  -20.3130 C.ar   47  PHE47      -0.0003
     71  CE2       15.4910   -3.8870  -20.4380 C.ar   47  PHE47      -0.0003
     72  CZ        15.6590   -5.2360  -20.7090 C.ar   47  PHE47      -0.0000
     73  N          8.8560   -6.0010  -14.7760 N.3    49  GLN49      -0.1245
     74  CA         9.3300   -6.9870  -13.8130 C.3    49  GLN49       0.1566
     75  C          8.4620   -7.1060  -12.5660 C.2    49  GLN49       0.2260
     76  O          8.0960   -6.1100  -11.9470 O.2    49  GLN49      -0.2867
     77  CB        10.7910   -6.7290  -13.4300 C.3    49  GLN49       0.0367
     78  CG        11.4530   -7.9120  -12.7260 C.3    49  GLN49       0.0905
     79  CD        12.9490   -7.7520  -12.5520 C.2    49  GLN49       0.2608
     80  OE1       13.4520   -6.6540  -12.3110 O.2    49  GLN49      -0.2717
     81  NE2       13.6700   -8.8590  -12.6590 N.am   49  GLN49      -0.0878
     82  N          8.6400   -8.6800   -8.8340 N.3    51  LEU51      -0.1245
     83  CA         9.6000   -9.1600   -7.8480 C.3    51  LEU51       0.1561
     84  C          8.8990   -9.6160   -6.5750 C.2    51  LEU51       0.2260
     85  O          8.0400   -8.9140   -6.0440 O.2    51  LEU51      -0.2867
     86  CB        10.6420   -8.0800   -7.5350 C.3    51  LEU51       0.0270
     87  CG        11.6870   -7.7920   -8.6200 C.3    51  LEU51       0.0019
     88  CD1       12.4440   -6.5080   -8.3200 C.3    51  LEU51       0.0001
     89  CD2       12.6550   -8.9600   -8.7860 C.3    51  LEU51       0.0001
     90  N         17.2480   -4.5200   -3.7490 N.3    61  LEU61      -0.1245
     91  CA        17.3480   -4.8730   -5.1640 C.3    61  LEU61       0.1561
     92  C         16.8170   -3.7750   -6.0930 C.2    61  LEU61       0.2260
     93  O         17.4170   -3.5000   -7.1350 O.2    61  LEU61      -0.2867
     94  CB        16.6440   -6.2060   -5.4430 C.3    61  LEU61       0.0270
     95  CG        16.7710   -6.7710   -6.8640 C.3    61  LEU61       0.0019
     96  CD1       18.2320   -6.9710   -7.2360 C.3    61  LEU61       0.0001
     97  CD2       15.9890   -8.0620   -7.0260 C.3    61  LEU61       0.0001
     98  N         19.2580   -0.9670   -6.7160 N.3    64  GLU64      -0.1231
     99  CA        20.2520   -1.3290   -7.7240 C.3    64  GLU64       0.1699
    100  C         19.6640   -1.2830   -9.1320 C.2    64  GLU64       0.2592
    101  O         20.3550   -0.9300  -10.0880 O.2    64  GLU64      -0.2718
    102  CB        20.8140   -2.7250   -7.4450 C.3    64  GLU64       0.0402
    103  CG        21.7170   -2.8140   -6.2210 C.3    64  GLU64       0.1161
    104  CD        22.2700   -4.2140   -6.0030 C.2    64  GLU64       0.3649
    105  OE1       23.5080   -4.3770   -6.0560 O.co2  64  GLU64      -0.2457
    106  OE2       21.4700   -5.1530   -5.7900 O.co2  64  GLU64      -0.2457
    107  N         18.3870   -1.6420   -9.2440 N.am   65  ILE65      -0.1980
    108  CA        17.6780   -1.6660  -10.5250 C.3    65  ILE65       0.1595
    109  C         17.3830   -0.2550  -11.0480 C.2    65  ILE65       0.2287
    110  O         17.6200    0.0340  -12.2240 O.2    65  ILE65      -0.2864
    111  CB        16.3820   -2.5170  -10.4350 C.3    65  ILE65       0.0276
    112  CG1       16.7320   -4.0090  -10.4170 C.3    65  ILE65       0.0022
    113  CG2       15.4420   -2.2120  -11.5920 C.3    65  ILE65       0.0022
    114  CD1       15.5810   -4.9190  -10.0200 C.3    65  ILE65       0.0001
    115  N         20.4320    1.1790  -12.4910 N.3    68  ASP68      -0.1239
    116  CA        21.0270    0.4640  -13.6130 C.3    68  ASP68       0.1674
    117  C         20.9590    1.2740  -14.9090 C.2    68  ASP68       0.2266
    118  O         19.8730    1.6560  -15.3480 O.2    68  ASP68      -0.2867
    119  CB        20.3390   -0.8900  -13.7950 C.3    68  ASP68       0.1410
    120  CG        21.2110   -1.8980  -14.5080 C.2    68  ASP68       0.3668
    121  OD1       21.6740   -1.6160  -15.6270 O.co2  68  ASP68      -0.2456
    122  OD2       21.4330   -2.9860  -13.9490 O.co2  68  ASP68      -0.2456
    123  N         21.3300    0.3130  -17.8940 N.3    70  ARG70      -0.1231
    124  CA        20.7610   -0.4580  -19.0070 C.3    70  ARG70       0.1694
    125  C         19.3710    0.0340  -19.4040 C.2    70  ARG70       0.2592
    126  O         18.9260   -0.1980  -20.5300 O.2    70  ARG70      -0.2718
    127  CB        20.6650   -1.9440  -18.6600 C.3    70  ARG70       0.0321
    128  CG        21.9740   -2.7230  -18.6440 C.3    70  ARG70       0.0489
    129  CD        21.6680   -4.1950  -18.3980 C.3    70  ARG70       0.2205
    130  NE        22.7890   -4.9430  -17.8340 N.pl3  70  ARG70      -0.0865
    131  CZ        22.9230   -5.2420  -16.5440 C.cat  70  ARG70       0.5346
    132  NH1       22.0140   -4.8520  -15.6640 N.pl3  70  ARG70       0.1354
    133  NH2       23.9760   -5.9320  -16.1320 N.pl3  70  ARG70       0.1354
    134  N         18.6840    0.6970  -18.4750 N.am   71  HIS71      -0.1976
    135  CA        17.3240    1.1750  -18.7140 C.3    71  HIS71       0.1656
    136  C         17.0250    2.5110  -18.0270 C.2    71  HIS71       0.2291
    137  O         17.7860    2.9660  -17.1680 O.2    71  HIS71      -0.2864
    138  CB        16.2970    0.0970  -18.3280 C.3    71  HIS71       0.0771
    139  CG        16.2200   -0.1920  -16.8560 C.ar   71  HIS71       0.0820
    140  ND1       15.2000   -0.9370  -16.3050 N.ar   71  HIS71      -0.2267
    141  CD2       17.0210    0.1670  -15.8230 C.ar   71  HIS71       0.1154
    142  CE1       15.3790   -1.0310  -15.0010 C.ar   71  HIS71       0.1986
    143  NE2       16.4760   -0.3680  -14.6820 N.ar   71  HIS71      -0.2212
    144  N         15.0160  -16.3780  -12.0240 N.3    92  MET92      -0.1245
    145  CA        14.2170  -15.3930  -12.7370 C.3    92  MET92       0.1570
    146  C         13.7950  -15.9130  -14.1070 C.2    92  MET92       0.2261
    147  O         14.6240  -16.3840  -14.8830 O.2    92  MET92      -0.2867
    148  CB        15.0260  -14.0960  -12.8780 C.3    92  MET92       0.0387
    149  CG        14.3430  -12.9600  -13.6290 C.3    92  MET92       0.0595
    150  SD        12.7760  -12.4120  -12.9230 S.3    92  MET92      -0.1393
    151  CE        13.2300  -12.0040  -11.2370 C.3    92  MET92       0.0692
@<TRIPOS>BOND
     1    72    71   ar
     2    72    70   ar
     3   126   125    2
     4    71    69   ar
     5    62    63    1
     6    70    68   ar
     7    69    67   ar
     8    68    67   ar
     9    63    66    1
    10    63    64    1
    11   125   124    1
    12   125   134   am
    13    67    66    1
    14   124   127    1
    15   124   123    1
    16   135   134    1
    17   135   138    1
    18   135   136    1
    19    57    56    2
    20   127   128    1
    21   128   129    1
    22    64    65    2
    23   129   130    1
    24    13    14    1
    25   138   139    1
    26    17    14    1
    27    17    18    1
    28    20    18    1
    29   136   137    2
    30    56    55    1
    31   130   131    2
    32    14    15    1
    33    59    61    1
    34    59    60    1
    35    59    58    1
    36    18    19    1
    37   139   140   ar
    38   139   141   ar
    39    15    16    2
    40    58    55    1
    41    55    54    1
    42   131   133    1
    43   131   132    1
    44   140   142   ar
    45   141   143   ar
    46   121   120   ar
    47   118   117    2
    48   142   143   ar
    49    27    26    1
    50    27    28    1
    51   117   116    1
    52   147   146    2
    53    73    74    1
    54   120   122   ar
    55   120   119    1
    56    26    25    1
    57    21    22    1
    58     4     3    2
    59   146   145    1
    60    28    29    2
    61    30    29    1
    62    74    77    1
    63    74    75    1
    64   119   116    1
    65     9     7   ar
    66     9    11   ar
    67     3     2    1
    68   149   150    1
    69   149   148    1
    70   116   115    1
    71    25    22    1
    72    29    31    1
    73    77    78    1
    74    12    11    1
    75     7     6   ar
    76    22    23    1
    77    11    10   ar
    78   150   151    1
    79   148   145    1
    80   145   144    1
    81    36    33    1
    82    78    79    1
    83    32    23   am
    84    32    33    1
    85    81    79   am
    86    75    76    2
    87    79    80    2
    88   110   109    2
    89    23    24    2
    90     2     5    1
    91     2     1    1
    92     6     5    1
    93     6     8   ar
    94    33    34    1
    95    10     8   ar
    96   113   111    1
    97    34    35    2
    98   109   108    1
    99   108   111    1
   100   108   107    1
   101   111   112    1
   102   112   114    1
   103   101   100    2
   104   107   100   am
   105   100    99    1
   106    53    51   am
   107    82    83    1
   108    89    87    1
   109    87    88    1
   110    87    86    1
   111    37    38    1
   112    51    52    2
   113    51    50    1
   114    83    86    1
   115    83    84    1
   116    41    38    1
   117    41    42    1
   118    99   102    1
   119    99    98    1
   120    50    47    1
   121   102   103    1
   122    38    39    1
   123    43    42    1
   124    43    44    1
   125    96    95    1
   126    46    47    1
   127    46    39   am
   128    93    92    2
   129    97    95    1
   130    95    94    1
   131    45    44    1
   132    84    85    2
   133    47    48    1
   134    39    40    2
   135   103   104    1
   136    92    91    1
   137   105   104   ar
   138   104   106   ar
   139    48    49    2
   140    94    91    1
   141    91    90    1
