@<TRIPOS>MOLECULE
tmp/3gfxB01.pdb
 216 206 0 0 0
SMALL
GASTEIGER

@<TRIPOS>ATOM
      1  N         -1.4130   41.8020   -3.6320 N.3   165  PHE165     -0.1241
      2  CA        -1.5330   40.5650   -4.3970 C.3   165  PHE165      0.1605
      3  C         -0.3210   40.2460   -5.2580 C.2   165  PHE165      0.2264
      4  O          0.2440   41.1230   -5.9150 O.2   165  PHE165     -0.2867
      5  CB        -2.7980   40.5810   -5.2610 C.3   165  PHE165      0.0534
      6  CG        -4.0550   40.2900   -4.4950 C.ar  165  PHE165     -0.0203
      7  CD1       -4.7550   41.3130   -3.8700 C.ar  165  PHE165     -0.0042
      8  CD2       -4.5370   38.9910   -4.3920 C.ar  165  PHE165     -0.0042
      9  CE1       -5.9070   41.0480   -3.1550 C.ar  165  PHE165     -0.0003
     10  CE2       -5.6960   38.7180   -3.6810 C.ar  165  PHE165     -0.0003
     11  CZ        -6.3830   39.7490   -3.0610 C.ar  165  PHE165     -0.0000
     12  N          0.7580   34.9340  -10.3750 N.3   168  GLN168     -0.1245
     13  CA         1.4530   33.8090  -10.9920 C.3   168  GLN168      0.1566
     14  C          0.7550   33.3850  -12.2780 C.2   168  GLN168      0.2260
     15  O         -0.4660   33.2150  -12.3080 O.2   168  GLN168     -0.2867
     16  CB         1.5700   32.6210  -10.0360 C.3   168  GLN168      0.0367
     17  CG         2.5880   31.5830  -10.4980 C.3   168  GLN168      0.0905
     18  CD         2.5870   30.3200   -9.6610 C.2   168  GLN168      0.2608
     19  OE1        1.6300   30.0330   -8.9410 O.2   168  GLN168     -0.2717
     20  NE2        3.6640   29.5490   -9.7600 N.am  168  GLN168     -0.0878
     21  N         -3.0880   34.0670  -11.8470 N.3   182  GLU182     -0.1231
     22  CA        -3.7670   33.8220  -10.5840 C.3   182  GLU182      0.1699
     23  C         -3.2860   34.8050   -9.5240 C.2   182  GLU182      0.2592
     24  O         -2.0800   34.9490   -9.2960 O.2   182  GLU182     -0.2718
     25  CB        -3.5410   32.3860  -10.1150 C.3   182  GLU182      0.0402
     26  CG        -4.3880   32.0050   -8.9120 C.3   182  GLU182      0.1161
     27  CD        -3.9260   30.7320   -8.2410 C.2   182  GLU182      0.3649
     28  OE1       -3.0630   30.0260   -8.8060 O.co2 182  GLU182     -0.2457
     29  OE2       -4.4370   30.4280   -7.1400 O.co2 182  GLU182     -0.2457
     30  N         -4.2360   35.4810   -8.8820 N.am  183  ALA183     -0.1966
     31  CA        -3.9280   36.4230   -7.8110 C.3   183  ALA183      0.1728
     32  C         -3.8250   35.7040   -6.4670 C.2   183  ALA183      0.2616
     33  O         -4.7410   34.9860   -6.0650 O.2   183  ALA183     -0.2715
     34  CB        -4.9750   37.5260   -7.7560 C.3   183  ALA183      0.0334
     35  N         -2.6990   35.8990   -5.7850 N.am  184  LEU184     -0.1963
     36  CA        -2.4590   35.2950   -4.4760 C.3   184  LEU184      0.1728
     37  C         -2.3120   36.3890   -3.4240 C.2   184  LEU184      0.2616
     38  O         -1.4860   37.2920   -3.5730 O.2   184  LEU184     -0.2715
     39  CB        -1.2040   34.4170   -4.5110 C.3   184  LEU184      0.0311
     40  CG        -1.1910   33.2570   -5.5120 C.3   184  LEU184      0.0022
     41  CD1        0.2370   32.8430   -5.8420 C.3   184  LEU184      0.0001
     42  CD2       -2.0070   32.0720   -5.0030 C.3   184  LEU184      0.0001
     43  N         -3.1110   36.3020   -2.3620 N.am  185  ILE185     -0.1963
     44  CA        -3.1420   37.3490   -1.3370 C.3   185  ILE185      0.1727
     45  C         -1.8630   37.4000   -0.4920 C.2   185  ILE185      0.2616
     46  O         -1.2540   36.3710   -0.1970 O.2   185  ILE185     -0.2715
     47  CB        -4.4250   37.2720   -0.4520 C.3   185  ILE185      0.0290
     48  CG1       -4.7540   38.6460    0.1490 C.3   185  ILE185      0.0022
     49  CG2       -4.3130   36.1780    0.6200 C.3   185  ILE185      0.0023
     50  CD1       -6.0480   38.6890    0.9320 C.3   185  ILE185      0.0001
     51  N         -1.4470   38.6160   -0.1470 N.am  186  ARG186     -0.1977
     52  CA        -0.2470   38.8450    0.6540 C.3   186  ARG186      0.1597
     53  C         -0.5290   39.9050    1.7150 C.2   186  ARG186      0.2287
     54  O         -1.3720   40.7830    1.5170 O.2   186  ARG186     -0.2864
     55  CB         0.9250   39.2940   -0.2320 C.3   186  ARG186      0.0334
     56  CG         1.3790   38.2890   -1.2940 C.3   186  ARG186      0.0492
     57  CD         2.2000   37.1530   -0.6930 C.3   186  ARG186      0.2205
     58  NE         2.7040   36.2320   -1.7090 N.pl3 186  ARG186     -0.0865
     59  CZ         2.0760   35.1300   -2.1110 C.cat 186  ARG186      0.5346
     60  NH1        0.9030   34.7950   -1.5860 N.pl3 186  ARG186      0.1354
     61  NH2        2.6210   34.3580   -3.0420 N.pl3 186  ARG186      0.1354
     62  N          2.5570   35.5530    3.8580 N.3   192  SER192     -0.1203
     63  CA         1.7210   34.5580    3.1790 C.3   192  SER192      0.2005
     64  C          0.2230   34.7480    3.4710 C.2   192  SER192      0.2461
     65  O         -0.1340   35.4700    4.4030 O.2   192  SER192     -0.2732
     66  CB         2.1710   33.1490    3.5880 C.3   192  SER192      0.2103
     67  OG         1.8810   32.8930    4.9510 O.3   192  SER192     -0.2182
     68  N         -0.6600   34.1180    2.6600 N.am  193  PRO193     -0.2717
     69  CA        -2.1020   34.0790    2.9420 C.3   193  PRO193      0.1535
     70  C         -2.4490   33.5900    4.3490 C.2   193  PRO193      0.2598
     71  O         -3.4510   34.0250    4.9180 O.2   193  PRO193     -0.2715
     72  CB        -2.6280   33.0840    1.9090 C.3   193  PRO193      0.0310
     73  CG        -1.6960   33.2060    0.7760 C.3   193  PRO193      0.0237
     74  CD        -0.3480   33.4410    1.3870 C.3   193  PRO193      0.0939
     75  N         -1.6320   32.6880    4.8900 N.am  194  VAL194     -0.1978
     76  CA        -1.7630   32.2380    6.2730 C.3   194  VAL194      0.1596
     77  C         -1.5560   33.4120    7.2360 C.2   194  VAL194      0.2287
     78  O         -2.3890   33.6480    8.1120 O.2   194  VAL194     -0.2864
     79  CB        -0.7750   31.0830    6.5890 C.3   194  VAL194      0.0276
     80  CG1       -0.7740   30.7480    8.0800 C.3   194  VAL194      0.0022
     81  CG2       -1.1170   29.8490    5.7650 C.3   194  VAL194      0.0022
     82  N         -4.5620   36.2150    6.8720 N.3   197  PHE197     -0.1241
     83  CA        -5.8260   35.8430    7.5080 C.3   197  PHE197      0.1605
     84  C         -5.7280   35.6500    9.0250 C.2   197  PHE197      0.2264
     85  O         -6.7370   35.7410    9.7270 O.2   197  PHE197     -0.2867
     86  CB        -6.4210   34.5970    6.8460 C.3   197  PHE197      0.0534
     87  CG        -7.1180   34.8770    5.5440 C.ar  197  PHE197     -0.0203
     88  CD1       -8.3730   35.4760    5.5270 C.ar  197  PHE197     -0.0042
     89  CD2       -6.5250   34.5360    4.3350 C.ar  197  PHE197     -0.0042
     90  CE1       -9.0210   35.7350    4.3240 C.ar  197  PHE197     -0.0003
     91  CE2       -7.1650   34.7910    3.1290 C.ar  197  PHE197     -0.0003
     92  CZ        -8.4150   35.3900    3.1220 C.ar  197  PHE197     -0.0000
     93  N        -11.9460   38.3250    2.8770 N.3   209  ASP209     -0.1239
     94  CA       -11.6130   37.5170    1.7030 C.3   209  ASP209      0.1674
     95  C        -12.3230   38.0310    0.4470 C.2   209  ASP209      0.2266
     96  O        -11.7180   38.1200   -0.6230 O.2   209  ASP209     -0.2867
     97  CB       -11.9640   36.0440    1.9590 C.3   209  ASP209      0.1410
     98  CG       -11.5240   35.1180    0.8310 C.2   209  ASP209      0.3668
     99  OD1      -10.6480   35.5000    0.0240 O.co2 209  ASP209     -0.2456
    100  OD2      -12.0580   33.9910    0.7560 O.co2 209  ASP209     -0.2456
    101  N        -10.5620   41.3910   -2.8470 N.3   213  LYS213     -0.1245
    102  CA       -10.5700   41.2040   -4.2960 C.3   213  LYS213      0.1561
    103  C        -10.6420   42.5030   -5.0920 C.2   213  LYS213      0.2260
    104  O        -10.2710   42.5310   -6.2640 O.2   213  LYS213     -0.2867
    105  CB       -11.7190   40.2800   -4.7080 C.3   213  LYS213      0.0271
    106  CG       -11.6080   38.8780   -4.1410 C.3   213  LYS213      0.0035
    107  CD       -10.2570   38.2750   -4.4700 C.3   213  LYS213      0.0206
    108  CE       -10.0500   36.9590   -3.7600 C.3   213  LYS213      0.1093
    109  NZ        -9.7940   37.1160   -2.2990 N.3   213  LYS213     -0.1314
    110  N         -8.8450   33.5490   -5.6810 N.3   233  ASN233     -0.1225
    111  CA        -9.1800   32.5310   -4.6910 C.3   233  ASN233      0.1785
    112  C        -10.1880   33.0250   -3.6700 C.2   233  ASN233      0.2597
    113  O         -9.9900   34.0620   -3.0450 O.2   233  ASN233     -0.2718
    114  CB        -7.9180   32.0620   -3.9700 C.3   233  ASN233      0.1169
    115  CG        -6.8980   31.4770   -4.9120 C.2   233  ASN233      0.2627
    116  OD1       -7.0380   30.3410   -5.3630 O.2   233  ASN233     -0.2716
    117  ND2       -5.8600   32.2470   -5.2170 N.am  233  ASN233     -0.0877
    118  N        -11.2680   32.2720   -3.4980 N.am  234  LEU234     -0.1966
    119  CA       -12.2850   32.6070   -2.5100 C.3   234  LEU234      0.1728
    120  C        -12.7540   31.3720   -1.7580 C.2   234  LEU234      0.2616
    121  O        -12.8340   30.2840   -2.3230 O.2   234  LEU234     -0.2715
    122  CB       -13.4870   33.2870   -3.1770 C.3   234  LEU234      0.0311
    123  CG       -13.3910   34.7730   -3.5390 C.3   234  LEU234      0.0022
    124  CD1      -14.5590   35.1890   -4.4180 C.3   234  LEU234      0.0001
    125  CD2      -13.3300   35.6410   -2.2910 C.3   234  LEU234      0.0001
    126  N        -13.0480   31.5460   -0.4740 N.am  235  LEU235     -0.1977
    127  CA       -13.7740   30.5390    0.2810 C.3   235  LEU235      0.1596
    128  C        -15.2340   30.6340   -0.1490 C.2   235  LEU235      0.2287
    129  O        -15.7450   31.7370   -0.3390 O.2   235  LEU235     -0.2864
    130  CB       -13.6470   30.7880    1.7880 C.3   235  LEU235      0.0297
    131  CG       -12.2830   30.5750    2.4520 C.3   235  LEU235      0.0022
    132  CD1      -12.2340   31.2730    3.8040 C.3   235  LEU235      0.0001
    133  CD2      -11.9560   29.0940    2.5990 C.3   235  LEU235      0.0001
    134  N        -14.0320   22.3280    0.3560 N.3   271  GLU271     -0.1245
    135  CA       -14.8000   23.4930    0.7620 C.3   271  GLU271      0.1567
    136  C        -16.2510   23.4250    0.2900 C.2   271  GLU271      0.2260
    137  O        -17.1550   23.9030    0.9760 O.2   271  GLU271     -0.2867
    138  CB       -14.1530   24.7550    0.1950 C.3   271  GLU271      0.0388
    139  CG       -12.8160   25.1390    0.8020 C.3   271  GLU271      0.1160
    140  CD       -12.0500   26.1350   -0.0590 C.2   271  GLU271      0.3649
    141  OE1      -12.4600   26.3920   -1.2120 O.co2 271  GLU271     -0.2457
    142  OE2      -11.0250   26.6600    0.4180 O.co2 271  GLU271     -0.2457
    143  N        -10.2540   23.9280   -7.5300 N.3   296  ASP296     -0.1225
    144  CA        -8.8370   24.0500   -7.2310 C.3   296  ASP296      0.1805
    145  C         -8.3620   22.9010   -6.3510 C.2   296  ASP296      0.2597
    146  O         -9.1580   22.3080   -5.6170 O.2   296  ASP296     -0.2718
    147  CB        -8.5880   25.3810   -6.5230 C.3   296  ASP296      0.1424
    148  CG        -7.1380   25.8070   -6.5720 C.2   296  ASP296      0.3668
    149  OD1       -6.7670   26.7150   -5.7960 O.co2 296  ASP296     -0.2456
    150  OD2       -6.3640   25.2520   -7.3830 O.co2 296  ASP296     -0.2456
    151  N         -7.0630   22.6020   -6.4340 N.am  297  ASP297     -0.1974
    152  CA        -6.4190   21.5500   -5.6370 C.3   297  ASP297      0.1709
    153  C         -7.1130   20.2000   -5.7870 C.2   297  ASP297      0.2293
    154  O         -7.3110   19.4790   -4.8050 O.2   297  ASP297     -0.2864
    155  CB        -6.3320   21.9510   -4.1550 C.3   297  ASP297      0.1436
    156  CG        -5.6220   23.2740   -3.9480 C.2   297  ASP297      0.3671
    157  OD1       -4.7890   23.6410   -4.8060 O.co2 297  ASP297     -0.2456
    158  OD2       -5.8980   23.9450   -2.9290 O.co2 297  ASP297     -0.2456
    159  N         -0.9540   19.7440   -6.7010 N.3   320  ALA320     -0.1245
    160  CA         0.4920   19.5450   -6.7400 C.3   320  ALA320      0.1562
    161  C          0.9580   18.2050   -6.1670 C.2   320  ALA320      0.2260
    162  O          2.0560   17.7490   -6.4840 O.2   320  ALA320     -0.2867
    163  CB         1.1960   20.6970   -6.0280 C.3   320  ALA320      0.0290
    164  N         -0.7570   22.0460  -11.5200 N.3   353  GLU353     -0.1231
    165  CA        -0.0470   23.0330  -10.7120 C.3   353  GLU353      0.1699
    166  C          1.0430   22.4450   -9.8230 C.2   353  GLU353      0.2592
    167  O          1.0820   21.2360   -9.5920 O.2   353  GLU353     -0.2718
    168  CB        -1.0180   23.9110   -9.9100 C.3   353  GLU353      0.0402
    169  CG        -1.9040   23.1830   -8.9220 C.3   353  GLU353      0.1161
    170  CD        -3.1260   23.9960   -8.5330 C.2   353  GLU353      0.3649
    171  OE1       -3.8970   23.5320   -7.6640 O.co2 353  GLU353     -0.2457
    172  OE2       -3.3220   25.0960   -9.0960 O.co2 353  GLU353     -0.2457
    173  N          1.9360   23.3100   -9.3480 N.am  354  GLY354     -0.1957
    174  CA         3.0770   22.8900   -8.5380 C.3   354  GLY354      0.1869
    175  C          4.1420   22.1810   -9.3530 C.2   354  GLY354      0.2309
    176  O          4.9000   21.3660   -8.8230 O.2   354  GLY354     -0.2863
    177  N          7.4820   21.7520  -10.8390 N.3   356  GLU356     -0.1245
    178  CA         8.7860   22.2660  -10.4170 C.3   356  GLU356      0.1567
    179  C          9.9490   21.7750  -11.2760 C.2   356  GLU356      0.2260
    180  O         10.9860   22.4370  -11.3540 O.2   356  GLU356     -0.2867
    181  CB         9.0480   21.9060   -8.9530 C.3   356  GLU356      0.0388
    182  CG         8.1230   22.5920   -7.9610 C.3   356  GLU356      0.1160
    183  CD         8.3420   22.1290   -6.5330 C.2   356  GLU356      0.3649
    184  OE1        8.1660   22.9500   -5.6130 O.co2 356  GLU356     -0.2457
    185  OE2        8.6950   20.9460   -6.3270 O.co2 356  GLU356     -0.2457
    186  N          1.1100   25.4120  -14.2670 N.3   373  GLN373     -0.1231
    187  CA         1.4250   26.4270  -13.2710 C.3   373  GLN373      0.1698
    188  C          2.4960   25.8710  -12.3370 C.2   373  GLN373      0.2593
    189  O          2.4460   24.7030  -11.9560 O.2   373  GLN373     -0.2718
    190  CB         0.1710   26.8090  -12.4830 C.3   373  GLN373      0.0381
    191  CG         0.2990   28.0920  -11.6720 C.3   373  GLN373      0.0905
    192  CD        -0.9140   28.3620  -10.7950 C.2   373  GLN373      0.2608
    193  OE1       -1.9200   27.6530  -10.8640 O.2   373  GLN373     -0.2717
    194  NE2       -0.8240   29.3940   -9.9680 N.am  373  GLN373     -0.0878
    195  N          3.4730   26.6980  -11.9850 N.am  374  GLY374     -0.1942
    196  CA         4.5270   26.2610  -11.0790 C.3   374  GLY374      0.2014
    197  C          5.8170   27.0440  -11.1790 C.2   374  GLY374      0.2638
    198  O          5.9780   27.8790  -12.0710 O.2   374  GLY374     -0.2714
    199  N          6.7420   26.7520  -10.2650 N.am  375  PHE375     -0.1973
    200  CA         8.0050   27.4870  -10.1440 C.3   375  PHE375      0.1639
    201  C          8.9490   27.2860  -11.3300 C.2   375  PHE375      0.2290
    202  O          9.8050   28.1320  -11.5910 O.2   375  PHE375     -0.2864
    203  CB         8.7360   27.1120   -8.8480 C.3   375  PHE375      0.0560
    204  CG         8.0630   27.6040   -7.5900 C.ar  375  PHE375     -0.0200
    205  CD1        7.1180   28.6240   -7.6280 C.ar  375  PHE375     -0.0042
    206  CD2        8.4090   27.0620   -6.3590 C.ar  375  PHE375     -0.0042
    207  CE1        6.5120   29.0750   -6.4630 C.ar  375  PHE375     -0.0003
    208  CE2        7.8120   27.5110   -5.1890 C.ar  375  PHE375     -0.0003
    209  CZ         6.8620   28.5190   -5.2420 C.ar  375  PHE375     -0.0000
    210  N          5.3940   33.4530   -8.4110 N.3   380  PRO380     -0.2116
    211  CA         4.5050   34.5650   -8.0720 C.3   380  PRO380      0.1372
    212  C          5.2540   35.8880   -7.9500 C.2   380  PRO380      0.2244
    213  O          6.3350   35.9400   -7.3610 O.2   380  PRO380     -0.2868
    214  CB         3.9370   34.1520   -6.7120 C.3   380  PRO380      0.0268
    215  CG         3.9860   32.6780   -6.7310 C.3   380  PRO380      0.0207
    216  CD         5.2420   32.3330   -7.4650 C.3   380  PRO380      0.0892
@<TRIPOS>BOND
     1   186   187    1
     2   187   190    1
     3   187   188    1
     4   190   191    1
     5   188   195   am
     6   188   189    2
     7    15    14    2
     8    14    13    1
     9   198   197    2
    10   195   196    1
    11    21    22    1
    12   191   192    1
    13   202   201    2
    14   164   165    1
    15   180   179    2
    16   201   200    1
    17   179   178    1
    18   197   196    1
    19   197   199   am
    20    13    12    1
    21    13    16    1
    22   193   192    2
    23   177   178    1
    24   192   194   am
    25   165   168    1
    26   165   166    1
    27    22    25    1
    28    22    23    1
    29    17    16    1
    30    17    18    1
    31   178   181    1
    32   199   200    1
    33   200   203    1
    34    25    26    1
    35   168   169    1
    36   166   167    2
    37   166   173   am
    38    20    18   am
    39    18    19    2
    40    23    24    2
    41    23    30   am
    42   175   176    2
    43   175   174    1
    44   173   174    1
    45   172   170   ar
    46   181   182    1
    47   169   170    1
    48    26    27    1
    49    30    31    1
    50   203   204    1
    51    28    27   ar
    52   170   171   ar
    53   210   211    1
    54   210   216    1
    55    27    29   ar
    56   211   212    1
    57   211   214    1
    58   182   183    1
    59   212   213    2
    60    31    34    1
    61    31    32    1
    62   205   204   ar
    63   205   207   ar
    64   204   206   ar
    65   143   144    1
    66   216   215    1
    67   150   148   ar
    68   144   147    1
    69   144   145    1
    70   160   159    1
    71   160   161    1
    72   160   163    1
    73   215   214    1
    74   148   147    1
    75   148   149   ar
    76   183   185   ar
    77   183   184   ar
    78   162   161    2
    79    32    33    2
    80    32    35   am
    81   207   209   ar
    82   151   145   am
    83   151   152    1
    84   206   208   ar
    85   145   146    2
    86   104   103    2
    87     4     3    2
    88    41    40    1
    89   153   152    1
    90   153   154    2
    91    35    36    1
    92   110   111    1
    93   152   155    1
    94    40    42    1
    95    40    39    1
    96   116   115    2
    97     5     6    1
    98     5     2    1
    99     3     2    1
   100   209   208   ar
   101   117   115   am
   102   103   102    1
   103   115   114    1
   104   157   156   ar
   105   105   102    1
   106   105   106    1
   107   111   114    1
   108   111   112    1
   109    39    36    1
   110     6     8   ar
   111     6     7   ar
   112    36    37    1
   113   107   106    1
   114   107   108    1
   115   124   123    1
   116     2     1    1
   117     8    10   ar
   118   102   101    1
   119   155   156    1
   120   156   158   ar
   121     7     9   ar
   122   108   109    1
   123    10    11   ar
   124   112   118   am
   125   112   113    2
   126    38    37    2
   127   123   122    1
   128   123   125    1
   129   118   119    1
   130    37    43   am
   131   122   119    1
   132     9    11   ar
   133    61    59    1
   134   119   120    1
   135    43    44    1
   136   121   120    2
   137    59    58    2
   138    59    60    1
   139   120   126   am
   140    58    57    1
   141    44    45    1
   142    44    47    1
   143    56    57    1
   144    56    55    1
   145   141   140   ar
   146    96    95    2
   147    45    46    2
   148    45    51   am
   149   126   127    1
   150    47    48    1
   151    47    49    1
   152   129   128    2
   153    55    52    1
   154   128   127    1
   155    51    52    1
   156   140   142   ar
   157   140   139    1
   158    99    98   ar
   159    48    50    1
   160   138   135    1
   161   138   139    1
   162   127   130    1
   163   136   135    1
   164   136   137    2
   165   134   135    1
   166    95    94    1
   167    52    53    1
   168   100    98   ar
   169    73    74    1
   170    73    72    1
   171    98    97    1
   172    74    68    1
   173    54    53    2
   174    94    97    1
   175    94    93    1
   176   130   131    1
   177    72    69    1
   178   131   133    1
   179   131   132    1
   180    68    69    1
   181    68    64   am
   182    69    70    1
   183    92    91   ar
   184    92    90   ar
   185    91    89   ar
   186    63    64    1
   187    63    66    1
   188    63    62    1
   189    64    65    2
   190    66    67    1
   191    90    88   ar
   192    89    87   ar
   193    70    75   am
   194    70    71    2
   195    75    76    1
   196    88    87   ar
   197    87    86    1
   198    81    79    1
   199    76    79    1
   200    76    77    1
   201    79    80    1
   202    86    83    1
   203    82    83    1
   204    77    78    2
   205    83    84    1
   206    84    85    2
