@<TRIPOS>MOLECULE
tmp/3gfyA00.pdb
 210 202 0 0 0
SMALL
GASTEIGER

@<TRIPOS>ATOM
      1  N        -28.0700  -14.5950    5.6470 N.3   164  PHE164     -0.1241
      2  CA       -27.3710  -13.9390    4.5540 C.3   164  PHE164      0.1605
      3  C        -28.0040  -14.2340    3.2080 C.2   164  PHE164      0.2264
      4  O        -28.2250  -15.3900    2.8560 O.2   164  PHE164     -0.2867
      5  CB       -25.8910  -14.3320    4.5290 C.3   164  PHE164      0.0534
      6  CG       -25.0420  -13.5510    5.4850 C.ar  164  PHE164     -0.0203
      7  CD1      -24.7780  -14.0400    6.7590 C.ar  164  PHE164     -0.0042
      8  CD2      -24.5030  -12.3240    5.1120 C.ar  164  PHE164     -0.0042
      9  CE1      -23.9990  -13.3190    7.6480 C.ar  164  PHE164     -0.0003
     10  CE2      -23.7150  -11.5960    5.9970 C.ar  164  PHE164     -0.0003
     11  CZ       -23.4630  -12.0990    7.2700 C.ar  164  PHE164     -0.0000
     12  N        -25.9530  -12.5130   -3.6310 N.3   167  GLN167     -0.1245
     13  CA       -26.1390  -11.9490   -4.9630 C.3   167  GLN167      0.1566
     14  C        -24.9010  -12.1880   -5.8190 C.2   167  GLN167      0.2260
     15  O        -23.7770  -11.8870   -5.4080 O.2   167  GLN167     -0.2867
     16  CB       -26.4630  -10.4540   -4.9000 C.3   167  GLN167      0.0367
     17  CG       -26.7140   -9.8270   -6.2670 C.3   167  GLN167      0.0905
     18  CD       -27.3020   -8.4310   -6.1880 C.2   167  GLN167      0.2608
     19  OE1      -26.9350   -7.6350   -5.3190 O.2   167  GLN167     -0.2717
     20  NE2      -28.2130   -8.1230   -7.1050 N.am  167  GLN167     -0.0878
     21  N        -21.8580  -11.8940   -3.4620 N.3   181  GLU181     -0.1231
     22  CA       -21.8730  -10.9710   -2.3400 C.3   181  GLU181      0.1699
     23  C        -22.8130  -11.4250   -1.2330 C.2   181  GLU181      0.2592
     24  O        -23.9850  -11.6950   -1.4750 O.2   181  GLU181     -0.2718
     25  CB       -22.2120   -9.5430   -2.7590 C.3   181  GLU181      0.0402
     26  CG       -22.1970   -8.5970   -1.5710 C.3   181  GLU181      0.1161
     27  CD       -22.4500   -7.1570   -1.9250 C.2   181  GLU181      0.3649
     28  OE1      -22.8600   -6.8760   -3.0700 O.co2 181  GLU181     -0.2457
     29  OE2      -22.2370   -6.3050   -1.0400 O.co2 181  GLU181     -0.2457
     30  N        -22.2690  -11.5140   -0.0220 N.am  182  ALA182     -0.1966
     31  CA       -23.0420  -11.7910    1.1800 C.3   182  ALA182      0.1728
     32  C        -23.6760  -10.5100    1.7090 C.2   182  ALA182      0.2616
     33  O        -22.9910   -9.5200    1.9680 O.2   182  ALA182     -0.2715
     34  CB       -22.1550  -12.4200    2.2360 C.3   182  ALA182      0.0334
     35  N        -24.9950  -10.5410    1.8540 N.am  183  LEU183     -0.1963
     36  CA       -25.7570   -9.4130    2.3600 C.3   183  LEU183      0.1728
     37  C        -26.5210   -9.8690    3.5950 C.2   183  LEU183      0.2616
     38  O        -27.2950  -10.8200    3.5270 O.2   183  LEU183     -0.2715
     39  CB       -26.7290   -8.9170    1.2880 C.3   183  LEU183      0.0311
     40  CG       -26.1070   -8.4430   -0.0290 C.3   183  LEU183      0.0022
     41  CD1      -27.1260   -8.4500   -1.1590 C.3   183  LEU183      0.0001
     42  CD2      -25.4890   -7.0710    0.1470 C.3   183  LEU183      0.0001
     43  N        -26.2990   -9.1930    4.7200 N.am  184  ILE184     -0.1963
     44  CA       -26.8730   -9.6210    5.9960 C.3   184  ILE184      0.1727
     45  C        -28.3970   -9.4780    6.0290 C.2   184  ILE184      0.2616
     46  O        -28.9760   -8.5930    5.3910 O.2   184  ILE184     -0.2715
     47  CB       -26.2000   -8.9070    7.2090 C.3   184  ILE184      0.0290
     48  CG1      -26.3080   -9.7600    8.4790 C.3   184  ILE184      0.0022
     49  CG2      -26.7640   -7.5040    7.4190 C.3   184  ILE184      0.0023
     50  CD1      -25.4410   -9.2710    9.6220 C.3   184  ILE184      0.0001
     51  N        -29.0360  -10.3870    6.7510 N.am  185  ARG185     -0.1977
     52  CA       -30.4800  -10.3890    6.9010 C.3   185  ARG185      0.1597
     53  C        -30.8190  -10.6980    8.3540 C.2   185  ARG185      0.2287
     54  O        -30.0150  -11.3020    9.0690 O.2   185  ARG185     -0.2864
     55  CB       -31.1140  -11.4310    5.9710 C.3   185  ARG185      0.0334
     56  CG       -30.9590  -11.1550    4.4660 C.3   185  ARG185      0.0492
     57  CD       -31.8850  -10.0440    4.0060 C.3   185  ARG185      0.2205
     58  NE       -31.7740   -9.7590    2.5760 N.pl3 185  ARG185     -0.0865
     59  CZ       -30.9410   -8.8680    2.0450 C.cat 185  ARG185      0.5346
     60  NH1      -30.1210   -8.1650    2.8170 N.pl3 185  ARG185      0.1354
     61  NH2      -30.9230   -8.6800    0.7350 N.pl3 185  ARG185      0.1354
     62  N        -34.3430   -6.6690    6.2830 N.3   191  SER191     -0.1203
     63  CA       -33.2140   -5.8980    5.7440 C.3   191  SER191      0.2005
     64  C        -32.0070   -5.8010    6.6970 C.2   191  SER191      0.2461
     65  O        -32.1350   -6.1030    7.8850 O.2   191  SER191     -0.2732
     66  CB       -33.7030   -4.4970    5.3630 C.3   191  SER191      0.2103
     67  OG       -33.9850   -3.7190    6.5140 O.3   191  SER191     -0.2182
     68  N        -30.8250   -5.4040    6.1730 N.am  192  PRO192     -0.2717
     69  CA       -29.6710   -5.1030    7.0240 C.3   192  PRO192      0.1535
     70  C        -29.9660   -4.0520    8.0950 C.2   192  PRO192      0.2598
     71  O        -29.4510   -4.1530    9.2100 O.2   192  PRO192     -0.2715
     72  CB       -28.6380   -4.5670    6.0310 C.3   192  PRO192      0.0310
     73  CG       -28.9860   -5.2190    4.7550 C.3   192  PRO192      0.0237
     74  CD       -30.4830   -5.2640    4.7450 C.3   192  PRO192      0.0939
     75  N        -30.7870   -3.0610    7.7540 N.am  193  VAL193     -0.1978
     76  CA       -31.2300   -2.0450    8.7090 C.3   193  VAL193      0.1596
     77  C        -32.0960   -2.6750    9.8040 C.2   193  VAL193      0.2287
     78  O        -31.9100   -2.3910   10.9860 O.2   193  VAL193     -0.2864
     79  CB       -31.9760   -0.8840    7.9970 C.3   193  VAL193      0.0276
     80  CG1      -32.7280   -0.0060    8.9920 C.3   193  VAL193      0.0022
     81  CG2      -30.9900   -0.0430    7.1950 C.3   193  VAL193      0.0022
     82  N        -29.6150   -4.7890   12.1630 N.3   196  PHE196     -0.1241
     83  CA       -28.7420   -4.0040   13.0400 C.3   196  PHE196      0.1605
     84  C        -29.4820   -3.1700   14.0870 C.2   196  PHE196      0.2264
     85  O        -28.9100   -2.8300   15.1220 O.2   196  PHE196     -0.2867
     86  CB       -27.7890   -3.1240   12.2230 C.3   196  PHE196      0.0534
     87  CG       -26.5450   -3.8370   11.7730 C.ar  196  PHE196     -0.0203
     88  CD1      -25.4640   -3.9810   12.6330 C.ar  196  PHE196     -0.0042
     89  CD2      -26.4540   -4.3640   10.4920 C.ar  196  PHE196     -0.0042
     90  CE1      -24.3120   -4.6370   12.2220 C.ar  196  PHE196     -0.0003
     91  CE2      -25.3090   -5.0200   10.0740 C.ar  196  PHE196     -0.0003
     92  CZ       -24.2340   -5.1580   10.9400 C.ar  196  PHE196     -0.0000
     93  N        -21.3230   -7.2020   13.7440 N.3   208  ASP208     -0.1239
     94  CA       -21.0040   -7.1300   12.3240 C.3   208  ASP208      0.1674
     95  C        -19.8470   -8.0530   11.9590 C.2   208  ASP208      0.2266
     96  O        -19.8920   -8.7310   10.9320 O.2   208  ASP208     -0.2867
     97  CB       -20.6790   -5.6920   11.9130 C.3   208  ASP208      0.1410
     98  CG       -20.5100   -5.5390   10.4130 C.2   208  ASP208      0.3668
     99  OD1      -21.1620   -6.3000    9.6690 O.co2 208  ASP208     -0.2456
    100  OD2      -19.7270   -4.6640    9.9790 O.co2 208  ASP208     -0.2456
    101  N        -20.0740  -12.7320   10.3870 N.3   212  LYS212     -0.1245
    102  CA       -19.3980  -13.2210    9.1890 C.3   212  LYS212      0.1561
    103  C        -19.1190  -14.7200    9.2220 C.2   212  LYS212      0.2260
    104  O        -18.9370  -15.3410    8.1760 O.2   212  LYS212     -0.2867
    105  CB       -18.1110  -12.4320    8.9330 C.3   212  LYS212      0.0271
    106  CG       -18.3530  -10.9660    8.6200 C.3   212  LYS212      0.0035
    107  CD       -19.4840  -10.8320    7.6160 C.3   212  LYS212      0.0206
    108  CE       -19.8300   -9.3950    7.3300 C.3   212  LYS212      0.1093
    109  NZ       -20.7840   -8.8110    8.3000 N.3   212  LYS212     -0.1314
    110  N        -19.2620   -7.5660    3.4560 N.3   232  ASN232     -0.1225
    111  CA       -19.1050   -6.1430    3.7730 C.3   232  ASN232      0.1785
    112  C        -18.7790   -5.9840    5.2530 C.2   232  ASN232      0.2597
    113  O        -19.3080   -6.7200    6.0780 O.2   232  ASN232     -0.2718
    114  CB       -20.4240   -5.4030    3.5440 C.3   232  ASN232      0.1169
    115  CG       -20.9370   -5.5320    2.1320 C.2   232  ASN232      0.2627
    116  OD1      -20.5680   -4.7520    1.2520 O.2   232  ASN232     -0.2716
    117  ND2      -21.8260   -6.4960    1.9120 N.am  232  ASN232     -0.0877
    118  N        -17.9480   -5.0050    5.6000 N.am  233  LEU233     -0.1966
    119  CA       -17.6410   -4.7330    7.0080 C.3   233  LEU233      0.1728
    120  C        -17.4630   -3.2490    7.3130 C.2   233  LEU233      0.2616
    121  O        -16.9060   -2.5020    6.5070 O.2   233  LEU233     -0.2715
    122  CB       -16.3870   -5.4960    7.4570 C.3   233  LEU233      0.0311
    123  CG       -16.4860   -6.9540    7.9210 C.3   233  LEU233      0.0022
    124  CD1      -15.0980   -7.5230    8.1400 C.3   233  LEU233      0.0001
    125  CD2      -17.3270   -7.0980    9.1870 C.3   233  LEU233      0.0001
    126  N        -17.9380   -2.8370    8.4870 N.am  234  LEU234     -0.1977
    127  CA       -17.6580   -1.5050    9.0210 C.3   234  LEU234      0.1596
    128  C        -16.1940   -1.4330    9.4580 C.2   234  LEU234      0.2287
    129  O        -15.6480   -2.4260    9.9440 O.2   234  LEU234     -0.2864
    130  CB       -18.5740   -1.1940   10.2110 C.3   234  LEU234      0.0297
    131  CG       -20.0750   -1.0050    9.9610 C.3   234  LEU234      0.0022
    132  CD1      -20.8550   -1.1600   11.2620 C.3   234  LEU234      0.0001
    133  CD2      -20.3790    0.3410    9.3030 C.3   234  LEU234      0.0001
    134  N        -15.5040   -5.7300    1.7590 N.3   265  GLU265     -0.1245
    135  CA       -15.9920   -4.4580    1.2230 C.3   265  GLU265      0.1567
    136  C        -16.1490   -3.3990    2.3110 C.2   265  GLU265      0.2260
    137  O        -16.5520   -3.7010    3.4350 O.2   265  GLU265     -0.2867
    138  CB       -17.3030   -4.6480    0.4470 C.3   265  GLU265      0.0388
    139  CG       -17.1140   -5.3780   -0.8840 C.3   265  GLU265      0.1160
    140  CD       -18.3840   -5.5020   -1.7280 C.2   265  GLU265      0.3649
    141  OE1      -18.3220   -6.1870   -2.7710 O.co2 265  GLU265     -0.2457
    142  OE2      -19.4370   -4.9300   -1.3630 O.co2 265  GLU265     -0.2457
    143  N        -16.5810   -0.0120   -1.5540 N.3   285  ASP285     -0.1239
    144  CA       -17.9970   -0.1710   -1.8860 C.3   285  ASP285      0.1674
    145  C        -18.6890    1.1850   -2.0060 C.2   285  ASP285      0.2266
    146  O        -18.3170    2.1440   -1.3280 O.2   285  ASP285     -0.2867
    147  CB       -18.6990   -1.0380   -0.8340 C.3   285  ASP285      0.1410
    148  CG       -19.9570   -1.7090   -1.3650 C.2   285  ASP285      0.3668
    149  OD1      -20.2040   -1.6410   -2.5930 O.co2 285  ASP285     -0.2456
    150  OD2      -20.6980   -2.3120   -0.5500 O.co2 285  ASP285     -0.2456
    151  N        -22.4670   -1.6770  -10.0520 N.3   331  GLU331     -0.1231
    152  CA       -23.5550   -2.0560   -9.1470 C.3   331  GLU331      0.1699
    153  C        -24.9050   -1.5000   -9.5850 C.2   331  GLU331      0.2593
    154  O        -24.9740   -0.4850  -10.2810 O.2   331  GLU331     -0.2718
    155  CB       -23.2880   -1.5240   -7.7420 C.3   331  GLU331      0.0402
    156  CG       -22.3370   -2.3300   -6.8970 C.3   331  GLU331      0.1161
    157  CD       -22.3240   -1.8270   -5.4670 C.2   331  GLU331      0.3649
    158  OE1      -23.1620   -2.3000   -4.6610 O.co2 331  GLU331     -0.2457
    159  OE2      -21.4840   -0.9480   -5.1550 O.co2 331  GLU331     -0.2457
    160  N        -25.9740   -2.1560   -9.1400 N.am  332  GLY332     -0.1942
    161  CA       -27.3350   -1.6490   -9.3080 C.3   332  GLY332      0.2014
    162  C        -27.8320   -1.6340  -10.7380 C.2   332  GLY332      0.2639
    163  O        -28.6270   -0.7740  -11.1140 O.2   332  GLY332     -0.2714
    164  N        -27.3600   -2.5870  -11.5360 N.am  333  VAL333     -0.1963
    165  CA       -27.7490   -2.6710  -12.9430 C.3   333  VAL333      0.1727
    166  C        -29.1350   -3.2970  -13.0390 C.2   333  VAL333      0.2616
    167  O        -29.3200   -4.4780  -12.7400 O.2   333  VAL333     -0.2715
    168  CB       -26.7300   -3.4670  -13.7910 C.3   333  VAL333      0.0290
    169  CG1      -27.0520   -3.3250  -15.2720 C.3   333  VAL333      0.0023
    170  CG2      -25.3100   -2.9900  -13.5120 C.3   333  VAL333      0.0023
    171  N        -30.1020   -2.4810  -13.4420 N.am  334  GLU334     -0.1977
    172  CA       -31.4980   -2.8860  -13.4650 C.3   334  GLU334      0.1602
    173  C        -32.0170   -3.1350  -14.8770 C.2   334  GLU334      0.2287
    174  O        -32.9170   -3.9560  -15.0710 O.2   334  GLU334     -0.2864
    175  CB       -32.3650   -1.8330  -12.7710 C.3   334  GLU334      0.0415
    176  CG       -32.1710   -1.7450  -11.2600 C.3   334  GLU334      0.1163
    177  CD       -32.9300   -0.5840  -10.6320 C.2   334  GLU334      0.3649
    178  OE1      -33.4530    0.2750  -11.3750 O.co2 334  GLU334     -0.2457
    179  OE2      -32.9980   -0.5240   -9.3880 O.co2 334  GLU334     -0.2457
    180  N        -23.3730   -6.3280  -11.3290 N.3   351  GLN351     -0.1230
    181  CA       -24.2120   -6.7480  -10.2250 C.3   351  GLN351      0.1701
    182  C        -25.5300   -6.0000  -10.2930 C.2   351  GLN351      0.2632
    183  O        -25.5500   -4.7800  -10.4440 O.2   351  GLN351     -0.2714
    184  CB       -23.5180   -6.4780   -8.8910 C.3   351  GLN351      0.0381
    185  CG       -24.2630   -7.0150   -7.6800 C.3   351  GLN351      0.0905
    186  CD       -23.5070   -6.7950   -6.3870 C.2   351  GLN351      0.2608
    187  OE1      -22.3210   -6.4700   -6.3950 O.2   351  GLN351     -0.2717
    188  NE2      -24.1940   -6.9710   -5.2660 N.am  351  GLN351     -0.0878
    189  N        -26.6310   -6.7340  -10.1950 N.am  352  GLY352     -0.1718
    190  CA       -27.9380   -6.1040  -10.1880 C.2   352  GLY352      0.1480
    191  C        -29.1240   -7.0220  -10.3900 C.2   352  GLY352      0.2820
    192  O        -28.9740   -8.2160  -10.6700 O.2   352  GLY352     -0.2669
    193  N        -30.3100   -6.4360  -10.2610 N.am  353  PHE353     -0.1939
    194  CA       -31.5710   -7.1620  -10.3650 C.3   353  PHE353      0.1642
    195  C        -31.8160   -7.6900  -11.7760 C.2   353  PHE353      0.2290
    196  O        -32.5240   -8.6810  -11.9550 O.2   353  PHE353     -0.2864
    197  CB       -32.7420   -6.2770   -9.9190 C.3   353  PHE353      0.0560
    198  CG       -32.7520   -5.9540   -8.4390 C.ar  353  PHE353     -0.0200
    199  CD1      -32.0180   -6.7150   -7.5250 C.ar  353  PHE353     -0.0042
    200  CD2      -33.5330   -4.9090   -7.9570 C.ar  353  PHE353     -0.0042
    201  CE1      -32.0420   -6.4160   -6.1650 C.ar  353  PHE353     -0.0003
    202  CE2      -33.5680   -4.6090   -6.5960 C.ar  353  PHE353     -0.0003
    203  CZ       -32.8220   -5.3670   -5.6990 C.ar  353  PHE353     -0.0000
    204  N        -30.8300  -11.0050   -4.9790 N.3   358  PRO358     -0.2116
    205  CA       -30.3140  -11.6070   -3.7450 C.3   358  PRO358      0.1372
    206  C        -31.2060  -12.7430   -3.2580 C.2   358  PRO358      0.2244
    207  O        -32.4310  -12.6070   -3.2360 O.2   358  PRO358     -0.2868
    208  CB       -30.3470  -10.4470   -2.7450 C.3   358  PRO358      0.0268
    209  CG       -30.2470   -9.2320   -3.5800 C.3   358  PRO358      0.0207
    210  CD       -30.9890   -9.5460   -4.8430 C.3   358  PRO358      0.0892
@<TRIPOS>BOND
     1   169   168    1
     2   174   173    2
     3   173   172    1
     4   168   170    1
     5   168   165    1
     6   172   171    1
     7   172   175    1
     8   171   166   am
     9   166   165    1
    10   166   167    2
    11   165   164    1
    12   175   176    1
    13   196   195    2
    14   195   194    1
    15   164   162   am
    16   178   177   ar
    17   180   181    1
    18   176   177    1
    19   163   162    2
    20   162   161    1
    21   192   191    2
    22   177   179   ar
    23   183   182    2
    24   191   193   am
    25   191   190    1
    26   194   193    1
    27   194   197    1
    28   182   181    1
    29   182   189    1
    30   154   153    2
    31   181   184    1
    32   189   190    2
    33   151   152    1
    34   197   198    1
    35   153   152    1
    36   153   160   am
    37   161   160    1
    38   152   155    1
    39   184   185    1
    40   198   200   ar
    41   198   199   ar
    42   200   202   ar
    43   155   156    1
    44   185   186    1
    45   199   201   ar
    46    20    18   am
    47   156   157    1
    48   202   203   ar
    49   187   186    2
    50   186   188   am
    51    17    18    1
    52    17    16    1
    53    18    19    2
    54   201   203   ar
    55    14    15    2
    56    14    13    1
    57   157   159   ar
    58   157   158   ar
    59   204   210    1
    60   204   205    1
    61    13    16    1
    62    13    12    1
    63   210   209    1
    64   205   206    1
    65   205   208    1
    66   209   208    1
    67    21    22    1
    68   206   207    2
    69    28    27   ar
    70   141   140   ar
    71    25    22    1
    72    25    26    1
    73   149   148   ar
    74    22    23    1
    75   145   144    1
    76   145   146    2
    77    27    26    1
    78    27    29   ar
    79   144   143    1
    80   144   147    1
    81   140   142   ar
    82   140   139    1
    83    24    23    2
    84   148   147    1
    85   148   150   ar
    86    23    30   am
    87    41    40    1
    88   139   138    1
    89    40    42    1
    90    40    39    1
    91    30    31    1
    92   138   135    1
    93    61    59    1
    94    31    32    1
    95    31    34    1
    96   135   134    1
    97   135   136    1
    98   116   115    2
    99    39    36    1
   100    32    35   am
   101    32    33    2
   102    35    36    1
   103   117   115   am
   104    59    58    2
   105    59    60    1
   106   115   114    1
   107   136   137    2
   108    36    37    1
   109    58    57    1
   110     4     3    2
   111     3     2    1
   112   110   111    1
   113    38    37    2
   114   114   111    1
   115    37    43   am
   116   111   112    1
   117    57    56    1
   118    56    55    1
   119     5     2    1
   120     5     6    1
   121     2     1    1
   122    43    44    1
   123    74    73    1
   124    74    68    1
   125    73    72    1
   126     8     6   ar
   127     8    10   ar
   128   112   118   am
   129   112   113    2
   130    66    63    1
   131    66    67    1
   132    46    45    2
   133     6     7   ar
   134   118   119    1
   135    63    62    1
   136    63    64    1
   137    55    52    1
   138    44    45    1
   139    44    47    1
   140    10    11   ar
   141    45    51   am
   142    72    69    1
   143    68    64   am
   144    68    69    1
   145   121   120    2
   146    64    65    2
   147    51    52    1
   148     7     9   ar
   149    52    53    1
   150   119   120    1
   151   119   122    1
   152    69    70    1
   153    81    79    1
   154    47    49    1
   155    47    48    1
   156    11     9   ar
   157   120   126   am
   158   108   107    1
   159   108   109    1
   160   122   123    1
   161   107   106    1
   162    75    70   am
   163    75    76    1
   164   123   124    1
   165   123   125    1
   166    79    76    1
   167    79    80    1
   168    70    71    2
   169   104   103    2
   170    53    54    2
   171    48    50    1
   172   126   127    1
   173   106   105    1
   174    76    77    1
   175   105   102    1
   176   127   128    1
   177   127   130    1
   178   102   103    1
   179   102   101    1
   180   133   131    1
   181   128   129    2
   182    99    98   ar
   183    77    78    2
   184   131   130    1
   185   131   132    1
   186   100    98   ar
   187    91    89   ar
   188    91    92   ar
   189    98    97    1
   190    89    87   ar
   191    96    95    2
   192    92    90   ar
   193    87    86    1
   194    87    88   ar
   195    97    94    1
   196    95    94    1
   197    82    83    1
   198    90    88   ar
   199    86    83    1
   200    94    93    1
   201    83    84    1
   202    84    85    2
