@<TRIPOS>MOLECULE
tmp/3gfyA01.pdb
 151 141 0 0 0
SMALL
GASTEIGER

@<TRIPOS>ATOM
      1  N        -26.8210   18.1110  -26.2710 N.3     7  TYR7       -0.1241
      2  CA       -26.9390   16.6610  -26.3550 C.3     7  TYR7        0.1605
      3  C        -26.3170   16.1130  -27.6300 C.2     7  TYR7        0.2264
      4  O        -26.1890   16.8220  -28.6260 O.2     7  TYR7       -0.2867
      5  CB       -28.4080   16.2130  -26.2480 C.3     7  TYR7        0.0534
      6  CG       -29.2500   16.4670  -27.4820 C.ar    7  TYR7       -0.0201
      7  CD1      -29.2470   15.5700  -28.5540 C.ar    7  TYR7       -0.0009
      8  CD2      -30.0640   17.5920  -27.5720 C.ar    7  TYR7       -0.0009
      9  CE1      -30.0160   15.7960  -29.6850 C.ar    7  TYR7        0.0417
     10  CE2      -30.8480   17.8220  -28.6940 C.ar    7  TYR7        0.0417
     11  CZ       -30.8140   16.9220  -29.7500 C.ar    7  TYR7        0.1957
     12  OH       -31.5740   17.1420  -30.8730 O.3     7  TYR7       -0.2866
     13  N        -36.1350   19.7990  -41.6370 N.3    23  LEU23      -0.1245
     14  CA       -36.1140   19.7870  -40.1730 C.3    23  LEU23       0.1561
     15  C        -35.5620   21.0870  -39.5950 C.2    23  LEU23       0.2260
     16  O        -36.2160   21.7250  -38.7730 O.2    23  LEU23      -0.2867
     17  CB       -35.3070   18.5870  -39.6610 C.3    23  LEU23       0.0270
     18  CG       -35.2510   18.2950  -38.1560 C.3    23  LEU23       0.0019
     19  CD1      -35.2230   16.8000  -37.9230 C.3    23  LEU23       0.0001
     20  CD2      -34.0630   18.9620  -37.4650 C.3    23  LEU23       0.0001
     21  N        -37.6550   24.2050  -40.3710 N.3    26  ARG26      -0.1231
     22  CA       -38.8250   24.1290  -39.4960 C.3    26  ARG26       0.1694
     23  C        -38.4260   24.4340  -38.0560 C.2    26  ARG26       0.2591
     24  O        -39.1420   25.1450  -37.3450 O.2    26  ARG26      -0.2718
     25  CB       -39.4900   22.7510  -39.5830 C.3    26  ARG26       0.0321
     26  CG       -40.9190   22.7100  -39.0530 C.3    26  ARG26       0.0489
     27  CD       -41.5240   21.3120  -39.1450 C.3    26  ARG26       0.2205
     28  NE       -42.9660   21.3330  -38.8960 N.pl3  26  ARG26      -0.0865
     29  CZ       -43.8980   21.2990  -39.8480 C.cat  26  ARG26       0.5346
     30  NH1      -43.5470   21.2310  -41.1270 N.pl3  26  ARG26       0.1354
     31  NH2      -45.1840   21.3280  -39.5210 N.pl3  26  ARG26       0.1354
     32  N        -37.2760   23.9030  -37.6430 N.am   27  ALA27      -0.1980
     33  CA       -36.7510   24.1190  -36.2990 C.3    27  ALA27       0.1597
     34  C        -36.4460   25.5870  -36.0560 C.2    27  ALA27       0.2287
     35  O        -36.8540   26.1430  -35.0420 O.2    27  ALA27      -0.2864
     36  CB       -35.5080   23.2740  -36.0650 C.3    27  ALA27       0.0319
     37  N        -39.5680   27.7140  -35.7460 N.3    30  LYS30      -0.1231
     38  CA       -40.3050   27.4700  -34.5120 C.3    30  LYS30       0.1693
     39  C        -39.5310   27.9870  -33.2930 C.2    30  LYS30       0.2592
     40  O        -40.1300   28.5180  -32.3570 O.2    30  LYS30      -0.2718
     41  CB       -40.6080   25.9770  -34.3700 C.3    30  LYS30       0.0285
     42  CG       -41.6990   25.6290  -33.3680 C.3    30  LYS30       0.0035
     43  CD       -41.8830   24.1210  -33.2780 C.3    30  LYS30       0.0206
     44  CE       -42.7480   23.7260  -32.0880 C.3    30  LYS30       0.1093
     45  NZ       -42.4490   22.3360  -31.6270 N.3    30  LYS30      -0.1314
     46  N        -38.2060   27.8440  -33.3260 N.am   31  ASN31      -0.1974
     47  CA       -37.3300   28.1990  -32.2020 C.3    31  ASN31       0.1688
     48  C        -37.2540   29.6850  -31.8750 C.2    31  ASN31       0.2292
     49  O        -37.3870   30.0730  -30.7150 O.2    31  ASN31      -0.2864
     50  CB       -35.9070   27.6740  -32.4370 C.3    31  ASN31       0.1181
     51  CG       -35.7690   26.1900  -32.1540 C.2    31  ASN31       0.2629
     52  OD1      -36.7160   25.5320  -31.7260 O.2    31  ASN31      -0.2716
     53  ND2      -34.5790   25.6540  -32.4000 N.am   31  ASN31      -0.0877
     54  N        -26.9290   22.7830  -34.8400 N.3    40  LEU40      -0.1245
     55  CA       -26.9130   21.3420  -34.9870 C.3    40  LEU40       0.1561
     56  C        -25.6770   20.9360  -35.7840 C.2    40  LEU40       0.2260
     57  O        -25.4040   21.4950  -36.8460 O.2    40  LEU40      -0.2867
     58  CB       -28.1910   20.8620  -35.6850 C.3    40  LEU40       0.0270
     59  CG       -28.3800   19.3590  -35.9240 C.3    40  LEU40       0.0019
     60  CD1      -28.5210   18.6000  -34.6140 C.3    40  LEU40       0.0001
     61  CD2      -29.5920   19.1140  -36.8100 C.3    40  LEU40       0.0001
     62  N        -25.8400   13.3090  -34.4100 N.3    47  PHE47      -0.1241
     63  CA       -26.2250   14.7030  -34.2150 C.3    47  PHE47       0.1605
     64  C        -25.5930   15.2570  -32.9450 C.2    47  PHE47       0.2264
     65  O        -25.3190   14.5220  -31.9970 O.2    47  PHE47      -0.2867
     66  CB       -27.7420   14.8590  -34.1080 C.3    47  PHE47       0.0534
     67  CG       -28.4850   14.4270  -35.3270 C.ar   47  PHE47      -0.0203
     68  CD1      -28.4290   15.1780  -36.4930 C.ar   47  PHE47      -0.0042
     69  CD2      -29.2560   13.2730  -35.3090 C.ar   47  PHE47      -0.0042
     70  CE1      -29.1190   14.7820  -37.6210 C.ar   47  PHE47      -0.0003
     71  CE2      -29.9500   12.8690  -36.4340 C.ar   47  PHE47      -0.0003
     72  CZ       -29.8800   13.6240  -37.5940 C.ar   47  PHE47      -0.0000
     73  N        -26.4290   18.8570  -30.7590 N.3    49  GLN49      -0.1245
     74  CA       -27.2450   20.0590  -30.7520 C.3    49  GLN49       0.1566
     75  C        -27.0400   20.8980  -29.5060 C.2    49  GLN49       0.2260
     76  O        -27.0220   20.3820  -28.3930 O.2    49  GLN49      -0.2867
     77  CB       -28.7270   19.7170  -30.9350 C.3    49  GLN49       0.0367
     78  CG       -29.6050   20.9300  -31.2130 C.3    49  GLN49       0.0905
     79  CD       -30.9830   20.5620  -31.7210 C.2    49  GLN49       0.2608
     80  OE1      -31.6910   19.7520  -31.1210 O.2    49  GLN49      -0.2717
     81  NE2      -31.3760   21.1690  -32.8280 N.am   49  GLN49      -0.0878
     82  N        -28.8600   23.9730  -27.5410 N.3    51  LEU51      -0.1245
     83  CA       -30.0930   24.7510  -27.4190 C.3    51  LEU51       0.1561
     84  C        -29.9450   25.8050  -26.3330 C.2    51  LEU51       0.2260
     85  O        -29.4420   25.5200  -25.2510 O.2    51  LEU51      -0.2867
     86  CB       -31.2890   23.8440  -27.1020 C.3    51  LEU51       0.0270
     87  CG       -31.7830   22.9050  -28.2060 C.3    51  LEU51       0.0019
     88  CD1      -32.6930   21.8330  -27.6360 C.3    51  LEU51       0.0001
     89  CD2      -32.4870   23.6790  -29.3150 C.3    51  LEU51       0.0001
     90  N        -39.2660   21.5870  -25.2780 N.3    61  LEU61      -0.1245
     91  CA       -38.7350   21.2520  -26.5940 C.3    61  LEU61       0.1561
     92  C        -37.9240   19.9520  -26.5780 C.2    61  LEU61       0.2260
     93  O        -38.1450   19.0680  -27.4100 O.2    61  LEU61      -0.2867
     94  CB       -37.9020   22.4090  -27.1560 C.3    61  LEU61       0.0270
     95  CG       -37.0770   22.1290  -28.4150 C.3    61  LEU61       0.0019
     96  CD1      -37.9710   21.7920  -29.6050 C.3    61  LEU61       0.0001
     97  CD2      -36.1700   23.3050  -28.7320 C.3    61  LEU61       0.0001
     98  N        -39.9760   16.8910  -26.6880 N.3    64  GLU64      -0.1231
     99  CA       -40.4120   16.5440  -28.0460 C.3    64  GLU64       0.1699
    100  C        -39.2740   15.8940  -28.8390 C.2    64  GLU64       0.2592
    101  O        -39.5050   14.9790  -29.6330 O.2    64  GLU64      -0.2718
    102  CB       -40.9250   17.7830  -28.7960 C.3    64  GLU64       0.0402
    103  CG       -42.4130   18.1000  -28.6070 C.3    64  GLU64       0.1161
    104  CD       -42.8480   19.3800  -29.3320 C.2    64  GLU64       0.3649
    105  OE1      -42.2100   20.4390  -29.1290 O.co2  64  GLU64      -0.2457
    106  OE2      -43.8360   19.3330  -30.1000 O.co2  64  GLU64      -0.2457
    107  N        -38.0520   16.3780  -28.6130 N.am   65  ILE65      -0.1980
    108  CA       -36.8510   15.8810  -29.2890 C.3    65  ILE65       0.1595
    109  C        -36.4720   14.4620  -28.8460 C.2    65  ILE65       0.2287
    110  O        -36.0730   13.6320  -29.6680 O.2    65  ILE65      -0.2864
    111  CB       -35.6600   16.8600  -29.0990 C.3    65  ILE65       0.0276
    112  CG1      -35.7940   18.0460  -30.0600 C.3    65  ILE65       0.0022
    113  CG2      -34.3220   16.1580  -29.3100 C.3    65  ILE65       0.0022
    114  CD1      -34.8790   19.2210  -29.7460 C.3    65  ILE65       0.0001
    115  N        -38.6340   11.8750  -30.5360 N.3    68  ASP68      -0.1239
    116  CA       -38.5990   11.9360  -31.9940 C.3    68  ASP68       0.1674
    117  C        -37.9680   10.6640  -32.5760 C.2    68  ASP68       0.2266
    118  O        -36.8250   10.3350  -32.2600 O.2    68  ASP68      -0.2867
    119  CB       -37.8300   13.1780  -32.4530 C.3    68  ASP68       0.1410
    120  CG       -38.1180   13.5530  -33.8940 C.2    68  ASP68       0.3668
    121  OD1      -38.0280   12.6800  -34.7760 O.co2  68  ASP68      -0.2456
    122  OD2      -38.4210   14.7370  -34.1520 O.co2  68  ASP68      -0.2456
    123  N        -36.8960   10.0820  -35.5640 N.3    70  ARG70      -0.1231
    124  CA       -35.8900   10.3330  -36.6080 C.3    70  ARG70       0.1694
    125  C        -34.4680   10.0960  -36.1070 C.2    70  ARG70       0.2592
    126  O        -33.5390    9.9330  -36.9020 O.2    70  ARG70      -0.2718
    127  CB       -35.9660   11.7660  -37.1250 C.3    70  ARG70       0.0321
    128  CG       -37.2540   12.1960  -37.7990 C.3    70  ARG70       0.0489
    129  CD       -37.1460   13.6910  -37.9890 C.3    70  ARG70       0.2205
    130  NE       -38.3230   14.3440  -38.5430 N.pl3  70  ARG70      -0.0865
    131  CZ       -38.9530   15.3570  -37.9580 C.cat  70  ARG70       0.5346
    132  NH1      -38.5300   15.8240  -36.7920 N.pl3  70  ARG70       0.1354
    133  NH2      -40.0140   15.9010  -38.5390 N.pl3  70  ARG70       0.1354
    134  N        -34.2930   10.1190  -34.7920 N.am   71  HIS71      -0.1976
    135  CA       -33.0080    9.7870  -34.1960 C.3    71  HIS71       0.1656
    136  C        -33.1880    8.9080  -32.9610 C.2    71  HIS71       0.2291
    137  O        -34.3120    8.6840  -32.5150 O.2    71  HIS71      -0.2864
    138  CB       -32.1750   11.0540  -33.9210 C.3    71  HIS71       0.0771
    139  CG       -32.7300   11.9500  -32.8540 C.ar   71  HIS71       0.0820
    140  ND1      -32.0190   13.0160  -32.3470 N.ar   71  HIS71      -0.2267
    141  CD2      -33.9110   11.9410  -32.1910 C.ar   71  HIS71       0.1154
    142  CE1      -32.7390   13.6290  -31.4260 C.ar   71  HIS71       0.1986
    143  NE2      -33.8910   12.9950  -31.3110 N.ar   71  HIS71      -0.2212
    144  N        -32.1770   27.9270  -35.5380 N.3    92  MET92      -0.1245
    145  CA       -31.4660   26.6640  -35.6360 C.3    92  MET92       0.1570
    146  C        -30.7040   26.6490  -36.9470 C.2    92  MET92       0.2261
    147  O        -31.1550   27.2240  -37.9390 O.2    92  MET92      -0.2867
    148  CB       -32.4280   25.4720  -35.5560 C.3    92  MET92       0.0387
    149  CG       -31.7490   24.1080  -35.3750 C.3    92  MET92       0.0595
    150  SD       -30.3510   24.0940  -34.2180 S.3    92  MET92      -0.1393
    151  CE       -31.1290   24.5490  -32.6700 C.3    92  MET92       0.0692
@<TRIPOS>BOND
     1    13    14    1
     2    30    29    1
     3    21    22    1
     4    14    17    1
     5    14    15    1
     6    29    31    1
     7    29    28    2
     8    17    18    1
     9    15    16    2
    10    25    22    1
    11    25    26    1
    12    22    23    1
    13    27    26    1
    14    27    28    1
    15   130   129    1
    16   130   131    2
    17   133   131    1
    18    18    19    1
    19    18    20    1
    20    23    32   am
    21    23    24    2
    22   129   128    1
    23   131   132    1
    24   147   146    2
    25   128   127    1
    26    32    33    1
    27    70    72   ar
    28    70    68   ar
    29    72    71   ar
    30   127   124    1
    31   146   145    1
    32   126   125    2
    33    57    56    2
    34    61    59    1
    35   124   125    1
    36   124   123    1
    37    68    67   ar
    38    71    69   ar
    39    33    36    1
    40    33    34    1
    41   125   134   am
    42    34    35    2
    43    59    58    1
    44    59    60    1
    45    56    55    1
    46    37    38    1
    47    58    55    1
    48   145   148    1
    49   145   144    1
    50   148   149    1
    51   149   150    1
    52    67    69   ar
    53    67    66    1
    54    55    54    1
    55   134   135    1
    56   121   120   ar
    57    38    41    1
    58    38    39    1
    59    62    63    1
    60    41    42    1
    61   150   151    1
    62    63    66    1
    63    63    64    1
    64   135   138    1
    65   135   136    1
    66   122   120   ar
    67   138   139    1
    68   120   119    1
    69    42    43    1
    70    46    39   am
    71    46    47    1
    72    39    40    2
    73    43    44    1
    74   136   137    2
    75    64    65    2
    76   139   140   ar
    77   139   141   ar
    78    81    79   am
    79   117   118    2
    80   117   116    1
    81   119   116    1
    82    50    47    1
    83    50    51    1
    84    53    51   am
    85   140   142   ar
    86    47    48    1
    87   141   143   ar
    88    51    52    2
    89    44    45    1
    90   116   115    1
    91    48    49    2
    92    79    78    1
    93    79    80    2
    94   142   143   ar
    95    78    77    1
    96    77    74    1
    97    12    11    1
    98    73    74    1
    99    74    75    1
   100   106   104   ar
   101   112   114    1
   102   112   111    1
   103    11     9   ar
   104    11    10   ar
   105     9     7   ar
   106   110   109    2
   107   101   100    2
   108    96    95    1
   109    75    76    2
   110   104   105   ar
   111   104   103    1
   112    89    87    1
   113   113   111    1
   114   108   111    1
   115   108   109    1
   116   108   107    1
   117   100   107   am
   118   100    99    1
   119   102   103    1
   120   102    99    1
   121    97    95    1
   122    10     8   ar
   123     4     3    2
   124     7     6   ar
   125    95    94    1
   126    87    88    1
   127    87    86    1
   128    99    98    1
   129     3     2    1
   130     8     6   ar
   131    82    83    1
   132     6     5    1
   133    83    86    1
   134    83    84    1
   135    93    92    2
   136    94    91    1
   137    91    92    1
   138    91    90    1
   139     2     1    1
   140     2     5    1
   141    84    85    2
