@<TRIPOS>MOLECULE
tmp/3gg2A00.pdb
 217 206 0 0 0
SMALL
GASTEIGER

@<TRIPOS>ATOM
      1  N         29.6200   54.5250   96.4920 N.3    12  VAL12      -0.1245
      2  CA        28.8130   53.7990   95.5390 C.3    12  VAL12       0.1561
      3  C         27.6170   53.1060   96.2020 C.2    12  VAL12       0.2260
      4  O         26.4630   53.3470   95.7960 O.2    12  VAL12      -0.2867
      5  CB        29.6490   52.8380   94.6690 C.3    12  VAL12       0.0252
      6  CG1       28.7350   52.0600   93.7290 C.3    12  VAL12       0.0019
      7  CG2       30.6980   53.6620   93.8420 C.3    12  VAL12       0.0019
      8  N         33.6350   47.7420   90.9010 N.3   122  THR122     -0.1218
      9  CA        34.5160   47.7260   89.7440 C.3   122  THR122      0.1862
     10  C         35.3380   46.4760   89.7740 C.2   122  THR122      0.2287
     11  O         36.1820   46.2870   90.6440 O.2   122  THR122     -0.2866
     12  CB        35.3870   48.9860   89.6540 C.3   122  THR122      0.1770
     13  OG1       34.5200   50.1290   89.6320 O.3   122  THR122     -0.2211
     14  CG2       36.2430   48.9410   88.3950 C.3   122  THR122      0.0375
     15  N         29.3000   51.5050   88.0970 N.3   155  GLU155     -0.1231
     16  CA        28.8510   52.8290   88.5020 C.3   155  GLU155      0.1699
     17  C         29.7820   53.8820   87.9350 C.2   155  GLU155      0.2592
     18  O         30.9860   53.6700   87.8880 O.2   155  GLU155     -0.2718
     19  CB        28.8220   52.8950   90.0180 C.3   155  GLU155      0.0402
     20  CG        28.1230   54.1400   90.6120 C.3   155  GLU155      0.1161
     21  CD        26.9070   54.6620   89.7870 C.2   155  GLU155      0.3649
     22  OE1       25.8870   53.9610   89.6350 O.co2 155  GLU155     -0.2457
     23  OE2       26.9760   55.8250   89.3020 O.co2 155  GLU155     -0.2457
     24  N         29.2350   55.0350   87.5570 N.am  156  PHE156     -0.1962
     25  CA        30.1010   56.0870   86.9840 C.3   156  PHE156      0.1771
     26  C         30.0450   57.4190   87.7260 C.2   156  PHE156      0.2619
     27  O         30.6020   58.4260   87.2380 O.2   156  PHE156     -0.2715
     28  CB        29.7520   56.2950   85.4990 C.3   156  PHE156      0.0574
     29  CG        29.8310   55.0440   84.6920 C.ar  156  PHE156     -0.0200
     30  CD1       31.0510   54.5030   84.3430 C.ar  156  PHE156     -0.0042
     31  CD2       28.6540   54.4110   84.2730 C.ar  156  PHE156     -0.0042
     32  CE1       31.0990   53.3380   83.5690 C.ar  156  PHE156     -0.0003
     33  CE2       28.7040   53.2660   83.5220 C.ar  156  PHE156     -0.0003
     34  CZ        29.9140   52.7280   83.1750 C.ar  156  PHE156     -0.0000
     35  N         29.4200   57.4390   88.9020 N.am  157  LEU157     -0.1963
     36  CA        29.3350   58.7150   89.6600 C.3   157  LEU157      0.1728
     37  C         30.7030   59.1330   90.2050 C.2   157  LEU157      0.2616
     38  O         31.5850   58.2750   90.4730 O.2   157  LEU157     -0.2715
     39  CB        28.2990   58.6540   90.7840 C.3   157  LEU157      0.0311
     40  CG        28.5550   57.6040   91.8500 C.3   157  LEU157      0.0022
     41  CD1       29.5120   58.1530   92.9080 C.3   157  LEU157      0.0001
     42  CD2       27.2470   57.1540   92.5120 C.3   157  LEU157      0.0001
     43  N         30.8900   60.4520   90.3650 N.am  158  LYS158     -0.1963
     44  CA        32.1700   60.9520   90.9630 C.3   158  LYS158      0.1728
     45  C         31.8740   61.4140   92.3770 C.2   158  LYS158      0.2616
     46  O         30.7680   61.9170   92.6760 O.2   158  LYS158     -0.2715
     47  CB        32.7100   62.1960   90.2550 C.3   158  LYS158      0.0311
     48  CG        32.3850   62.4640   88.8140 C.3   158  LYS158      0.0038
     49  CD        32.4790   64.0180   88.6300 C.3   158  LYS158      0.0206
     50  CE        31.8270   64.4680   87.3720 C.3   158  LYS158      0.1093
     51  NZ        30.4250   63.9920   87.3430 N.3   158  LYS158     -0.1314
     52  N         32.8740   61.3370   93.2450 N.am  159  GLU159     -0.1977
     53  CA        32.7180   61.9010   94.5780 C.3   159  GLU159      0.1602
     54  C         32.4680   63.3960   94.4830 C.2   159  GLU159      0.2287
     55  O         33.0900   64.0690   93.6640 O.2   159  GLU159     -0.2864
     56  CB        33.9930   61.6950   95.3960 C.3   159  GLU159      0.0415
     57  CG        34.2020   60.2970   95.8570 C.3   159  GLU159      0.1163
     58  CD        35.2900   60.1910   96.9440 C.2   159  GLU159      0.3649
     59  OE1       35.4580   61.1160   97.7440 O.co2 159  GLU159     -0.2457
     60  OE2       35.9610   59.1620   96.9970 O.co2 159  GLU159     -0.2457
     61  N         33.7300   49.8590   82.3340 N.3   211  LYS211     -0.1245
     62  CA        34.0830   50.6610   83.5100 C.3   211  LYS211      0.1561
     63  C         35.6130   50.9830   83.5180 C.2   211  LYS211      0.2260
     64  O         36.0360   52.1260   83.7720 O.2   211  LYS211     -0.2867
     65  CB        33.6370   49.9420   84.8110 C.3   211  LYS211      0.0271
     66  CG        34.0330   50.5700   86.1220 C.3   211  LYS211      0.0035
     67  CD        33.6510   52.0790   86.1620 C.3   211  LYS211      0.0206
     68  CE        34.0830   52.6840   87.4760 C.3   211  LYS211      0.1093
     69  NZ        33.7040   54.0840   87.4630 N.3   211  LYS211     -0.1314
     70  N         37.3090   54.9110   82.9960 N.3   215  ASN215     -0.1240
     71  CA        38.1840   55.5510   83.9550 C.3   215  ASN215      0.1653
     72  C         39.5710   55.7280   83.3470 C.2   215  ASN215      0.2266
     73  O         40.1580   56.7550   83.5130 O.2   215  ASN215     -0.2867
     74  CB        38.2610   54.7340   85.2420 C.3   215  ASN215      0.1155
     75  CG        37.1450   55.0810   86.2330 C.2   215  ASN215      0.2627
     76  OD1       36.1730   55.7590   85.8840 O.2   215  ASN215     -0.2716
     77  ND2       37.2990   54.6340   87.4920 N.am  215  ASN215     -0.0877
     78  N         39.5660   58.7970   80.9740 N.3   218  LEU218     -0.1245
     79  CA        39.5250   60.0480   81.7440 C.3   218  LEU218      0.1561
     80  C         40.9030   60.3940   82.2900 C.2   218  LEU218      0.2260
     81  O         41.3920   61.5130   82.1280 O.2   218  LEU218     -0.2867
     82  CB        38.5070   59.9280   82.8550 C.3   218  LEU218      0.0270
     83  CG        37.0550   59.8230   82.3600 C.3   218  LEU218      0.0019
     84  CD1       36.1540   59.4540   83.5240 C.3   218  LEU218      0.0001
     85  CD2       36.5180   61.1010   81.6490 C.3   218  LEU218      0.0001
     86  N         43.6440   63.5730   81.1890 N.3   222  ILE222     -0.1245
     87  CA        44.2740   64.4360   82.1870 C.3   222  ILE222      0.1561
     88  C         45.7990   64.3840   81.9800 C.2   222  ILE222      0.2260
     89  O         46.4500   65.4160   81.9370 O.2   222  ILE222     -0.2867
     90  CB        43.8690   64.0500   83.6360 C.3   222  ILE222      0.0252
     91  CG1       42.3590   64.3080   83.8500 C.3   222  ILE222      0.0019
     92  CG2       44.6390   64.8580   84.6610 C.3   222  ILE222      0.0019
     93  CD1       41.7680   63.6520   85.1340 C.3   222  ILE222      0.0001
     94  N         48.2620   67.3800   80.9290 N.3   226  ASN226     -0.1240
     95  CA        49.4650   67.6780   81.7380 C.3   226  ASN226      0.1653
     96  C         50.8050   67.7810   80.9680 C.2   226  ASN226      0.2266
     97  O         51.5680   68.7290   81.1880 O.2   226  ASN226     -0.2867
     98  CB        49.5370   66.7650   82.9770 C.3   226  ASN226      0.1155
     99  CG        48.5520   67.2530   84.0830 C.2   226  ASN226      0.2627
    100  OD1       48.2850   68.4670   84.1800 O.2   226  ASN226     -0.2716
    101  ND2       48.0280   66.3330   84.8990 N.am  226  ASN226     -0.0877
    102  N         36.8540   67.5820   81.5170 N.3   256  PHE256     -0.1241
    103  CA        37.9950   66.7470   81.9390 C.3   256  PHE256      0.1605
    104  C         39.2310   66.9630   81.0360 C.2   256  PHE256      0.2264
    105  O         39.8330   66.0240   80.5560 O.2   256  PHE256     -0.2867
    106  CB        37.5800   65.2450   82.0480 C.3   256  PHE256      0.0534
    107  CG        37.1340   64.8440   83.4470 C.ar  256  PHE256     -0.0203
    108  CD1       35.9830   65.4070   84.0100 C.ar  256  PHE256     -0.0042
    109  CD2       37.8610   63.9060   84.2050 C.ar  256  PHE256     -0.0042
    110  CE1       35.5650   65.0800   85.2580 C.ar  256  PHE256     -0.0003
    111  CE2       37.4330   63.5800   85.5080 C.ar  256  PHE256     -0.0003
    112  CZ        36.2860   64.1630   86.0250 C.ar  256  PHE256     -0.0000
    113  N         41.3940   69.5590   82.2790 N.3   258  TYR258     -0.1241
    114  CA        42.0870   70.5330   83.1060 C.3   258  TYR258      0.1605
    115  C         43.4350   70.0670   83.5930 C.2   258  TYR258      0.2264
    116  O         43.5030   69.2070   84.4700 O.2   258  TYR258     -0.2867
    117  CB        41.2650   70.9240   84.3280 C.3   258  TYR258      0.0534
    118  CG        39.9130   71.4850   84.1070 C.ar  258  TYR258     -0.0201
    119  CD1       39.7540   72.8280   83.7820 C.ar  258  TYR258     -0.0009
    120  CD2       38.7820   70.7110   84.3350 C.ar  258  TYR258     -0.0009
    121  CE1       38.4860   73.3780   83.6020 C.ar  258  TYR258      0.0417
    122  CE2       37.4910   71.2440   84.1550 C.ar  258  TYR258      0.0417
    123  CZ        37.3770   72.5940   83.8060 C.ar  258  TYR258      0.1957
    124  OH        36.1450   73.1850   83.6220 O.3   258  TYR258     -0.2866
    125  N         46.8780   70.3530   85.8250 N.3   260  GLY260     -0.1225
    126  CA        47.0580   70.7820   87.2140 C.3   260  GLY260      0.1811
    127  C         48.1620   69.9510   87.8330 C.2   260  GLY260      0.2280
    128  O         49.0860   69.4990   87.1310 O.2   260  GLY260     -0.2866
    129  N         47.9520   67.0550   89.0910 N.3   262  GLY262     -0.1210
    130  CA        47.7020   65.6200   88.9170 C.3   262  GLY262      0.1956
    131  C         46.2920   65.1860   89.3040 C.2   262  GLY262      0.2612
    132  O         45.5540   65.9040   89.9390 O.2   262  GLY262     -0.2717
    133  N         45.9410   63.9710   88.9350 N.am  263  TYR263     -0.1962
    134  CA        44.7410   63.3250   89.4890 C.3   263  TYR263      0.1771
    135  C         45.0870   62.4710   90.7000 C.2   263  TYR263      0.2620
    136  O         46.1380   61.8100   90.7570 O.2   263  TYR263     -0.2715
    137  CB        43.9820   62.4700   88.4450 C.3   263  TYR263      0.0574
    138  CG        44.7480   61.3090   87.7630 C.ar  263  TYR263     -0.0198
    139  CD1       44.8850   60.0720   88.3910 C.ar  263  TYR263     -0.0009
    140  CD2       45.2460   61.4570   86.4750 C.ar  263  TYR263     -0.0009
    141  CE1       45.5630   58.9980   87.7650 C.ar  263  TYR263      0.0417
    142  CE2       45.9660   60.3980   85.8220 C.ar  263  TYR263      0.0417
    143  CZ        46.1140   59.1930   86.4950 C.ar  263  TYR263      0.1957
    144  OH        46.7290   58.1700   85.8360 O.3   263  TYR263     -0.2866
    145  N         44.1990   62.5470   91.6750 N.am  264  GLY264     -0.1940
    146  CA        44.2260   61.6610   92.8070 C.3   264  GLY264      0.2014
    147  C         42.9290   60.9050   92.9150 C.2   264  GLY264      0.2639
    148  O         42.2030   60.7240   91.9160 O.2   264  GLY264     -0.2714
    149  N         42.6050   60.5060   94.1500 N.am  265  GLY265     -0.1954
    150  CA        41.4610   59.6640   94.3980 C.3   265  GLY265      0.1869
    151  C         41.9180   58.2190   94.3770 C.2   265  GLY265      0.2309
    152  O         42.9790   57.8820   93.8050 O.2   265  GLY265     -0.2863
    153  N         40.2880   55.8330   92.8140 N.3   267  CYS267     -0.1221
    154  CA        39.8530   55.1420   91.6100 C.3   267  CYS267      0.1808
    155  C         40.7180   55.1630   90.3610 C.2   267  CYS267      0.2601
    156  O         41.0670   54.1110   89.8570 O.2   267  CYS267     -0.2717
    157  CB        38.4010   55.4520   91.2830 C.3   267  CYS267      0.0970
    158  SG        37.4130   54.8450   92.6810 S.3   267  CYS267     -0.0800
    159  N         41.0640   56.3410   89.8410 N.am  268  PHE268     -0.1976
    160  CA        41.8680   56.3430   88.6430 C.3   268  PHE268      0.1639
    161  C         43.2040   55.5840   88.8650 C.2   268  PHE268      0.2290
    162  O         43.5510   54.7140   88.0730 O.2   268  PHE268     -0.2864
    163  CB        42.1540   57.7510   88.0620 C.3   268  PHE268      0.0560
    164  CG        40.9700   58.4540   87.4530 C.ar  268  PHE268     -0.0200
    165  CD1       39.7530   57.8020   87.2460 C.ar  268  PHE268     -0.0042
    166  CD2       41.0690   59.8280   87.1440 C.ar  268  PHE268     -0.0042
    167  CE1       38.6610   58.4690   86.6890 C.ar  268  PHE268     -0.0003
    168  CE2       39.9570   60.5410   86.5710 C.ar  268  PHE268     -0.0003
    169  CZ        38.7580   59.8660   86.3550 C.ar  268  PHE268     -0.0000
    170  N         42.3760   51.7020   89.2660 N.3   271  ASP271     -0.1239
    171  CA        41.7260   51.0820   88.1010 C.3   271  ASP271      0.1674
    172  C         42.6290   51.0170   86.8790 C.2   271  ASP271      0.2266
    173  O         42.5920   50.0240   86.1420 O.2   271  ASP271     -0.2867
    174  CB        40.3870   51.7340   87.7480 C.3   271  ASP271      0.1410
    175  CG        39.3450   51.5890   88.8510 C.2   271  ASP271      0.3668
    176  OD1       39.4500   50.6730   89.6930 O.co2 271  ASP271     -0.2456
    177  OD2       38.4010   52.4170   88.8800 O.co2 271  ASP271     -0.2456
    178  N         41.3870   65.1350   97.7010 N.3   327  PHE327     -0.1227
    179  CA        41.9030   64.8920   96.3410 C.3   327  PHE327      0.1736
    180  C         41.1900   65.7450   95.2620 C.2   327  PHE327      0.2595
    181  O         41.7390   65.9960   94.1830 O.2   327  PHE327     -0.2718
    182  CB        41.8780   63.3700   96.0130 C.3   327  PHE327      0.0547
    183  CG        40.5320   62.8260   95.5460 C.ar  327  PHE327     -0.0202
    184  CD1       40.1920   62.8070   94.1870 C.ar  327  PHE327     -0.0042
    185  CD2       39.6380   62.2750   96.4620 C.ar  327  PHE327     -0.0042
    186  CE1       38.9820   62.3010   93.7530 C.ar  327  PHE327     -0.0003
    187  CE2       38.4040   61.7750   96.0370 C.ar  327  PHE327     -0.0003
    188  CZ        38.0740   61.7970   94.6750 C.ar  327  PHE327     -0.0000
    189  N         39.9860   66.2040   95.6010 N.am  328  LYS328     -0.1980
    190  CA        39.1940   67.0970   94.7500 C.3   328  LYS328      0.1596
    191  C         38.2280   67.8350   95.6920 C.2   328  LYS328      0.2287
    192  O         38.0310   67.4550   96.8520 O.2   328  LYS328     -0.2864
    193  CB        38.3690   66.3550   93.6750 C.3   328  LYS328      0.0298
    194  CG        37.3390   65.3480   94.2900 C.3   328  LYS328      0.0038
    195  CD        36.4320   64.7250   93.1950 C.3   328  LYS328      0.0206
    196  CE        35.4700   65.7370   92.5520 C.3   328  LYS328      0.1093
    197  NZ        34.5980   65.0400   91.5190 N.3   328  LYS328     -0.1314
    198  N         40.6450   72.9840   94.3820 N.3   393  GLU393     -0.1245
    199  CA        39.9760   74.2250   94.0200 C.3   393  GLU393      0.1567
    200  C         38.5960   74.4030   94.6750 C.2   393  GLU393      0.2260
    201  O         37.5800   74.6860   94.0150 O.2   393  GLU393     -0.2867
    202  CB        39.9650   74.4080   92.4830 C.3   393  GLU393      0.0388
    203  CG        38.9690   73.5310   91.6640 C.3   393  GLU393      0.1160
    204  CD        39.3430   72.0400   91.5330 C.2   393  GLU393      0.3649
    205  OE1       40.4220   71.6110   91.9740 O.co2 393  GLU393     -0.2457
    206  OE2       38.5180   71.2930   90.9480 O.co2 393  GLU393     -0.2457
    207  N         45.9590   74.4070   90.3090 N.3   418  ARG418     -0.1245
    208  CA        44.7170   74.1470   89.5960 C.3   418  ARG418      0.1563
    209  C         44.3190   75.2530   88.5900 C.2   418  ARG418      0.2260
    210  O         43.2050   75.2250   88.0250 O.2   418  ARG418     -0.2867
    211  CB        43.5800   73.8750   90.5740 C.3   418  ARG418      0.0307
    212  CG        43.8040   72.6290   91.4500 C.3   418  ARG418      0.0489
    213  CD        43.7240   71.3680   90.6160 C.3   418  ARG418      0.2205
    214  NE        43.9850   70.1710   91.4180 N.pl3 418  ARG418     -0.0865
    215  CZ        44.2370   68.9640   90.9090 C.cat 418  ARG418      0.5346
    216  NH1       44.3010   68.7930   89.5950 N.pl3 418  ARG418      0.1354
    217  NH2       44.4470   67.9380   91.7140 N.pl3 418  ARG418      0.1354
@<TRIPOS>BOND
     1   105   104    2
     2    94    95    1
     3    96    97    2
     4    96    95    1
     5    78    79    1
     6   104   103    1
     7    86    87    1
     8   102   103    1
     9    85    83    1
    10    95    98    1
    11    79    80    1
    12    79    82    1
    13    89    88    2
    14   103   106    1
    15    88    87    1
    16   106   107    1
    17    81    80    2
    18    87    90    1
    19   113   114    1
    20    61    62    1
    21    83    82    1
    22    83    84    1
    23    98    99    1
    24    70    71    1
    25   114   115    1
    26   114   117    1
    27    34    33   ar
    28    34    32   ar
    29    72    73    2
    30    72    71    1
    31   107   108   ar
    32   107   109   ar
    33    62    63    1
    34    62    65    1
    35    63    64    2
    36    33    31   ar
    37    32    30   ar
    38   115   116    2
    39   121   119   ar
    40   121   123   ar
    41   124   123    1
    42    90    91    1
    43    90    92    1
    44   119   118   ar
    45   123   122   ar
    46    91    93    1
    47    71    74    1
    48   108   110   ar
    49    99   100    2
    50    99   101   am
    51   118   117    1
    52   118   120   ar
    53   122   120   ar
    54   109   111   ar
    55    31    29   ar
    56    30    29   ar
    57    29    28    1
    58    65    66    1
    59    74    75    1
    60   110   112   ar
    61    28    25    1
    62   111   112   ar
    63   142   140   ar
    64   142   143   ar
    65   125   126    1
    66   144   143    1
    67    76    75    2
    68    66    67    1
    69   173   172    2
    70    67    68    1
    71    75    77   am
    72   169   168   ar
    73   169   167   ar
    74   140   138   ar
    75   143   141   ar
    76   168   166   ar
    77   167   165   ar
    78   172   171    1
    79    25    24    1
    80    25    26    1
    81   128   127    2
    82   166   164   ar
    83   126   127    1
    84    27    26    2
    85   165   164   ar
    86    51    50    1
    87    50    49    1
    88   164   163    1
    89    69    68    1
    90    24    17   am
    91    26    35   am
    92   174   171    1
    93   174   175    1
    94   138   139   ar
    95   138   137    1
    96   141   139   ar
    97    18    17    2
    98    17    16    1
    99   210   209    2
   100   163   160    1
   101   162   161    2
   102    15    16    1
   103   171   170    1
   104    14    12    1
   105   137   134    1
   106    16    19    1
   107   209   208    1
   108    49    48    1
   109   160   161    1
   110   160   159    1
   111    48    47    1
   112   175   177   ar
   113   175   176   ar
   114    35    36    1
   115   130   129    1
   116   130   131    1
   117   133   131   am
   118   133   134    1
   119    23    21   ar
   120   131   132    2
   121   134   135    1
   122   216   215    1
   123   208   207    1
   124   208   211    1
   125    13    12    1
   126    22    21   ar
   127    12     9    1
   128    36    37    1
   129    36    39    1
   130     9    10    1
   131     9     8    1
   132    10    11    2
   133    21    20    1
   134   159   155   am
   135   156   155    2
   136    19    20    1
   137    37    43   am
   138    37    38    2
   139    47    44    1
   140   155   154    1
   141    43    44    1
   142   211   212    1
   143   213   214    1
   144   213   212    1
   145   135   136    2
   146   135   145   am
   147    39    40    1
   148   215   214    2
   149   215   217    1
   150   206   204   ar
   151    44    45    1
   152   157   154    1
   153   157   158    1
   154   197   196    1
   155   204   203    1
   156   204   205   ar
   157   154   153    1
   158   203   202    1
   159   145   146    1
   160    40    42    1
   161    40    41    1
   162   148   147    2
   163    45    46    2
   164    45    52   am
   165   202   199    1
   166   196   195    1
   167   146   147    1
   168   147   149   am
   169   195   194    1
   170    52    53    1
   171    55    54    2
   172   193   194    1
   173   193   190    1
   174     6     5    1
   175   186   184   ar
   176   186   188   ar
   177   152   151    2
   178     7     5    1
   179   201   200    2
   180   199   198    1
   181   199   200    1
   182   149   150    1
   183   181   180    2
   184   184   183   ar
   185   151   150    1
   186    54    53    1
   187    53    56    1
   188     5     2    1
   189   188   187   ar
   190   190   189    1
   191   190   191    1
   192   180   189   am
   193   180   179    1
   194    56    57    1
   195     2     3    1
   196     2     1    1
   197   183   182    1
   198   183   185   ar
   199   191   192    2
   200     4     3    2
   201    57    58    1
   202   182   179    1
   203   187   185   ar
   204   179   178    1
   205    58    60   ar
   206    58    59   ar
