@<TRIPOS>MOLECULE
tmp/3gg2A02.pdb
 133 128 0 0 0
SMALL
GASTEIGER

@<TRIPOS>ATOM
      1  N         30.8900   60.4520   90.3650 N.3   158  LYS158     -0.1245
      2  CA        32.1700   60.9520   90.9630 C.3   158  LYS158      0.1561
      3  C         31.8740   61.4140   92.3770 C.2   158  LYS158      0.2260
      4  O         30.7680   61.9170   92.6760 O.2   158  LYS158     -0.2867
      5  CB        32.7100   62.1960   90.2550 C.3   158  LYS158      0.0271
      6  CG        32.3850   62.4640   88.8140 C.3   158  LYS158      0.0035
      7  CD        32.4790   64.0180   88.6300 C.3   158  LYS158      0.0206
      8  CE        31.8270   64.4680   87.3720 C.3   158  LYS158      0.1093
      9  NZ        30.4250   63.9920   87.3430 N.3   158  LYS158     -0.1314
     10  N         29.7840   64.8880   93.4730 N.3   161  ASN161     -0.1240
     11  CA        28.5630   65.0910   92.7310 C.3   161  ASN161      0.1653
     12  C         27.7310   63.7980   92.6040 C.2   161  ASN161      0.2266
     13  O         27.1270   63.5610   91.5690 O.2   161  ASN161     -0.2867
     14  CB        28.8630   65.6460   91.3350 C.3   161  ASN161      0.1155
     15  CG        27.6440   66.3170   90.7250 C.2   161  ASN161      0.2627
     16  OD1       26.9720   67.1020   91.4140 O.2   161  ASN161     -0.2716
     17  ND2       27.3180   65.9890   89.4540 N.am  161  ASN161     -0.0877
     18  N         34.6800   69.5070   75.9440 N.3   254  SER254     -0.1202
     19  CA        35.3140   70.4990   76.8140 C.3   254  SER254      0.2020
     20  C         35.5200   70.0640   78.2600 C.2   254  SER254      0.2619
     21  O         36.0500   70.8400   79.0730 O.2   254  SER254     -0.2717
     22  CB        34.4670   71.7810   76.8100 C.3   254  SER254      0.2103
     23  OG        33.2410   71.5000   77.4760 O.3   254  SER254     -0.2182
     24  N         35.0780   68.8490   78.5980 N.am  255  LYS255     -0.1965
     25  CA        35.1430   68.3860   80.0040 C.3   255  LYS255      0.1728
     26  C         36.4010   67.5630   80.2740 C.2   255  LYS255      0.2616
     27  O         36.9370   66.8810   79.3870 O.2   255  LYS255     -0.2715
     28  CB        33.9170   67.5340   80.3450 C.3   255  LYS255      0.0311
     29  CG        32.5680   68.2370   80.1140 C.3   255  LYS255      0.0038
     30  CD        31.3870   67.3190   80.4310 C.3   255  LYS255      0.0206
     31  CE        30.0590   68.0420   80.3510 C.3   255  LYS255      0.1093
     32  NZ        28.9470   67.0930   80.6760 N.3   255  LYS255     -0.1314
     33  N         36.8540   67.5820   81.5170 N.am  256  PHE256     -0.1974
     34  CA        37.9950   66.7470   81.9390 C.3   256  PHE256      0.1639
     35  C         39.2310   66.9630   81.0360 C.2   256  PHE256      0.2290
     36  O         39.8330   66.0240   80.5560 O.2   256  PHE256     -0.2864
     37  CB        37.5800   65.2450   82.0480 C.3   256  PHE256      0.0560
     38  CG        37.1340   64.8440   83.4470 C.ar  256  PHE256     -0.0200
     39  CD1       35.9830   65.4070   84.0100 C.ar  256  PHE256     -0.0042
     40  CD2       37.8610   63.9060   84.2050 C.ar  256  PHE256     -0.0042
     41  CE1       35.5650   65.0800   85.2580 C.ar  256  PHE256     -0.0003
     42  CE2       37.4330   63.5800   85.5080 C.ar  256  PHE256     -0.0003
     43  CZ        36.2860   64.1630   86.0250 C.ar  256  PHE256     -0.0000
     44  N         41.3940   69.5590   82.2790 N.3   258  TYR258     -0.1228
     45  CA        42.0870   70.5330   83.1060 C.3   258  TYR258      0.1721
     46  C         43.4350   70.0670   83.5930 C.2   258  TYR258      0.2437
     47  O         43.5030   69.2070   84.4700 O.2   258  TYR258     -0.2733
     48  CB        41.2650   70.9240   84.3280 C.3   258  TYR258      0.0547
     49  CG        39.9130   71.4850   84.1070 C.ar  258  TYR258     -0.0200
     50  CD1       39.7540   72.8280   83.7820 C.ar  258  TYR258     -0.0009
     51  CD2       38.7820   70.7110   84.3350 C.ar  258  TYR258     -0.0009
     52  CE1       38.4860   73.3780   83.6020 C.ar  258  TYR258      0.0417
     53  CE2       37.4910   71.2440   84.1550 C.ar  258  TYR258      0.0417
     54  CZ        37.3770   72.5940   83.8060 C.ar  258  TYR258      0.1957
     55  OH        36.1450   73.1850   83.6220 O.3   258  TYR258     -0.2866
     56  N         44.5250   70.6710   83.0700 N.am  259  PRO259     -0.2729
     57  CA        45.8060   70.3190   83.6720 C.3   259  PRO259      0.1401
     58  C         45.9400   70.8890   85.0760 C.2   259  PRO259      0.2269
     59  O         45.2180   71.8030   85.4510 O.2   259  PRO259     -0.2865
     60  CB        46.8200   70.9800   82.7480 C.3   259  PRO259      0.0296
     61  CG        46.1410   72.1900   82.2510 C.3   259  PRO259      0.0237
     62  CD        44.6740   71.7390   82.0500 C.3   259  PRO259      0.0939
     63  N         39.9860   66.2040   95.6010 N.3   328  LYS328     -0.1231
     64  CA        39.1940   67.0970   94.7500 C.3   328  LYS328      0.1678
     65  C         38.2280   67.8350   95.6920 C.2   328  LYS328      0.2434
     66  O         38.0310   67.4550   96.8520 O.2   328  LYS328     -0.2733
     67  CB        38.3690   66.3550   93.6750 C.3   328  LYS328      0.0284
     68  CG        37.3390   65.3480   94.2900 C.3   328  LYS328      0.0035
     69  CD        36.4320   64.7250   93.1950 C.3   328  LYS328      0.0206
     70  CE        35.4700   65.7370   92.5520 C.3   328  LYS328      0.1093
     71  NZ        34.5980   65.0400   91.5190 N.3   328  LYS328     -0.1314
     72  N         37.5880   68.8870   95.1720 N.am  329  PRO329     -0.2729
     73  CA        36.6610   69.5750   96.0750 C.3   329  PRO329      0.1401
     74  C         35.3790   68.7630   96.3270 C.2   329  PRO329      0.2269
     75  O         34.9930   67.9560   95.4950 O.2   329  PRO329     -0.2865
     76  CB        36.3540   70.8860   95.3300 C.3   329  PRO329      0.0296
     77  CG        37.3400   70.9710   94.2090 C.3   329  PRO329      0.0237
     78  CD        37.6920   69.5390   93.8610 C.3   329  PRO329      0.0939
     79  N         40.6450   72.9840   94.3820 N.3   393  GLU393     -0.1245
     80  CA        39.9760   74.2250   94.0200 C.3   393  GLU393      0.1567
     81  C         38.5960   74.4030   94.6750 C.2   393  GLU393      0.2260
     82  O         37.5800   74.6860   94.0150 O.2   393  GLU393     -0.2867
     83  CB        39.9650   74.4080   92.4830 C.3   393  GLU393      0.0388
     84  CG        38.9690   73.5310   91.6640 C.3   393  GLU393      0.1160
     85  CD        39.3430   72.0400   91.5330 C.2   393  GLU393      0.3649
     86  OE1       40.4220   71.6110   91.9740 O.co2 393  GLU393     -0.2457
     87  OE2       38.5180   71.2930   90.9480 O.co2 393  GLU393     -0.2457
     88  N         35.5260   76.1440   96.4140 N.3   395  LYS395     -0.1245
     89  CA        35.0000   77.4190   95.9500 C.3   395  LYS395      0.1561
     90  C         35.3740   78.5830   96.8380 C.2   395  LYS395      0.2260
     91  O         35.5700   79.6880   96.3280 O.2   395  LYS395     -0.2867
     92  CB        33.4690   77.3380   95.7440 C.3   395  LYS395      0.0271
     93  CG        33.1740   76.6190   94.4500 C.3   395  LYS395      0.0035
     94  CD        31.7220   76.5350   94.1510 C.3   395  LYS395      0.0206
     95  CE        31.5870   75.7230   92.8750 C.3   395  LYS395      0.1093
     96  NZ        30.1910   75.6080   92.4480 N.3   395  LYS395     -0.1314
     97  N         38.3240   80.8740   95.7420 N.3   398  ARG398     -0.1245
     98  CA        38.2850   81.4060   94.3780 C.3   398  ARG398      0.1563
     99  C         38.5480   82.9020   94.2500 C.2   398  ARG398      0.2260
    100  O         39.1400   83.3320   93.2580 O.2   398  ARG398     -0.2867
    101  CB        36.9490   81.0500   93.7100 C.3   398  ARG398      0.0307
    102  CG        36.9960   80.9920   92.1900 C.3   398  ARG398      0.0489
    103  CD        38.0250   79.9710   91.6370 C.3   398  ARG398      0.2205
    104  NE        37.7630   78.5920   92.0790 N.pl3 398  ARG398     -0.0865
    105  CZ        36.7710   77.8370   91.6210 C.cat 398  ARG398      0.5346
    106  NH1       36.5890   76.6140   92.0820 N.pl3 398  ARG398      0.1354
    107  NH2       35.9500   78.3050   90.6560 N.pl3 398  ARG398      0.1354
    108  N         45.9590   74.4070   90.3090 N.3   418  ARG418     -0.1231
    109  CA        44.7170   74.1470   89.5960 C.3   418  ARG418      0.1694
    110  C         44.3190   75.2530   88.5900 C.2   418  ARG418      0.2592
    111  O         43.2050   75.2250   88.0250 O.2   418  ARG418     -0.2718
    112  CB        43.5800   73.8750   90.5740 C.3   418  ARG418      0.0321
    113  CG        43.8040   72.6290   91.4500 C.3   418  ARG418      0.0489
    114  CD        43.7240   71.3680   90.6160 C.3   418  ARG418      0.2205
    115  NE        43.9850   70.1710   91.4180 N.pl3 418  ARG418     -0.0865
    116  CZ        44.2370   68.9640   90.9090 C.cat 418  ARG418      0.5346
    117  NH1       44.3010   68.7930   89.5950 N.pl3 418  ARG418      0.1354
    118  NH2       44.4470   67.9380   91.7140 N.pl3 418  ARG418      0.1354
    119  N         45.2070   76.2250   88.3650 N.am  419  ASN419     -0.1960
    120  CA        44.9930   77.2630   87.2960 C.3   419  ASN419      0.1819
    121  C         43.6360   77.9840   87.3980 C.2   419  ASN419      0.2621
    122  O         42.8830   78.0490   86.4240 O.2   419  ASN419     -0.2715
    123  CB        45.1910   76.6730   85.8770 C.3   419  ASN419      0.1195
    124  CG        46.6330   76.2160   85.6230 C.2   419  ASN419      0.2630
    125  OD1       47.5430   76.5170   86.3890 O.2   419  ASN419     -0.2716
    126  ND2       46.8370   75.5160   84.5290 N.am  419  ASN419     -0.0877
    127  N         43.3390   78.4850   88.5870 N.am  420  VAL420     -0.1977
    128  CA        42.1160   79.2600   88.7980 C.3   420  VAL420      0.1596
    129  C         42.3640   80.7600   88.9140 C.2   420  VAL420      0.2287
    130  O         41.4440   81.5450   88.6780 O.2   420  VAL420     -0.2864
    131  CB        41.3100   78.7550   90.0050 C.3   420  VAL420      0.0276
    132  CG1       41.1020   77.2250   89.9270 C.3   420  VAL420      0.0022
    133  CG2       41.9340   79.1560   91.3230 C.3   420  VAL420      0.0022
@<TRIPOS>BOND
     1    18    19    1
     2    22    19    1
     3    22    23    1
     4    19    20    1
     5    20    24   am
     6    20    21    2
     7    24    25    1
     8    27    26    2
     9    25    26    1
    10    25    28    1
    11    29    28    1
    12    29    30    1
    13    26    33   am
    14    31    30    1
    15    31    32    1
    16    36    35    2
    17    35    34    1
    18    33    34    1
    19    34    37    1
    20    37    38    1
    21    62    61    1
    22    62    56    1
    23    61    60    1
    24    44    45    1
    25    60    57    1
    26    56    46   am
    27    56    57    1
    28    45    46    1
    29    45    48    1
    30    38    39   ar
    31    38    40   ar
    32    46    47    2
    33    52    50   ar
    34    52    54   ar
    35    55    54    1
    36    57    58    1
    37    50    49   ar
    38    54    53   ar
    39    39    41   ar
    40    49    48    1
    41    49    51   ar
    42    53    51   ar
    43    40    42   ar
    44   126   124   am
    45    58    59    2
    46    41    43   ar
    47    42    43   ar
    48   124   123    1
    49   124   125    2
    50   123   120    1
    51   122   121    2
    52   120   121    1
    53   120   119    1
    54     9     8    1
    55     8     7    1
    56   121   127   am
    57   111   110    2
    58   119   110   am
    59   127   128    1
    60   110   109    1
    61     7     6    1
    62   130   129    2
    63   128   129    1
    64   128   131    1
    65     6     5    1
    66    17    15   am
    67   117   116    1
    68   109   108    1
    69   109   112    1
    70   132   131    1
    71   131   133    1
    72     5     2    1
    73     1     2    1
    74   112   113    1
    75   114   115    1
    76   114   113    1
    77   107   105    1
    78    15    14    1
    79    15    16    2
    80   116   115    2
    81   116   118    1
    82    87    85   ar
    83     2     3    1
    84    14    11    1
    85    71    70    1
    86    85    84    1
    87    85    86   ar
    88    13    12    2
    89   105   104    2
    90   105   106    1
    91   103   104    1
    92   103   102    1
    93    84    83    1
    94   102   101    1
    95     3     4    2
    96    96    95    1
    97    83    80    1
    98    70    69    1
    99    12    11    1
   100    11    10    1
   101    95    94    1
   102    69    68    1
   103   100    99    2
   104    67    68    1
   105    67    64    1
   106   101    98    1
   107    78    77    1
   108    78    72    1
   109    82    81    2
   110    80    79    1
   111    80    81    1
   112    94    93    1
   113    77    76    1
   114    99    98    1
   115    98    97    1
   116    93    92    1
   117    64    63    1
   118    64    65    1
   119    72    65   am
   120    72    73    1
   121    76    73    1
   122    75    74    2
   123    65    66    2
   124    92    89    1
   125    89    88    1
   126    89    90    1
   127    73    74    1
   128    91    90    2
