@<TRIPOS>MOLECULE
tmp/3gg4B00.pdb
 116 112 0 0 0
SMALL
GASTEIGER

@<TRIPOS>ATOM
      1  N        -12.2850   32.5010   24.4710 N.3    79  THR79      -0.1203
      2  CA       -13.5150   31.7900   24.1560 C.3    79  THR79       0.1994
      3  C        -14.6130   32.8360   24.0510 C.2    79  THR79       0.2618
      4  O        -14.4920   33.9110   24.6320 O.2    79  THR79      -0.2717
      5  CB       -13.8750   30.8030   25.2640 C.3    79  THR79       0.1784
      6  OG1      -14.1930   31.5320   26.4510 O.3    79  THR79      -0.2211
      7  CG2      -12.7050   29.8870   25.5510 C.3    79  THR79       0.0376
      8  N        -15.6760   32.5480   23.3060 N.am   80  CYS80      -0.1969
      9  CA       -16.7710   33.5090   23.2230 C.3    80  CYS80       0.1712
     10  C        -17.6870   33.4000   24.4410 C.2    80  CYS80       0.2296
     11  O        -18.8570   33.0530   24.3280 O.2    80  CYS80      -0.2864
     12  CB       -17.5610   33.3780   21.9210 C.3    80  CYS80       0.0983
     13  SG       -17.9560   31.6920   21.4500 S.3    80  CYS80      -0.0798
     14  N        -18.9500   30.1350   27.4850 N.3   107  TRP107     -0.1241
     15  CA       -19.5360   29.7350   26.2090 C.3   107  TRP107      0.1605
     16  C        -20.3590   28.4620   26.3380 C.2   107  TRP107      0.2264
     17  O        -21.4200   28.3230   25.7200 O.2   107  TRP107     -0.2867
     18  CB       -18.4390   29.5330   25.1510 C.3   107  TRP107      0.0550
     19  CG       -17.4540   28.4320   25.4880 C.ar  107  TRP107      0.0003
     20  CD1      -16.3300   28.5480   26.2530 C.ar  107  TRP107      0.0946
     21  CD2      -17.5140   27.0550   25.0730 C.ar  107  TRP107      0.0152
     22  NE1      -15.6850   27.3350   26.3360 N.ar  107  TRP107     -0.2442
     23  CE2      -16.3870   26.4050   25.6150 C.ar  107  TRP107      0.0810
     24  CE3      -18.4080   26.3130   24.2950 C.ar  107  TRP107      0.0012
     25  CZ2      -16.1340   25.0460   25.4120 C.ar  107  TRP107      0.0191
     26  CZ3      -18.1520   24.9690   24.0880 C.ar  107  TRP107      0.0001
     27  CH2      -17.0280   24.3480   24.6490 C.ar  107  TRP107      0.0015
     28  N        -25.7130   28.6780   23.2900 N.3   136  GLU136     -0.1245
     29  CA       -24.3630   29.0660   23.6650 C.3   136  GLU136      0.1567
     30  C        -24.0440   30.4660   23.1800 C.2   136  GLU136      0.2260
     31  O        -23.1330   31.1160   23.6880 O.2   136  GLU136     -0.2867
     32  CB       -23.3560   28.0660   23.1010 C.3   136  GLU136      0.0388
     33  CG       -23.5570   26.6580   23.6540 C.3   136  GLU136      0.1160
     34  CD       -22.4280   25.7170   23.2780 C.2   136  GLU136      0.3649
     35  OE1      -21.6500   26.0700   22.3610 O.co2 136  GLU136     -0.2457
     36  OE2      -22.3170   24.6330   23.9080 O.co2 136  GLU136     -0.2457
     37  N        -21.2890   35.8670   16.8640 N.3   182  LYS182     -0.1245
     38  CA       -22.0450   35.4580   18.0500 C.3   182  LYS182      0.1561
     39  C        -23.0830   36.4530   18.5990 C.2   182  LYS182      0.2260
     40  O        -23.8150   36.1070   19.5340 O.2   182  LYS182     -0.2867
     41  CB       -21.0720   35.0800   19.1800 C.3   182  LYS182      0.0271
     42  CG       -19.9380   34.1460   18.7600 C.3   182  LYS182      0.0035
     43  CD       -20.4460   32.8430   18.1390 C.3   182  LYS182      0.0206
     44  CE       -19.3040   31.8300   17.9800 C.3   182  LYS182      0.1093
     45  NZ       -19.7340   30.5630   17.3200 N.3   182  LYS182     -0.1314
     46  N        -12.0410   35.8240   18.4840 N.3   247  ILE247     -0.1231
     47  CA       -12.4400   34.5700   19.1190 C.3   247  ILE247      0.1692
     48  C        -11.3120   33.5590   18.9780 C.2   247  ILE247      0.2592
     49  O        -10.5600   33.5990   18.0040 O.2   247  ILE247     -0.2718
     50  CB       -13.7590   34.0120   18.5190 C.3   247  ILE247      0.0266
     51  CG1      -14.9040   35.0000   18.7880 C.3   247  ILE247      0.0019
     52  CG2      -14.0760   32.6450   19.1210 C.3   247  ILE247      0.0020
     53  CD1      -16.1960   34.6920   18.0680 C.3   247  ILE247      0.0001
     54  N        -11.1840   32.6620   19.9500 N.am  248  ASP248     -0.1960
     55  CA       -10.0310   31.7630   19.9900 C.3   248  ASP248      0.1840
     56  C         -9.8680   30.8850   18.7390 C.2   248  ASP248      0.2622
     57  O         -8.7890   30.8470   18.1470 O.2   248  ASP248     -0.2715
     58  CB        -9.9690   30.9490   21.3000 C.3   248  ASP248      0.1450
     59  CG       -11.1650   30.0180   21.4980 C.2   248  ASP248      0.3671
     60  OD1      -12.1960   30.1890   20.8280 O.co2 248  ASP248     -0.2456
     61  OD2      -11.0720   29.1160   22.3590 O.co2 248  ASP248     -0.2456
     62  N        -10.9300   30.2080   18.3170 N.am  249  ALA249     -0.1963
     63  CA       -10.8380   29.3640   17.1200 C.3   249  ALA249      0.1728
     64  C        -10.3780   30.1830   15.9080 C.2   249  ALA249      0.2616
     65  O         -9.5700   29.7320   15.0930 O.2   249  ALA249     -0.2715
     66  CB       -12.1680   28.6940   16.8350 C.3   249  ALA249      0.0334
     67  N        -10.8990   31.3970   15.7980 N.am  250  HIS250     -0.1973
     68  CA       -10.5600   32.2720   14.6840 C.3   250  HIS250      0.1656
     69  C         -9.0940   32.7020   14.7430 C.2   250  HIS250      0.2291
     70  O         -8.4160   32.7340   13.7140 O.2   250  HIS250     -0.2864
     71  CB       -11.5280   33.4530   14.6190 C.3   250  HIS250      0.0771
     72  CG       -12.9650   33.0330   14.5120 C.ar  250  HIS250      0.0820
     73  ND1      -13.5690   32.2100   15.4380 N.ar  250  HIS250     -0.2267
     74  CD2      -13.9120   33.3150   13.5830 C.ar  250  HIS250      0.1154
     75  CE1      -14.8260   31.9990   15.0850 C.ar  250  HIS250      0.1986
     76  NE2      -15.0600   32.6610   13.9650 N.ar  250  HIS250     -0.2212
     77  N        -13.3620   19.1100   20.1010 N.3   271  SER271     -0.1217
     78  CA       -14.2190   19.3010   18.9440 C.3   271  SER271      0.1889
     79  C        -13.3290   19.9450   17.8920 C.2   271  SER271      0.2288
     80  O        -12.1960   20.3260   18.1960 O.2   271  SER271     -0.2866
     81  CB       -15.3810   20.2340   19.2910 C.3   271  SER271      0.2089
     82  OG       -14.8960   21.4860   19.7530 O.3   271  SER271     -0.2183
     83  N        -22.2750   27.4960    9.1230 N.3   286  TRP286     -0.1241
     84  CA       -22.5720   28.8490    9.5830 C.3   286  TRP286      0.1605
     85  C        -21.9340   29.9050    8.6830 C.2   286  TRP286      0.2264
     86  O        -21.0190   29.6150    7.8990 O.2   286  TRP286     -0.2867
     87  CB       -22.1640   29.0570   11.0490 C.3   286  TRP286      0.0550
     88  CG       -23.0360   28.3090   12.0110 C.ar  286  TRP286      0.0003
     89  CD1      -24.2890   27.8120   11.7710 C.ar  286  TRP286      0.0946
     90  CD2      -22.7350   27.9990   13.3730 C.ar  286  TRP286      0.0152
     91  NE1      -24.7740   27.1960   12.8960 N.ar  286  TRP286     -0.2442
     92  CE2      -23.8400   27.2980   13.8960 C.ar  286  TRP286      0.0810
     93  CE3      -21.6340   28.2330   14.1970 C.ar  286  TRP286      0.0012
     94  CZ2      -23.8740   26.8250   15.2040 C.ar  286  TRP286      0.0191
     95  CZ3      -21.6700   27.7580   15.5060 C.ar  286  TRP286      0.0001
     96  CH2      -22.7830   27.0710   15.9920 C.ar  286  TRP286      0.0015
     97  N        -18.1910   28.8850    8.5480 N.3   301  GLU301     -0.1245
     98  CA       -17.6380   28.0880    9.6380 C.3   301  GLU301      0.1567
     99  C        -18.5020   26.8570    9.8750 C.2   301  GLU301      0.2260
    100  O        -19.6940   26.9710   10.1380 O.2   301  GLU301     -0.2867
    101  CB       -17.5480   28.9160   10.9310 C.3   301  GLU301      0.0388
    102  CG       -17.1180   28.1020   12.1770 C.3   301  GLU301      0.1160
    103  CD       -17.0420   28.9360   13.4600 C.2   301  GLU301      0.3649
    104  OE1      -17.3410   30.1450   13.4240 O.co2 301  GLU301     -0.2457
    105  OE2      -16.6760   28.3730   14.5130 O.co2 301  GLU301     -0.2457
    106  N        -23.2580   18.5280   13.5230 N.3   368  ARG368     -0.1245
    107  CA       -23.3600   19.9510   13.2480 C.3   368  ARG368      0.1563
    108  C        -23.2740   20.2510   11.7440 C.2   368  ARG368      0.2260
    109  O        -24.1930   20.8150   11.1590 O.2   368  ARG368     -0.2867
    110  CB       -22.2740   20.7060   14.0120 C.3   368  ARG368      0.0307
    111  CG       -22.4510   22.2060   13.9780 C.3   368  ARG368      0.0489
    112  CD       -21.3030   22.8980   14.6640 C.3   368  ARG368      0.2205
    113  NE       -20.9580   24.1390   13.9780 N.pl3 368  ARG368     -0.0865
    114  CZ       -19.8790   24.8580   14.2570 C.cat 368  ARG368      0.5346
    115  NH1      -19.0460   24.4560   15.2080 N.pl3 368  ARG368      0.1354
    116  NH2      -19.6330   25.9680   13.5780 N.pl3 368  ARG368      0.1354
@<TRIPOS>BOND
     1    86    85    2
     2    97    98    1
     3    85    84    1
     4    83    84    1
     5    84    87    1
     6    98    99    1
     7    98   101    1
     8    99   100    2
     9   101   102    1
    10    87    88    1
    11   109   108    2
    12   108   107    1
    13    89    88   ar
    14    89    91   ar
    15    88    90   ar
    16   102   103    1
    17    91    92   ar
    18   107   106    1
    19   107   110    1
    20    90    92   ar
    21    90    93   ar
    22   104   103   ar
    23   103   105   ar
    24   116   114    1
    25    74    76   ar
    26    74    72   ar
    27    70    69    2
    28    92    94   ar
    29    76    75   ar
    30   113   114    2
    31   113   112    1
    32   111   110    1
    33   111   112    1
    34    93    95   ar
    35   114   115    1
    36    72    71    1
    37    72    73   ar
    38    71    68    1
    39    68    69    1
    40    68    67    1
    41    75    73   ar
    42    65    64    2
    43    94    96   ar
    44    95    96   ar
    45    67    64   am
    46    64    63    1
    47    66    63    1
    48    37    38    1
    49    63    62    1
    50    45    44    1
    51    79    80    2
    52    79    78    1
    53    44    43    1
    54    49    48    2
    55    38    39    1
    56    38    41    1
    57    53    51    1
    58    43    42    1
    59    57    56    2
    60    62    56   am
    61    46    47    1
    62    50    51    1
    63    50    47    1
    64    50    52    1
    65    39    40    2
    66    56    55    1
    67    42    41    1
    68    78    81    1
    69    78    77    1
    70    48    47    1
    71    48    54   am
    72    81    82    1
    73    54    55    1
    74    55    58    1
    75    60    59   ar
    76    58    59    1
    77    13    12    1
    78    59    61   ar
    79    12     9    1
    80    35    34   ar
    81    32    33    1
    82    32    29    1
    83    30    29    1
    84    30    31    2
    85     9     8    1
    86     9    10    1
    87    34    33    1
    88    34    36   ar
    89    28    29    1
    90     8     3   am
    91     3     2    1
    92     3     4    2
    93    26    24   ar
    94    26    27   ar
    95     2     1    1
    96     2     5    1
    97    24    21   ar
    98    11    10    2
    99    27    25   ar
   100    21    19   ar
   101    21    23   ar
   102    18    19    1
   103    18    15    1
   104     5     7    1
   105     5     6    1
   106    25    23   ar
   107    19    20   ar
   108    23    22   ar
   109    17    16    2
   110    15    16    1
   111    15    14    1
   112    20    22   ar
