@<TRIPOS>MOLECULE
tmp/3ggaA00.pdb
 116 109 0 0 0
SMALL
GASTEIGER

@<TRIPOS>ATOM
      1  N         26.9280  -10.4920   -0.2740 N.3     8  ARG8       -0.1245
      2  CA        26.2790   -9.2720    0.2350 C.3     8  ARG8        0.1563
      3  C         25.3520   -9.5610    1.4300 C.2     8  ARG8        0.2260
      4  O         24.5600  -10.5120    1.3780 O.2     8  ARG8       -0.2867
      5  CB        25.4790   -8.5860   -0.8670 C.3     8  ARG8        0.0307
      6  CG        26.3210   -7.8080   -1.8460 C.3     8  ARG8        0.0489
      7  CD        25.5150   -7.3990   -3.0490 C.3     8  ARG8        0.2205
      8  NE        26.4000   -6.9620   -4.1190 N.pl3   8  ARG8       -0.0865
      9  CZ        26.0050   -6.6420   -5.3520 C.cat   8  ARG8        0.5346
     10  NH1       26.8920   -6.2530   -6.2530 N.pl3   8  ARG8        0.1354
     11  NH2       24.7240   -6.7090   -5.6830 N.pl3   8  ARG8        0.1354
     12  N         20.1990   -3.9340    2.1910 N.3    23  LEU23      -0.1245
     13  CA        21.6270   -4.1430    2.4100 C.3    23  LEU23       0.1561
     14  C         22.0620   -3.5710    3.7570 C.2    23  LEU23       0.2260
     15  O         21.8540   -2.3840    4.0190 O.2    23  LEU23      -0.2867
     16  CB        22.4260   -3.4930    1.2700 C.3    23  LEU23       0.0270
     17  CG        23.9560   -3.5910    1.1920 C.3    23  LEU23       0.0019
     18  CD1       24.4260   -5.0080    0.9230 C.3    23  LEU23       0.0001
     19  CD2       24.4750   -2.6580    0.1140 C.3    23  LEU23       0.0001
     20  N         24.5450   -1.9370    5.8460 N.3    25  ASP25      -0.1239
     21  CA        25.6170   -1.1200    5.3210 C.3    25  ASP25       0.1674
     22  C         26.3000   -0.2310    6.3580 C.2    25  ASP25       0.2266
     23  O         25.8200    0.8580    6.6790 O.2    25  ASP25      -0.2867
     24  CB        25.0780   -0.2890    4.1590 C.3    25  ASP25       0.1410
     25  CG        26.1440    0.5130    3.4800 C.2    25  ASP25       0.3668
     26  OD1       27.3430    0.2220    3.6770 O.co2  25  ASP25      -0.2456
     27  OD2       25.7730    1.4450    2.7420 O.co2  25  ASP25      -0.2456
     28  N         29.0450    1.3500    6.0000 N.3    27  GLY27      -0.1210
     29  CA        29.6260    2.5180    5.3490 C.3    27  GLY27       0.1956
     30  C         28.6080    3.5840    4.9860 C.2    27  GLY27       0.2612
     31  O         28.9380    4.5410    4.2760 O.2    27  GLY27      -0.2717
     32  N         27.3740    3.4260    5.4730 N.am   28  ALA28      -0.1965
     33  CA        26.3070    4.4050    5.2350 C.3    28  ALA28       0.1728
     34  C         25.8640    5.1420    6.5050 C.2    28  ALA28       0.2616
     35  O         25.4870    4.5140    7.5000 O.2    28  ALA28      -0.2715
     36  CB        25.1240    3.7360    4.5790 C.3    28  ALA28       0.0334
     37  N         25.9210    6.4720    6.4650 N.am   29  ASP29      -0.1957
     38  CA        25.4060    7.3180    7.5510 C.3    29  ASP29       0.1840
     39  C         23.8840    7.1890    7.6820 C.2    29  ASP29       0.2622
     40  O         23.3510    7.0250    8.7800 O.2    29  ASP29      -0.2715
     41  CB        25.7490    8.7920    7.3030 C.3    29  ASP29       0.1450
     42  CG        27.2030    9.1370    7.6030 C.2    29  ASP29       0.3671
     43  OD1       28.0500    8.2220    7.7800 O.co2  29  ASP29      -0.2456
     44  OD2       27.4980   10.3540    7.6580 O.co2  29  ASP29      -0.2456
     45  N         23.1950    7.2750    6.5490 N.am   30  ASP30      -0.1971
     46  CA        21.7430    7.3350    6.5260 C.3    30  ASP30       0.1709
     47  C         21.1400    6.0430    5.9650 C.2    30  ASP30       0.2293
     48  O         21.8460    5.1910    5.4120 O.2    30  ASP30      -0.2864
     49  CB        21.2640    8.5350    5.6990 C.3    30  ASP30       0.1436
     50  CG        22.0060    9.8290    6.0280 C.2    30  ASP30       0.3671
     51  OD1       22.2870   10.0990    7.2150 O.co2  30  ASP30      -0.2456
     52  OD2       22.3060   10.5920    5.0880 O.co2  30  ASP30      -0.2456
     53  N         18.5120    4.5340    3.2750 N.3    32  VAL32      -0.1245
     54  CA        17.8810    4.9670    2.0350 C.3    32  VAL32       0.1561
     55  C         17.1770    3.8200    1.3080 C.2    32  VAL32       0.2260
     56  O         17.7800    2.7860    0.9980 O.2    32  VAL32      -0.2867
     57  CB        18.8620    5.8060    1.1370 C.3    32  VAL32       0.0252
     58  CG1       20.1240    5.0370    0.8090 C.3    32  VAL32       0.0019
     59  CG2       18.1740    6.3020   -0.1240 C.3    32  VAL32       0.0019
     60  N         22.0190   13.5530   -0.6810 N.3    47  ILE47      -0.1231
     61  CA        23.0020   12.6350   -0.1140 C.3    47  ILE47       0.1692
     62  C         23.9930   12.1870   -1.1640 C.2    47  ILE47       0.2593
     63  O         23.6260   11.9520   -2.3150 O.2    47  ILE47      -0.2718
     64  CB        22.3580   11.4100    0.5950 C.3    47  ILE47       0.0266
     65  CG1       21.4570   10.6190   -0.3630 C.3    47  ILE47       0.0019
     66  CG2       21.6160   11.8540    1.8670 C.3    47  ILE47       0.0020
     67  CD1       21.1380    9.2110    0.1060 C.3    47  ILE47       0.0001
     68  N         25.2530   12.0750   -0.7620 N.am   48  GLY48      -0.1942
     69  CA        26.3230   11.7440   -1.6860 C.3    48  GLY48       0.2014
     70  C         27.0320   10.4350   -1.4240 C.2    48  GLY48       0.2639
     71  O         27.1920   10.0090   -0.2820 O.2    48  GLY48      -0.2714
     72  N         27.4510    9.8000   -2.5080 N.am   49  GLY49      -0.1939
     73  CA        28.3080    8.6330   -2.4590 C.3    49  GLY49       0.2014
     74  C         29.2930    8.6730   -3.6120 C.2    49  GLY49       0.2638
     75  O         29.6260    9.7460   -4.1370 O.2    49  GLY49      -0.2714
     76  N         29.7560    7.4950   -4.0140 N.am   50  ILE50      -0.1977
     77  CA        30.5800    7.3680   -5.2010 C.3    50  ILE50       0.1596
     78  C         29.7500    7.8650   -6.3810 C.2    50  ILE50       0.2287
     79  O         28.5800    7.4840   -6.5360 O.2    50  ILE50      -0.2864
     80  CB        31.0130    5.8950   -5.4190 C.3    50  ILE50       0.0276
     81  CG1       31.9720    5.4450   -4.3120 C.3    50  ILE50       0.0022
     82  CG2       31.6430    5.6900   -6.8080 C.3    50  ILE50       0.0022
     83  CD1       33.3970    5.9400   -4.4670 C.3    50  ILE50       0.0001
     84  N         25.7990   12.9990   -5.9280 N.3    53  PHE53      -0.1241
     85  CA        24.6430   13.1880   -5.0620 C.3    53  PHE53       0.1605
     86  C         23.3170   12.9070   -5.7600 C.2    53  PHE53       0.2264
     87  O         23.2000   13.0360   -6.9850 O.2    53  PHE53      -0.2867
     88  CB        24.6350   14.6230   -4.5190 C.3    53  PHE53       0.0534
     89  CG        25.7080   14.8990   -3.5050 C.ar   53  PHE53      -0.0203
     90  CD1       27.0520   14.9780   -3.8860 C.ar   53  PHE53      -0.0042
     91  CD2       25.3760   15.0980   -2.1680 C.ar   53  PHE53      -0.0042
     92  CE1       28.0430   15.2340   -2.9540 C.ar   53  PHE53      -0.0003
     93  CE2       26.3510   15.3580   -1.2240 C.ar   53  PHE53      -0.0003
     94  CZ        27.6900   15.4260   -1.6120 C.ar   53  PHE53      -0.0000
     95  N         19.8570    2.8010   -6.2630 N.3    81  PRO81      -0.2102
     96  CA        19.8530    1.4760   -6.8910 C.3    81  PRO81       0.1504
     97  C         19.5270    0.3380   -5.9280 C.2    81  PRO81       0.2575
     98  O         19.0290   -0.7090   -6.3630 O.2    81  PRO81      -0.2718
     99  CB        21.2800    1.3280   -7.4420 C.3    81  PRO81       0.0282
    100  CG        22.0960    2.3230   -6.6930 C.3    81  PRO81       0.0208
    101  CD        21.1850    3.4440   -6.3240 C.3    81  PRO81       0.0893
    102  N         19.7910    0.5240   -4.6380 N.am   82  VAL82      -0.1980
    103  CA        19.5620   -0.5630   -3.6770 C.3    82  VAL82       0.1595
    104  C         18.9770   -0.0790   -2.3470 C.2    82  VAL82       0.2287
    105  O         19.2690    1.0300   -1.8970 O.2    82  VAL82      -0.2864
    106  CB        20.8510   -1.4340   -3.4750 C.3    82  VAL82       0.0276
    107  CG1       22.0310   -0.5850   -3.0090 C.3    82  VAL82       0.0022
    108  CG2       20.6000   -2.5980   -2.5200 C.3    82  VAL82       0.0022
    109  N         19.0380    0.2670    1.4220 N.3    84  ILE84      -0.1245
    110  CA        20.2100    0.3810    2.2880 C.3    84  ILE84       0.1561
    111  C         19.8300    0.6880    3.7410 C.2    84  ILE84       0.2260
    112  O         19.1550    1.6840    4.0210 O.2    84  ILE84      -0.2867
    113  CB        21.1780    1.4770    1.7620 C.3    84  ILE84       0.0252
    114  CG1       21.7920    1.0530    0.4200 C.3    84  ILE84       0.0019
    115  CG2       22.2680    1.7840    2.7830 C.3    84  ILE84       0.0019
    116  CD1       22.2860    2.2110   -0.4470 C.3    84  ILE84       0.0001
@<TRIPOS>BOND
     1    99    96    1
     2    99   100    1
     3    87    86    2
     4    96    95    1
     5    96    97    1
     6    82    80    1
     7   100   101    1
     8    79    78    2
     9    78    77    1
    10    98    97    2
    11   101    95    1
    12    10     9    1
    13    84    85    1
    14    97   102   am
    15    86    85    1
    16    11     9    1
    17    80    77    1
    18    80    81    1
    19     9     8    2
    20    77    76    1
    21    85    88    1
    22   102   103    1
    23    88    89    1
    24    83    81    1
    25    75    74    2
    26     8     7    1
    27    76    74   am
    28    90    89   ar
    29    90    92   ar
    30   103   106    1
    31   103   104    1
    32    74    73    1
    33    89    91   ar
    34   106   107    1
    35   106   108    1
    36     7     6    1
    37    92    94   ar
    38    72    73    1
    39    72    70   am
    40   104   105    2
    41    63    62    2
    42    91    93   ar
    43     6     5    1
    44    69    70    1
    45    69    68    1
    46    94    93   ar
    47    70    71    2
    48    62    68   am
    49    62    61    1
    50     5     2    1
    51    60    61    1
    52   116   114    1
    53    65    67    1
    54    65    64    1
    55     1     2    1
    56    59    57    1
    57    61    64    1
    58    19    17    1
    59     2     3    1
    60   114   113    1
    61    64    66    1
    62    58    57    1
    63    18    17    1
    64    56    55    2
    65    57    54    1
    66    17    16    1
    67    16    13    1
    68    55    54    1
    69     4     3    2
    70   109   110    1
    71   113   110    1
    72   113   115    1
    73    54    53    1
    74    12    13    1
    75   110   111    1
    76    13    14    1
    77    27    25   ar
    78    25    26   ar
    79    25    24    1
    80   111   112    2
    81    14    15    2
    82    24    21    1
    83    31    30    2
    84    36    33    1
    85    30    29    1
    86    30    32   am
    87    52    50   ar
    88    33    32    1
    89    33    34    1
    90    21    20    1
    91    21    22    1
    92    29    28    1
    93    48    47    2
    94    49    50    1
    95    49    46    1
    96    47    46    1
    97    50    51   ar
    98    22    23    2
    99    37    34   am
   100    37    38    1
   101    34    35    2
   102    46    45    1
   103    45    39   am
   104    41    38    1
   105    41    42    1
   106    38    39    1
   107    42    44   ar
   108    42    43   ar
   109    39    40    2
