@<TRIPOS>MOLECULE
tmp/3ggdA00.pdb
 147 145 0 0 0
SMALL
GASTEIGER

@<TRIPOS>ATOM
      1  N         25.4590   37.4710    9.5150 N.3    17  TRP17      -0.1241
      2  CA        24.7700   37.9680    8.3350 C.3    17  TRP17       0.1605
      3  C         25.7050   38.5380    7.2750 C.2    17  TRP17       0.2264
      4  O         25.4780   38.3370    6.0840 O.2    17  TRP17      -0.2867
      5  CB        23.6790   38.9820    8.7090 C.3    17  TRP17       0.0550
      6  CG        22.4240   38.3050    9.1610 C.ar   17  TRP17       0.0003
      7  CD1       22.0160   38.0890   10.4580 C.ar   17  TRP17       0.0946
      8  CD2       21.4610   37.6630    8.3240 C.ar   17  TRP17       0.0152
      9  NE1       20.8360   37.3670   10.4590 N.ar   17  TRP17      -0.2442
     10  CE2       20.4660   37.1160    9.1660 C.ar   17  TRP17       0.0810
     11  CE3       21.3380   37.5060    6.9440 C.ar   17  TRP17       0.0012
     12  CZ2       19.3490   36.4540    8.6750 C.ar   17  TRP17       0.0191
     13  CZ3       20.2330   36.8430    6.4480 C.ar   17  TRP17       0.0001
     14  CH2       19.2550   36.3120    7.3100 C.ar   17  TRP17       0.0015
     15  N         17.1990   32.2730   -0.2820 N.3    32  LEU32      -0.1231
     16  CA        15.9570   31.5740    0.0190 C.3    32  LEU32       0.1693
     17  C         14.6900   32.4270   -0.0360 C.2    32  LEU32       0.2592
     18  O         13.6700   32.0010   -0.5680 O.2    32  LEU32      -0.2718
     19  CB        16.0640   30.9510    1.4390 C.3    32  LEU32       0.0284
     20  CG        14.8270   30.2850    2.0400 C.3    32  LEU32       0.0019
     21  CD1       14.5330   29.0050    1.2650 C.3    32  LEU32       0.0001
     22  CD2       15.0350   30.0140    3.5570 C.3    32  LEU32       0.0001
     23  N         14.7490   33.6120    0.5600 N.am   33  TRP33      -0.1976
     24  CA        13.5620   34.4780    0.6760 C.3    33  TRP33       0.1640
     25  C         13.3740   35.4590   -0.4910 C.2    33  TRP33       0.2290
     26  O         12.3870   36.2110   -0.5090 O.2    33  TRP33      -0.2864
     27  CB        13.6470   35.3000    1.9550 C.3    33  TRP33       0.0576
     28  CG        14.9580   36.0050    2.0450 C.ar   33  TRP33       0.0006
     29  CD1       15.3000   37.1960    1.4660 C.ar   33  TRP33       0.0946
     30  CD2       16.1210   35.5240    2.7030 C.ar   33  TRP33       0.0152
     31  NE1       16.6320   37.4880    1.7430 N.ar   33  TRP33      -0.2442
     32  CE2       17.1500   36.4710    2.4990 C.ar   33  TRP33       0.0810
     33  CE3       16.4010   34.3780    3.4520 C.ar   33  TRP33       0.0012
     34  CZ2       18.4340   36.3040    3.0280 C.ar   33  TRP33       0.0191
     35  CZ3       17.6720   34.2120    3.9710 C.ar   33  TRP33       0.0001
     36  CH2       18.6690   35.1720    3.7510 C.ar   33  TRP33       0.0015
     37  N         10.6000   39.8800    7.0180 N.3   129  THR129     -0.1218
     38  CA        11.3910   38.9040    7.7310 C.3   129  THR129      0.1862
     39  C         12.6350   39.4950    8.3620 C.2   129  THR129      0.2287
     40  O         13.7510   39.0370    8.1440 O.2   129  THR129     -0.2866
     41  CB        11.6590   37.6440    6.9010 C.3   129  THR129      0.1770
     42  OG1       12.1480   37.9760    5.5850 O.3   129  THR129     -0.2211
     43  CG2       10.3310   36.7980    6.7960 C.3   129  THR129      0.0375
     44  N         12.0710   37.3570   12.9410 N.3   132  HIS132     -0.1226
     45  CA        11.8810   35.9690   13.3880 C.3   132  HIS132      0.1752
     46  C         13.2170   35.2600   13.6270 C.2   132  HIS132      0.2596
     47  O         13.3230   34.4290   14.5290 O.2   132  HIS132     -0.2718
     48  CB        11.0450   35.1970   12.3810 C.3   132  HIS132      0.0759
     49  CG        11.8010   34.8560   11.1340 C.ar  132  HIS132      0.0818
     50  ND1       12.5170   33.6880   10.9960 N.ar  132  HIS132     -0.2268
     51  CD2       11.9980   35.5520    9.9920 C.ar  132  HIS132      0.1154
     52  CE1       13.1150   33.6710    9.8170 C.ar  132  HIS132      0.1986
     53  NE2       12.8300   34.7970    9.1930 N.ar  132  HIS132     -0.2212
     54  N         14.2510   35.6200   12.8650 N.am  133  HIS133     -0.1975
     55  CA        15.5630   34.9800   13.0270 C.3   133  HIS133      0.1656
     56  C         16.4090   35.5900   14.1480 C.2   133  HIS133      0.2291
     57  O         17.4800   35.0460   14.4790 O.2   133  HIS133     -0.2864
     58  CB        16.3460   35.0550   11.7120 C.3   133  HIS133      0.0771
     59  CG        16.4500   36.4440   11.1910 C.ar  133  HIS133      0.0820
     60  ND1       17.3500   37.3650   11.6970 N.ar  133  HIS133     -0.2267
     61  CD2       15.7470   37.0830   10.2250 C.ar  133  HIS133      0.1154
     62  CE1       17.1900   38.5100   11.0580 C.ar  133  HIS133      0.1986
     63  NE2       16.2190   38.3650   10.1730 N.ar  133  HIS133     -0.2212
     64  N          7.9700   34.9890    9.7920 N.3   160  LEU160     -0.1245
     65  CA         7.5780   33.5880    9.8670 C.3   160  LEU160      0.1561
     66  C          6.8590   33.4500   11.1860 C.2   160  LEU160      0.2260
     67  O          7.3160   33.9930   12.1950 O.2   160  LEU160     -0.2867
     68  CB         8.7830   32.6570    9.7500 C.3   160  LEU160      0.0270
     69  CG         9.5820   32.7880    8.4290 C.3   160  LEU160      0.0019
     70  CD1       10.6310   31.6650    8.2560 C.3   160  LEU160      0.0001
     71  CD2        8.6590   32.8350    7.2120 C.3   160  LEU160      0.0001
     72  N          9.3120   23.3840    8.5410 N.3   168  PHE168     -0.1241
     73  CA        10.6220   22.9750    8.0410 C.3   168  PHE168      0.1605
     74  C         11.0000   21.5440    8.4460 C.2   168  PHE168      0.2264
     75  O         11.5690   20.7970    7.6490 O.2   168  PHE168     -0.2867
     76  CB        11.7050   23.9780    8.4230 C.3   168  PHE168      0.0534
     77  CG        11.6480   25.2340    7.6340 C.ar  168  PHE168     -0.0203
     78  CD1       11.8560   25.2060    6.2680 C.ar  168  PHE168     -0.0042
     79  CD2       11.3980   26.4450    8.2480 C.ar  168  PHE168     -0.0042
     80  CE1       11.7770   26.3460    5.5320 C.ar  168  PHE168     -0.0003
     81  CE2       11.3210   27.6240    7.5150 C.ar  168  PHE168     -0.0003
     82  CZ        11.5230   27.5910    6.1660 C.ar  168  PHE168     -0.0000
     83  N         17.9400   26.9950    2.3680 N.3   182  LEU182     -0.1245
     84  CA        17.8790   27.2500    3.8150 C.3   182  LEU182      0.1561
     85  C         19.2150   26.8250    4.4230 C.2   182  LEU182      0.2260
     86  O         19.7690   27.5130    5.2640 O.2   182  LEU182     -0.2867
     87  CB        16.7390   26.4910    4.4760 C.3   182  LEU182      0.0270
     88  CG        16.6300   26.5980    6.0240 C.3   182  LEU182      0.0019
     89  CD1       16.4690   28.0580    6.5130 C.3   182  LEU182      0.0001
     90  CD2       15.5000   25.7150    6.5360 C.3   182  LEU182      0.0001
     91  N         21.8540   29.4940    4.4640 N.3   185  VAL185     -0.1245
     92  CA        21.8420   30.5170    5.5180 C.3   185  VAL185      0.1561
     93  C         22.3430   29.8980    6.8250 C.2   185  VAL185      0.2260
     94  O         23.1580   30.4840    7.5330 O.2   185  VAL185     -0.2867
     95  CB        20.4130   31.1310    5.8000 C.3   185  VAL185      0.0252
     96  CG1       20.5370   32.5690    6.3900 C.3   185  VAL185      0.0019
     97  CG2       19.5430   31.1270    4.5480 C.3   185  VAL185      0.0019
     98  N         22.8540   31.1060   11.5560 N.3   189  ILE189     -0.1231
     99  CA        21.5280   31.7570   11.5130 C.3   189  ILE189      0.1692
    100  C         20.4520   30.6750   11.4720 C.2   189  ILE189      0.2592
    101  O         20.6530   29.6050   10.8530 O.2   189  ILE189     -0.2718
    102  CB        21.4060   32.6640   10.2600 C.3   189  ILE189      0.0266
    103  CG1       22.4560   33.8040   10.3320 C.3   189  ILE189      0.0019
    104  CG2       19.9670   33.2280   10.0760 C.3   189  ILE189      0.0020
    105  CD1       22.8870   34.3970    8.9670 C.3   189  ILE189      0.0001
    106  N         19.3430   30.9270   12.1770 N.am  190  ARG190     -0.1966
    107  CA        18.2230   29.9850   12.2490 C.3   190  ARG190      0.1714
    108  C         16.9170   30.7270   12.0670 C.2   190  ARG190      0.2458
    109  O         16.7610   31.8460   12.5430 O.2   190  ARG190     -0.2730
    110  CB        18.1620   29.2700   13.5930 C.3   190  ARG190      0.0347
    111  CG        19.3690   28.4020   13.9030 C.3   190  ARG190      0.0492
    112  CD        19.3780   27.1620   13.0290 C.3   190  ARG190      0.2205
    113  NE        20.5330   26.2830   13.2920 N.pl3 190  ARG190     -0.0865
    114  CZ        21.7190   26.3560   12.6910 C.cat 190  ARG190      0.5346
    115  NH1       21.9860   27.2620   11.7630 N.pl3 190  ARG190      0.1354
    116  NH2       22.6420   25.4990   13.0170 N.pl3 190  ARG190      0.1354
    117  N         15.9650   30.0960   11.3840 N.am  191  PRO191     -0.2727
    118  CA        14.6410   30.6920   11.2980 C.3   191  PRO191      0.1402
    119  C         13.9960   30.5570   12.6630 C.2   191  PRO191      0.2269
    120  O         14.3210   29.6270   13.4120 O.2   191  PRO191     -0.2865
    121  CB        13.9160   29.8050   10.2740 C.3   191  PRO191      0.0296
    122  CG        14.5590   28.4870   10.4120 C.3   191  PRO191      0.0237
    123  CD        16.0150   28.7660   10.7550 C.3   191  PRO191      0.0939
    124  N          4.3470   32.8470    3.5090 N.3   216  PHE216     -0.1241
    125  CA         5.5650   33.5680    3.1560 C.3   216  PHE216      0.1605
    126  C          6.1430   32.8680    1.9460 C.2   216  PHE216      0.2264
    127  O          6.1990   31.6430    1.9100 O.2   216  PHE216     -0.2867
    128  CB         6.5860   33.5590    4.2810 C.3   216  PHE216      0.0534
    129  CG         7.7910   34.3840    3.9830 C.ar  216  PHE216     -0.0203
    130  CD1        7.7560   35.7590    4.1490 C.ar  216  PHE216     -0.0042
    131  CD2        8.9570   33.7960    3.5030 C.ar  216  PHE216     -0.0042
    132  CE1        8.8750   36.5410    3.8360 C.ar  216  PHE216     -0.0003
    133  CE2       10.0760   34.5560    3.2130 C.ar  216  PHE216     -0.0003
    134  CZ        10.0390   35.9310    3.3750 C.ar  216  PHE216     -0.0000
    135  N          9.0200   31.6550   -0.5770 N.3   218  SER218     -0.1217
    136  CA        10.4340   31.3640   -0.7520 C.3   218  SER218      0.1889
    137  C         10.6840   31.0050   -2.2210 C.2   218  SER218      0.2288
    138  O          9.7410   30.8820   -2.9940 O.2   218  SER218     -0.2866
    139  CB        10.8900   30.1960    0.1450 C.3   218  SER218      0.2089
    140  OG        10.6970   28.9300   -0.4540 O.3   218  SER218     -0.2183
    141  N          6.3210   28.7150    3.9040 N.3   230  PRO230     -0.2116
    142  CA         6.0600   28.6130    5.3430 C.3   230  PRO230      0.1372
    143  C          4.9780   29.5830    5.8480 C.2   230  PRO230      0.2244
    144  O          4.6800   30.5960    5.1980 O.2   230  PRO230     -0.2868
    145  CB         7.4100   28.9700    5.9750 C.3   230  PRO230      0.0268
    146  CG         8.1430   29.7620    4.9130 C.3   230  PRO230      0.0207
    147  CD         7.6830   29.1910    3.6070 C.3   230  PRO230      0.0892
@<TRIPOS>BOND
     1   138   137    2
     2   137   136    1
     3   136   135    1
     4   136   139    1
     5    18    17    2
     6    26    25    2
     7    25    24    1
     8   140   139    1
     9    15    16    1
    10    17    16    1
    11    17    23   am
    12    16    19    1
    13    23    24    1
    14    24    27    1
    15    21    20    1
    16    19    20    1
    17    29    31   ar
    18    29    28   ar
    19    31    32   ar
    20   127   126    2
    21   126   125    1
    22    27    28    1
    23    20    22    1
    24    28    30   ar
    25    83    84    1
    26    32    30   ar
    27    32    34   ar
    28    30    33   ar
    29    34    36   ar
    30   125   124    1
    31   125   128    1
    32   133   134   ar
    33   133   131   ar
    34   134   132   ar
    35    33    35   ar
    36   131   129   ar
    37   147   141    1
    38   147   146    1
    39    36    35   ar
    40    84    85    1
    41    84    87    1
    42   132   130   ar
    43   141   142    1
    44   129   130   ar
    45   129   128    1
    46    85    86    2
    47    91    92    1
    48    87    88    1
    49    97    95    1
    50   146   145    1
    51   144   143    2
    52   142   143    1
    53   142   145    1
    54    92    95    1
    55    92    93    1
    56    80    82   ar
    57    80    78   ar
    58    42    41    1
    59    95    96    1
    60    88    89    1
    61    88    90    1
    62     4     3    2
    63    82    81   ar
    64    78    77   ar
    65    13    11   ar
    66    13    14   ar
    67    43    41    1
    68    93    94    2
    69    41    38    1
    70    11     8   ar
    71    37    38    1
    72    71    69    1
    73     3     2    1
    74    14    12   ar
    75    81    79   ar
    76    77    79   ar
    77    77    76    1
    78    75    74    2
    79    38    39    1
    80    73    76    1
    81    73    74    1
    82    73    72    1
    83    40    39    2
    84    70    69    1
    85     8     6   ar
    86     8    10   ar
    87     2     5    1
    88     2     1    1
    89    69    68    1
    90    12    10   ar
    91     5     6    1
    92   105   103    1
    93     6     7   ar
    94    10     9   ar
    95    53    52   ar
    96    53    51   ar
    97    68    65    1
    98    64    65    1
    99    52    50   ar
   100    65    66    1
   101    51    49   ar
   102   104   102    1
   103    63    61   ar
   104    63    62   ar
   105    61    59   ar
   106   102   103    1
   107   102    99    1
   108   121   122    1
   109   121   118    1
   110   122   123    1
   111     7     9   ar
   112   123   117    1
   113   101   100    2
   114    50    49   ar
   115    62    60   ar
   116    49    48    1
   117    66    67    2
   118    59    60   ar
   119    59    58    1
   120   118   117    1
   121   118   119    1
   122   117   108   am
   123   100    99    1
   124   100   106   am
   125    99    98    1
   126    58    55    1
   127   115   114    1
   128   108   107    1
   129   108   109    2
   130   106   107    1
   131   107   110    1
   132    48    45    1
   133   119   120    2
   134   114   116    1
   135   114   113    2
   136    54    55    1
   137    54    46   am
   138    44    45    1
   139    55    56    1
   140   112   113    1
   141   112   111    1
   142    45    46    1
   143   110   111    1
   144    46    47    2
   145    56    57    2
