@<TRIPOS>MOLECULE
tmp/3ggdA01.pdb
 237 234 0 0 0
SMALL
GASTEIGER

@<TRIPOS>ATOM
      1  N         25.2050   38.3390   15.5970 N.3    13  VAL13      -0.1231
      2  CA        24.2390   38.4890   14.5380 C.3    13  VAL13       0.1692
      3  C         24.8010   39.2890   13.3420 C.2    13  VAL13       0.2591
      4  O         24.6430   38.8640   12.1850 O.2    13  VAL13      -0.2718
      5  CB        22.9160   39.1190   15.0860 C.3    13  VAL13       0.0266
      6  CG1       21.9500   39.5460   13.9270 C.3    13  VAL13       0.0020
      7  CG2       22.2390   38.1610   16.1030 C.3    13  VAL13       0.0020
      8  N         25.4420   40.4340   13.6150 N.am   14  ALA14      -0.1980
      9  CA        26.0170   41.2980   12.5570 C.3    14  ALA14       0.1597
     10  C         27.0340   40.5160   11.7280 C.2    14  ALA14       0.2287
     11  O         26.9570   40.4990   10.5060 O.2    14  ALA14      -0.2864
     12  CB        26.6730   42.5780   13.1710 C.3    14  ALA14       0.0319
     13  N         25.4590   37.4710    9.5150 N.3    17  TRP17      -0.1241
     14  CA        24.7700   37.9680    8.3350 C.3    17  TRP17       0.1605
     15  C         25.7050   38.5380    7.2750 C.2    17  TRP17       0.2264
     16  O         25.4780   38.3370    6.0840 O.2    17  TRP17      -0.2867
     17  CB        23.6790   38.9820    8.7090 C.3    17  TRP17       0.0550
     18  CG        22.4240   38.3050    9.1610 C.ar   17  TRP17       0.0003
     19  CD1       22.0160   38.0890   10.4580 C.ar   17  TRP17       0.0946
     20  CD2       21.4610   37.6630    8.3240 C.ar   17  TRP17       0.0152
     21  NE1       20.8360   37.3670   10.4590 N.ar   17  TRP17      -0.2442
     22  CE2       20.4660   37.1160    9.1660 C.ar   17  TRP17       0.0810
     23  CE3       21.3380   37.5060    6.9440 C.ar   17  TRP17       0.0012
     24  CZ2       19.3490   36.4540    8.6750 C.ar   17  TRP17       0.0191
     25  CZ3       20.2330   36.8430    6.4480 C.ar   17  TRP17       0.0001
     26  CH2       19.2550   36.3120    7.3100 C.ar   17  TRP17       0.0015
     27  N         26.0530   37.1630    3.4780 N.3    21  TRP21      -0.1241
     28  CA        25.8920   38.0460    2.3290 C.3    21  TRP21       0.1605
     29  C         27.1640   38.1590    1.5460 C.2    21  TRP21       0.2264
     30  O         27.1340   38.1940    0.3210 O.2    21  TRP21      -0.2867
     31  CB        25.3800   39.4140    2.7490 C.3    21  TRP21       0.0550
     32  CG        23.8970   39.4810    2.9540 C.ar   21  TRP21       0.0003
     33  CD1       23.2360   39.7940    4.1190 C.ar   21  TRP21       0.0946
     34  CD2       22.8720   39.2710    1.9640 C.ar   21  TRP21       0.0152
     35  NE1       21.8910   39.8030    3.9060 N.ar   21  TRP21      -0.2442
     36  CE2       21.6360   39.4730    2.5970 C.ar   21  TRP21       0.0810
     37  CE3       22.8910   38.9400    0.6010 C.ar   21  TRP21       0.0012
     38  CZ2       20.4270   39.3870    1.9160 C.ar   21  TRP21       0.0191
     39  CZ3       21.6760   38.8160   -0.0820 C.ar   21  TRP21       0.0001
     40  CH2       20.4650   39.0460    0.5700 C.ar   21  TRP21       0.0015
     41  N         14.7490   33.6120    0.5600 N.3    33  TRP33      -0.1227
     42  CA        13.5620   34.4780    0.6760 C.3    33  TRP33       0.1737
     43  C         13.3740   35.4590   -0.4910 C.2    33  TRP33       0.2595
     44  O         12.3870   36.2110   -0.5090 O.2    33  TRP33      -0.2718
     45  CB        13.6470   35.3000    1.9550 C.3    33  TRP33       0.0564
     46  CG        14.9580   36.0050    2.0450 C.ar   33  TRP33       0.0003
     47  CD1       15.3000   37.1960    1.4660 C.ar   33  TRP33       0.0946
     48  CD2       16.1210   35.5240    2.7030 C.ar   33  TRP33       0.0152
     49  NE1       16.6320   37.4880    1.7430 N.ar   33  TRP33      -0.2442
     50  CE2       17.1500   36.4710    2.4990 C.ar   33  TRP33       0.0810
     51  CE3       16.4010   34.3780    3.4520 C.ar   33  TRP33       0.0012
     52  CZ2       18.4340   36.3040    3.0280 C.ar   33  TRP33       0.0191
     53  CZ3       17.6720   34.2120    3.9710 C.ar   33  TRP33       0.0001
     54  CH2       18.6690   35.1720    3.7510 C.ar   33  TRP33       0.0015
     55  N         14.2640   35.4220   -1.4730 N.am   34  ASP34      -0.1974
     56  CA        14.3070   36.4820   -2.4850 C.3    34  ASP34       0.1709
     57  C         13.3370   36.1740   -3.6460 C.2    34  ASP34       0.2293
     58  O         13.7320   35.9770   -4.7920 O.2    34  ASP34      -0.2864
     59  CB        15.7600   36.6700   -2.9470 C.3    34  ASP34       0.1436
     60  CG        15.9860   37.9490   -3.7420 C.2    34  ASP34       0.3671
     61  OD1       15.1870   38.9170   -3.6060 O.co2  34  ASP34      -0.2456
     62  OD2       17.0020   38.0010   -4.4700 O.co2  34  ASP34      -0.2456
     63  N         12.8710   50.7080    4.3900 N.3    60  ASP60      -0.1225
     64  CA        12.8750   49.2270    4.1820 C.3    60  ASP60       0.1805
     65  C         13.9110   48.7440    5.1670 C.2    60  ASP60       0.2598
     66  O         15.1150   48.8700    4.9430 O.2    60  ASP60      -0.2718
     67  CB        13.2640   48.8240    2.7500 C.3    60  ASP60       0.1424
     68  CG        13.1070   47.3300    2.4890 C.2    60  ASP60       0.3668
     69  OD1       12.9270   46.5470    3.4540 O.co2  60  ASP60      -0.2456
     70  OD2       13.1790   46.9300    1.3030 O.co2  60  ASP60      -0.2456
     71  N         13.4300   48.2790    6.3170 N.am   61  PHE61      -0.1962
     72  CA        14.2960   47.8980    7.4240 C.3    61  PHE61       0.1771
     73  C         14.7800   46.4530    7.2320 C.2    61  PHE61       0.2619
     74  O         13.9460   45.5510    7.1040 O.2    61  PHE61      -0.2715
     75  CB        13.5580   47.9740    8.7680 C.3    61  PHE61       0.0574
     76  CG        14.4930   47.8700    9.9010 C.ar   61  PHE61      -0.0200
     77  CD1       14.9740   46.6340   10.2970 C.ar   61  PHE61      -0.0042
     78  CD2       15.0220   49.0160   10.4650 C.ar   61  PHE61      -0.0042
     79  CE1       15.9170   46.5270   11.2900 C.ar   61  PHE61      -0.0003
     80  CE2       15.9830   48.9260   11.4770 C.ar   61  PHE61      -0.0003
     81  CZ        16.4490   47.6740   11.8720 C.ar   61  PHE61      -0.0000
     82  N         16.1050   46.2360    7.2080 N.am   62  ALA62      -0.1963
     83  CA        16.6960   44.8990    6.9180 C.3    62  ALA62       0.1728
     84  C         16.3710   44.5390    5.4510 C.2    62  ALA62       0.2616
     85  O         15.8120   43.4840    5.1190 O.2    62  ALA62      -0.2715
     86  CB        16.2160   43.7880    7.9440 C.3    62  ALA62       0.0334
     87  N         16.6920   45.4730    4.5710 N.am   63  CYS63      -0.1954
     88  CA        16.3360   45.3940    3.1640 C.3    63  CYS63       0.1843
     89  C         17.0810   44.3330    2.3310 C.2    63  CYS63       0.2626
     90  O         16.7410   44.1000    1.1520 O.2    63  CYS63      -0.2714
     91  CB        16.5390   46.7660    2.5240 C.3    63  CYS63       0.0997
     92  SG        18.2950   47.2990    2.5040 S.3    63  CYS63      -0.0797
     93  N         18.1270   43.7260    2.8950 N.am   64  GLY64      -0.1940
     94  CA        18.8700   42.6910    2.1730 C.3    64  GLY64       0.2014
     95  C         19.4350   43.2490    0.8680 C.2    64  GLY64       0.2638
     96  O         19.9860   44.3610    0.8440 O.2    64  GLY64      -0.2714
     97  N         19.2520   42.5050   -0.2180 N.am   65  ASN65      -0.1972
     98  CA        19.7590   42.8880   -1.5310 C.3    65  ASN65       0.1688
     99  C         18.8730   43.8320   -2.3060 C.2    65  ASN65       0.2292
    100  O         19.1130   44.0880   -3.5000 O.2    65  ASN65      -0.2864
    101  CB        20.0760   41.6620   -2.3980 C.3    65  ASN65       0.1181
    102  CG        18.8640   40.7980   -2.6560 C.2    65  ASN65       0.2629
    103  OD1       17.7790   41.1090   -2.2020 O.2    65  ASN65      -0.2716
    104  ND2       19.0480   39.7090   -3.3780 N.am   65  ASN65      -0.0877
    105  N         15.6810   43.8020   -3.4180 N.3    67  THR67      -0.1203
    106  CA        14.6960   43.3990   -4.4050 C.3    67  THR67       0.1994
    107  C         13.3620   44.0790   -4.1360 C.2    67  THR67       0.2617
    108  O         12.7560   44.5930   -5.0540 O.2    67  THR67      -0.2717
    109  CB        14.4800   41.8950   -4.4050 C.3    67  THR67       0.1784
    110  OG1       15.7500   41.2300   -4.6070 O.3    67  THR67      -0.2211
    111  CG2       13.4540   41.4780   -5.5050 C.3    67  THR67       0.0376
    112  N         12.9230   44.1260   -2.8690 N.am   68  GLN68      -0.1979
    113  CA        11.6120   44.7260   -2.5610 C.3    68  GLN68       0.1601
    114  C         11.6820   46.2480   -2.5260 C.2    68  GLN68       0.2287
    115  O         10.6920   46.9640   -2.8410 O.2    68  GLN68      -0.2864
    116  CB        11.0630   44.1750   -1.2350 C.3    68  GLN68       0.0394
    117  CG        11.1040   42.6110   -1.0890 C.3    68  GLN68       0.0908
    118  CD        10.4930   41.8340   -2.2670 C.2    68  GLN68       0.2608
    119  OE1        9.4330   42.2000   -2.7870 O.2    68  GLN68      -0.2717
    120  NE2       11.1360   40.7240   -2.6600 N.am   68  GLN68      -0.0878
    121  N         17.8620   50.0410    4.8340 N.3    82  LEU82      -0.1231
    122  CA        18.8110   49.8520    5.9270 C.3    82  LEU82       0.1693
    123  C         19.1120   48.3530    6.1070 C.2    82  LEU82       0.2592
    124  O         18.2020   47.5090    6.0890 O.2    82  LEU82      -0.2718
    125  CB        18.2430   50.4050    7.2230 C.3    82  LEU82       0.0284
    126  CG        17.9280   51.9130    7.2980 C.3    82  LEU82       0.0019
    127  CD1       17.2930   52.2050    8.6940 C.3    82  LEU82       0.0001
    128  CD2       19.1470   52.7560    7.0190 C.3    82  LEU82       0.0001
    129  N         20.3860   48.0320    6.3190 N.am   83  ASP83      -0.1960
    130  CA        20.7720   46.6680    6.6090 C.3    83  ASP83       0.1840
    131  C         22.0720   46.6800    7.3950 C.2    83  ASP83       0.2622
    132  O         22.9090   47.5970    7.2440 O.2    83  ASP83      -0.2715
    133  CB        20.9090   45.8440    5.3240 C.3    83  ASP83       0.1450
    134  CG        20.7420   44.3440    5.5740 C.2    83  ASP83       0.3671
    135  OD1       21.7310   43.6860    6.0170 O.co2  83  ASP83      -0.2456
    136  OD2       19.6110   43.8170    5.3360 O.co2  83  ASP83      -0.2456
    137  N         22.2510   45.6570    8.2190 N.am   84  VAL84      -0.1963
    138  CA        23.4870   45.4740    8.9780 C.3    84  VAL84       0.1727
    139  C         24.6760   45.0670    8.1190 C.2    84  VAL84       0.2616
    140  O         25.8180   45.3140    8.5120 O.2    84  VAL84      -0.2715
    141  CB        23.3060   44.3910   10.1070 C.3    84  VAL84       0.0290
    142  CG1       23.2750   42.9600    9.5500 C.3    84  VAL84       0.0023
    143  CG2       24.3730   44.5380   11.2120 C.3    84  VAL84       0.0023
    144  N         24.4150   44.4890    6.9320 N.am   85  SER85      -0.1950
    145  CA        25.4590   43.9090    6.1150 C.3    85  SER85       0.1924
    146  C         25.9070   44.7980    4.9800 C.2    85  SER85       0.2314
    147  O         25.1030   45.1310    4.0870 O.2    85  SER85      -0.2863
    148  CB        24.9750   42.5700    5.4960 C.3    85  SER85       0.2116
    149  OG        25.9000   42.0760    4.5120 O.3    85  SER85      -0.2180
    150  N         23.0530   50.0030    8.9570 N.3   106  LEU106     -0.1231
    151  CA        22.5000   50.1810   10.3040 C.3   106  LEU106      0.1693
    152  C         22.3210   48.8280   10.9640 C.2   106  LEU106      0.2592
    153  O         21.8400   47.8680   10.3410 O.2   106  LEU106     -0.2718
    154  CB        21.1590   50.9640   10.3180 C.3   106  LEU106      0.0284
    155  CG        20.4530   51.1380   11.6960 C.3   106  LEU106      0.0019
    156  CD1       19.8270   52.5620   11.8710 C.3   106  LEU106      0.0001
    157  CD2       19.4060   50.0870   11.8980 C.3   106  LEU106      0.0001
    158  N         22.6820   48.7800   12.2320 N.am  107  ASP107     -0.1960
    159  CA        22.5110   47.6070   13.0460 C.3   107  ASP107      0.1840
    160  C         21.3760   47.8280   14.0280 C.2   107  ASP107      0.2623
    161  O         21.5220   48.6040   14.9800 O.2   107  ASP107     -0.2715
    162  CB        23.8410   47.2950   13.7950 C.3   107  ASP107      0.1450
    163  CG        23.8110   45.9450   14.5270 C.2   107  ASP107      0.3671
    164  OD1       22.6980   45.4390   14.8330 O.co2 107  ASP107     -0.2456
    165  OD2       24.9050   45.3800   14.7660 O.co2 107  ASP107     -0.2456
    166  N         20.2720   47.1020   13.8170 N.am  108  GLY108     -0.1940
    167  CA        19.0870   47.1810   14.6630 C.3   108  GLY108      0.2014
    168  C         19.2970   46.8160   16.1360 C.2   108  GLY108      0.2638
    169  O         18.4660   47.1570   16.9870 O.2   108  GLY108     -0.2714
    170  N         20.4210   46.1420   16.4280 N.am  109  LEU109     -0.1977
    171  CA        20.7430   45.7390   17.7800 C.3   109  LEU109      0.1596
    172  C         21.5790   46.8060   18.4640 C.2   109  LEU109      0.2287
    173  O         21.9480   46.6250   19.5950 O.2   109  LEU109     -0.2864
    174  CB        21.4360   44.3590   17.8120 C.3   109  LEU109      0.0297
    175  CG        20.5950   43.2340   17.1700 C.3   109  LEU109      0.0022
    176  CD1       21.3520   41.8570   17.3400 C.3   109  LEU109      0.0001
    177  CD2       19.2030   43.1590   17.7900 C.3   109  LEU109      0.0001
    178  N          8.7050   49.4200    6.3780 N.3   127  TYR127     -0.1241
    179  CA         8.3910   48.1440    5.7720 C.3   127  TYR127      0.1605
    180  C          9.4900   47.1770    6.2080 C.2   127  TYR127      0.2264
    181  O         10.6920   47.4550    6.0180 O.2   127  TYR127     -0.2867
    182  CB         8.4110   48.2480    4.2340 C.3   127  TYR127      0.0534
    183  CG         8.2540   46.9260    3.5080 C.ar  127  TYR127     -0.0201
    184  CD1        7.0100   46.3570    3.3210 C.ar  127  TYR127     -0.0009
    185  CD2        9.3610   46.2350    3.0170 C.ar  127  TYR127     -0.0009
    186  CE1        6.8660   45.1360    2.6240 C.ar  127  TYR127      0.0417
    187  CE2        9.2280   45.0490    2.2930 C.ar  127  TYR127      0.0417
    188  CZ         7.9720   44.4920    2.1050 C.ar  127  TYR127      0.1957
    189  OH         7.8100   43.2930    1.4190 O.3   127  TYR127     -0.2866
    190  N         10.3400   43.0090    5.9850 N.3   128  ARG128     -0.1231
    191  CA        10.0200   41.6650    5.5110 C.3   128  ARG128      0.1694
    192  C         11.0620   40.6790    6.0740 C.2   128  ARG128      0.2593
    193  O         12.2360   40.6430    5.6540 O.2   128  ARG128     -0.2718
    194  CB        10.0010   41.6480    3.9800 C.3   128  ARG128      0.0321
    195  CG         9.5880   40.2890    3.4090 C.3   128  ARG128      0.0489
    196  CD         9.4570   40.3470    1.8660 C.3   128  ARG128      0.2205
    197  NE         8.9850   39.0750    1.3150 N.pl3 128  ARG128     -0.0865
    198  CZ         9.7820   38.1260    0.8520 C.cat 128  ARG128      0.5346
    199  NH1       11.0900   38.3020    0.8630 N.pl3 128  ARG128      0.1354
    200  NH2        9.2630   37.0100    0.3500 N.pl3 128  ARG128      0.1354
    201  N         10.6000   39.8800    7.0180 N.am  129  THR129     -0.1939
    202  CA        11.3910   38.9040    7.7310 C.3   129  THR129      0.2028
    203  C         12.6350   39.4950    8.3620 C.2   129  THR129      0.2642
    204  O         13.7510   39.0370    8.1440 O.2   129  THR129     -0.2714
    205  CB        11.6590   37.6440    6.9010 C.3   129  THR129      0.1808
    206  OG1       12.1480   37.9760    5.5850 O.3   129  THR129     -0.2208
    207  CG2       10.3310   36.7980    6.7960 C.3   129  THR129      0.0379
    208  N         12.4360   40.5280    9.1660 N.am  130  GLY130     -0.1954
    209  CA        13.5500   41.1290    9.8870 C.3   130  GLY130      0.1869
    210  C         13.6190   40.7410   11.3430 C.2   130  GLY130      0.2309
    211  O         14.5960   41.0630   12.0060 O.2   130  GLY130     -0.2863
    212  N         14.2510   35.6200   12.8650 N.3   133  HIS133     -0.1226
    213  CA        15.5630   34.9800   13.0270 C.3   133  HIS133      0.1752
    214  C         16.4090   35.5900   14.1480 C.2   133  HIS133      0.2595
    215  O         17.4800   35.0460   14.4790 O.2   133  HIS133     -0.2718
    216  CB        16.3460   35.0550   11.7120 C.3   133  HIS133      0.0759
    217  CG        16.4500   36.4440   11.1910 C.ar  133  HIS133      0.0818
    218  ND1       17.3500   37.3650   11.6970 N.ar  133  HIS133     -0.2268
    219  CD2       15.7470   37.0830   10.2250 C.ar  133  HIS133      0.1154
    220  CE1       17.1900   38.5100   11.0580 C.ar  133  HIS133      0.1986
    221  NE2       16.2190   38.3650   10.1730 N.ar  133  HIS133     -0.2212
    222  N         15.9740   36.7190   14.7140 N.am  134  ILE134     -0.1980
    223  CA        16.7290   37.3510   15.7920 C.3   134  ILE134      0.1595
    224  C         16.6490   36.5030   17.0610 C.2   134  ILE134      0.2287
    225  O         15.5570   36.1090   17.4970 O.2   134  ILE134     -0.2864
    226  CB        16.2490   38.8120   16.0710 C.3   134  ILE134      0.0276
    227  CG1       16.3930   39.6890   14.8130 C.3   134  ILE134      0.0022
    228  CG2       17.0050   39.4450   17.2810 C.3   134  ILE134      0.0022
    229  CD1       17.8240   40.1310   14.4360 C.3   134  ILE134      0.0001
    230  N         16.0920   45.2880   19.0660 N.3   142  LEU142     -0.1245
    231  CA        15.5410   45.6190   17.7670 C.3   142  LEU142      0.1561
    232  C         14.2130   46.4140   17.9670 C.2   142  LEU142      0.2260
    233  O         13.9350   47.3970   17.2510 O.2   142  LEU142     -0.2867
    234  CB        15.3210   44.3520   16.9240 C.3   142  LEU142      0.0270
    235  CG        14.7400   44.5440   15.5110 C.3   142  LEU142      0.0019
    236  CD1       15.5250   45.5530   14.6980 C.3   142  LEU142      0.0001
    237  CD2       14.6150   43.1810   14.7510 C.3   142  LEU142      0.0001
@<TRIPOS>BOND
     1   111   109    1
     2   108   107    2
     3    58    57    2
     4   110   109    1
     5    62    60   ar
     6   109   106    1
     7   106   107    1
     8   106   105    1
     9   107   112   am
    10    60    61   ar
    11    60    59    1
    12    57    56    1
    13   100    99    2
    14   104   102   am
    15    59    56    1
    16   112   113    1
    17   115   114    2
    18   119   118    2
    19   120   118   am
    20   102   101    1
    21   102   103    2
    22   113   114    1
    23   113   116    1
    24    56    55    1
    25   101    98    1
    26    99    98    1
    27   118   117    1
    28    98    97    1
    29    55    43   am
    30   116   117    1
    31    44    43    2
    32    43    42    1
    33    97    95   am
    34    39    40   ar
    35    39    37   ar
    36    30    29    2
    37   200   198    1
    38    41    42    1
    39    40    38   ar
    40    37    34   ar
    41    42    45    1
    42    96    95    2
    43   198   199    1
    44   198   197    2
    45    95    94    1
    46    90    89    2
    47    70    68   ar
    48   197   196    1
    49   189   188    1
    50    47    49   ar
    51    47    46   ar
    52    29    28    1
    53    49    50   ar
    54   196   195    1
    55    38    36   ar
    56    45    46    1
    57    34    36   ar
    58    34    32   ar
    59    46    48   ar
    60   188   187   ar
    61   188   186   ar
    62    94    93    1
    63   187   185   ar
    64    28    31    1
    65    28    27    1
    66    89    93   am
    67    89    88    1
    68    68    67    1
    69    68    69   ar
    70    50    48   ar
    71    50    52   ar
    72    92    91    1
    73    91    88    1
    74    36    35   ar
    75   186   184   ar
    76    48    51   ar
    77    31    32    1
    78    67    64    1
    79    32    33   ar
    80   185   183   ar
    81    52    54   ar
    82    88    87    1
    83   184   183   ar
    84   195   194    1
    85    51    53   ar
    86   183   182    1
    87    54    53   ar
    88    35    33   ar
    89   194   191    1
    90   147   146    2
    91    64    63    1
    92    64    65    1
    93   182   179    1
    94   149   148    1
    95    87    84   am
    96   121   122    1
    97    66    65    2
    98   146   145    1
    99    85    84    2
   100    65    71   am
   101   133   134    1
   102   133   130    1
   103   136   134   ar
   104    84    83    1
   105   148   145    1
   106   191   190    1
   107   191   192    1
   108   134   135   ar
   109   206   205    1
   110   193   192    2
   111   179   180    1
   112   179   178    1
   113   122   123    1
   114   122   125    1
   115   181   180    2
   116   192   201   am
   117    16    15    2
   118   124   123    2
   119   123   129   am
   120   145   144    1
   121    71    72    1
   122   129   130    1
   123    25    23   ar
   124    25    26   ar
   125   130   131    1
   126   207   205    1
   127   205   202    1
   128    83    82    1
   129    83    86    1
   130   144   139   am
   131    23    20   ar
   132   201   202    1
   133   128   126    1
   134    74    73    2
   135    82    73   am
   136   125   126    1
   137    73    72    1
   138   132   131    2
   139    15    14    1
   140   126   127    1
   141    26    24   ar
   142   131   137   am
   143    72    75    1
   144   202   203    1
   145   139   140    2
   146   139   138    1
   147   204   203    2
   148   137   138    1
   149    20    18   ar
   150    20    22   ar
   151    14    17    1
   152    14    13    1
   153   203   208   am
   154    24    22   ar
   155    17    18    1
   156    75    76    1
   157   150   151    1
   158   138   141    1
   159    18    19   ar
   160    22    21   ar
   161   208   209    1
   162   142   141    1
   163   209   210    1
   164    76    77   ar
   165    76    78   ar
   166   141   143    1
   167   221   219   ar
   168   221   220   ar
   169   219   217   ar
   170    77    79   ar
   171   151   154    1
   172   151   152    1
   173   154   155    1
   174   153   152    2
   175    19    21   ar
   176    78    80   ar
   177    11    10    2
   178   152   158   am
   179   220   218   ar
   180   217   218   ar
   181   217   216    1
   182    79    81   ar
   183   210   211    2
   184    80    81   ar
   185   155   156    1
   186   155   157    1
   187   216   213    1
   188    10     9    1
   189     4     3    2
   190   158   159    1
   191     9    12    1
   192     9     8    1
   193   212   213    1
   194   213   214    1
   195   159   162    1
   196   159   160    1
   197     3     8   am
   198     3     2    1
   199   162   163    1
   200   166   160   am
   201   166   167    1
   202     6     5    1
   203   160   161    2
   204   214   215    2
   205   214   222   am
   206   229   227    1
   207   163   165   ar
   208   163   164   ar
   209     2     5    1
   210     2     1    1
   211   167   168    1
   212   236   235    1
   213   222   223    1
   214   237   235    1
   215   227   226    1
   216     5     7    1
   217   235   234    1
   218   223   226    1
   219   223   224    1
   220   226   228    1
   221   168   170   am
   222   168   169    2
   223   170   171    1
   224   234   231    1
   225   224   225    2
   226   175   176    1
   227   175   177    1
   228   175   174    1
   229   233   232    2
   230   231   232    1
   231   231   230    1
   232   171   174    1
   233   171   172    1
   234   172   173    2
