@<TRIPOS>MOLECULE
tmp/3ggfA00.pdb
 133 123 0 0 0
SMALL
GASTEIGER

@<TRIPOS>ATOM
      1  N         80.2600  -10.9030   87.6270 N.3    14  ILE14      -0.1231
      2  CA        80.4020  -11.8830   88.7110 C.3    14  ILE14       0.1692
      3  C         80.2250  -11.2830   90.1040 C.2    14  ILE14       0.2592
      4  O         79.9320  -12.0050   91.0630 O.2    14  ILE14      -0.2718
      5  CB        81.7420  -12.6800   88.6420 C.3    14  ILE14       0.0266
      6  CG1       82.9580  -11.7490   88.7320 C.3    14  ILE14       0.0019
      7  CG2       81.7980  -13.5220   87.3710 C.3    14  ILE14       0.0020
      8  CD1       84.2720  -12.4140   88.4240 C.3    14  ILE14       0.0001
      9  N         80.3520   -9.9670   90.2160 N.am   15  GLY15      -0.1957
     10  CA        80.2830   -9.3190   91.5140 C.3    15  GLY15       0.1869
     11  C         79.5400   -7.9950   91.5660 C.2    15  GLY15       0.2309
     12  O         79.8060   -7.0900   90.7920 O.2    15  GLY15      -0.2863
     13  N         79.7730   -6.0310   94.3190 N.3    17  GLY17      -0.1225
     14  CA        80.4690   -5.9080   95.5970 C.3    17  GLY17       0.1811
     15  C         80.1850   -4.5970   96.3030 C.2    17  GLY17       0.2280
     16  O         79.0910   -4.4160   96.8410 O.2    17  GLY17      -0.2866
     17  N         82.5540   -6.3780   89.3140 N.3    22  VAL22      -0.1245
     18  CA        83.6430   -7.2730   88.9530 C.3    22  VAL22       0.1561
     19  C         83.1670   -8.0880   87.7750 C.2    22  VAL22       0.2260
     20  O         82.0420   -8.5180   87.7530 O.2    22  VAL22      -0.2867
     21  CB        84.0180   -8.2020   90.1190 C.3    22  VAL22       0.0252
     22  CG1       85.1910   -9.0480   89.7750 C.3    22  VAL22       0.0019
     23  CG2       84.3000   -7.3560   91.3150 C.3    22  VAL22       0.0019
     24  N         89.9760  -11.5330   86.0890 N.3    35  ALA35      -0.1245
     25  CA        88.9060  -10.8460   86.7740 C.3    35  ALA35       0.1562
     26  C         89.2050   -9.3530   86.6890 C.2    35  ALA35       0.2260
     27  O         90.3580   -8.9350   86.8940 O.2    35  ALA35      -0.2867
     28  CB        88.7690  -11.3290   88.2280 C.3    35  ALA35       0.0290
     29  N         87.9320   -5.6720   88.1170 N.3    37  LYS37      -0.1245
     30  CA        87.1320   -4.8850   89.0290 C.3    37  LYS37       0.1561
     31  C         87.2260   -3.4340   88.6310 C.2    37  LYS37       0.2260
     32  O         88.3150   -2.8550   88.6250 O.2    37  LYS37      -0.2867
     33  CB        87.6230   -5.0490   90.4600 C.3    37  LYS37       0.0271
     34  CG        86.7480   -4.3180   91.4610 C.3    37  LYS37       0.0035
     35  CD        87.3310   -4.4210   92.8460 C.3    37  LYS37       0.0206
     36  CE        86.4620   -3.6920   93.9510 C.3    37  LYS37       0.1093
     37  NZ        84.9620   -3.7320   93.8280 N.3    37  LYS37      -0.1314
     38  N         94.0750  -14.0270   95.7000 N.3    67  THR67      -0.1218
     39  CA        93.8490  -13.8440   94.2690 C.3    67  THR67       0.1862
     40  C         94.8530  -12.7760   93.8430 C.2    67  THR67       0.2287
     41  O         94.8330  -11.6680   94.3720 O.2    67  THR67      -0.2866
     42  CB        92.4750  -13.2980   93.9980 C.3    67  THR67       0.1770
     43  OG1       92.3350  -12.0970   94.7580 O.3    67  THR67      -0.2211
     44  CG2       91.3940  -14.3100   94.4280 C.3    67  THR67       0.0375
     45  N         92.8240   -8.8250   87.8780 N.3    83  MET83      -0.1230
     46  CA        93.1660   -9.8490   88.8670 C.3    83  MET83       0.1702
     47  C         93.0720  -11.2570   88.3140 C.2    83  MET83       0.2592
     48  O         92.5490  -11.5150   87.2420 O.2    83  MET83      -0.2718
     49  CB        92.2270   -9.7310   90.0460 C.3    83  MET83       0.0401
     50  CG        92.2260   -8.3580   90.6580 C.3    83  MET83       0.0596
     51  SD        91.4610   -8.2770   92.2630 S.3    83  MET83      -0.1393
     52  CE        89.8830   -7.5700   91.8670 C.3    83  MET83       0.0692
     53  N         93.6000  -12.1770   89.0750 N.am   84  GLU84      -0.1966
     54  CA        93.4850  -13.6000   88.7760 C.3    84  GLU84       0.1733
     55  C         92.0270  -13.9990   88.7940 C.2    84  GLU84       0.2616
     56  O         91.2740  -13.5870   89.6660 O.2    84  GLU84      -0.2715
     57  CB        94.2100  -14.3910   89.8600 C.3    84  GLU84       0.0429
     58  CG        94.3070  -15.8820   89.5850 C.3    84  GLU84       0.1163
     59  CD        94.8790  -16.6630   90.7650 C.2    84  GLU84       0.3649
     60  OE1       95.1440  -16.0480   91.8250 O.co2  84  GLU84      -0.2457
     61  OE2       95.0430  -17.8980   90.6320 O.co2  84  GLU84      -0.2457
     62  N         91.6330  -14.7980   87.8090 N.am   85  TYR85      -0.1960
     63  CA        90.2810  -15.3160   87.7210 C.3    85  TYR85       0.1771
     64  C         90.2090  -16.7100   88.3090 C.2    85  TYR85       0.2619
     65  O         90.9460  -17.5760   87.9160 O.2    85  TYR85      -0.2715
     66  CB        89.8260  -15.3350   86.2550 C.3    85  TYR85       0.0574
     67  CG        88.4530  -15.9070   86.1170 C.ar   85  TYR85      -0.0198
     68  CD1       87.3470  -15.1820   86.5220 C.ar   85  TYR85      -0.0009
     69  CD2       88.2650  -17.2230   85.6820 C.ar   85  TYR85      -0.0009
     70  CE1       86.0650  -15.7190   86.4180 C.ar   85  TYR85       0.0417
     71  CE2       86.9950  -17.7700   85.6040 C.ar   85  TYR85       0.0417
     72  CZ        85.9000  -16.9950   85.9650 C.ar   85  TYR85       0.1957
     73  OH        84.6170  -17.4600   85.9290 O.3    85  TYR85      -0.2866
     74  N         89.2870  -16.9220   89.2380 N.am   86  LEU86      -0.1963
     75  CA        89.0080  -18.2520   89.7840 C.3    86  LEU86       0.1728
     76  C         87.6000  -18.6660   89.4070 C.2    86  LEU86       0.2617
     77  O         86.6480  -17.9590   89.6730 O.2    86  LEU86      -0.2715
     78  CB        89.1520  -18.2500   91.3070 C.3    86  LEU86       0.0311
     79  CG        90.5660  -18.5400   91.8340 C.3    86  LEU86       0.0022
     80  CD1       91.3710  -17.2820   91.9120 C.3    86  LEU86       0.0001
     81  CD2       90.4900  -19.1740   93.1980 C.3    86  LEU86       0.0001
     82  N         87.4660  -19.8330   88.7930 N.am   87  GLY87      -0.1940
     83  CA        86.2210  -20.1750   88.1150 C.3    87  GLY87       0.2014
     84  C         85.2730  -21.0550   88.8530 C.2    87  GLY87       0.2639
     85  O         84.2580  -21.4630   88.3080 O.2    87  GLY87      -0.2714
     86  N         85.5750  -21.3510   90.1040 N.am   88  GLY88      -0.1939
     87  CA        84.7650  -22.3270   90.8190 C.3    88  GLY88       0.2014
     88  C         83.6110  -21.7170   91.5610 C.2    88  GLY88       0.2639
     89  O         82.7100  -22.4300   92.0130 O.2    88  GLY88      -0.2714
     90  N         83.6520  -20.3940   91.7130 N.am   89  GLY89      -0.1939
     91  CA        82.7050  -19.6610   92.5610 C.3    89  GLY89       0.2014
     92  C         83.2410  -19.3590   93.9750 C.2    89  GLY89       0.2639
     93  O         84.2690  -19.8690   94.3870 O.2    89  GLY89      -0.2714
     94  N         82.5310  -18.5130   94.7080 N.am   90  SER90      -0.1949
     95  CA        82.7750  -18.3170   96.1340 C.3    90  SER90       0.1924
     96  C         82.0490  -19.3690   96.9650 C.2    90  SER90       0.2314
     97  O         81.1380  -20.0140   96.4810 O.2    90  SER90      -0.2863
     98  CB        82.2850  -16.9490   96.5930 C.3    90  SER90       0.2116
     99  OG        80.8800  -16.8310   96.4580 O.3    90  SER90      -0.2180
    100  N         78.4830  -18.6010   97.0940 N.3    93  ASP93      -0.1239
    101  CA        77.7470  -19.0660   95.9010 C.3    93  ASP93       0.1674
    102  C         77.4150  -20.5220   96.0530 C.2    93  ASP93       0.2266
    103  O         76.2670  -20.9080   95.8530 O.2    93  ASP93      -0.2867
    104  CB        78.5470  -18.9090   94.6100 C.3    93  ASP93       0.1410
    105  CG        78.7130  -17.4490   94.1770 C.2    93  ASP93       0.3668
    106  OD1       77.8230  -16.6170   94.4260 O.co2  93  ASP93      -0.2456
    107  OD2       79.7810  -17.1600   93.5880 O.co2  93  ASP93      -0.2456
    108  N         81.7650  -15.0900  101.4260 N.3   132  ALA132     -0.1231
    109  CA        81.7330  -14.3490  100.1600 C.3   132  ALA132      0.1694
    110  C         83.1270  -14.1340   99.6010 C.2   132  ALA132      0.2592
    111  O         83.2790  -14.0150   98.3900 O.2   132  ALA132     -0.2718
    112  CB        81.0040  -12.9570  100.3060 C.3   132  ALA132      0.0304
    113  N         84.1330  -14.0220  100.4750 N.am  133  ASN133     -0.1974
    114  CA        85.5100  -13.8070  100.0260 C.3   133  ASN133      0.1688
    115  C         86.3520  -15.0410   99.8350 C.2   133  ASN133      0.2292
    116  O         87.5120  -14.9460   99.4370 O.2   133  ASN133     -0.2864
    117  CB        86.2240  -12.8130  100.9380 C.3   133  ASN133      0.1181
    118  CG        85.7180  -11.4050  100.7410 C.2   133  ASN133      0.2629
    119  OD1       85.3160  -11.0350   99.6580 O.2   133  ASN133     -0.2716
    120  ND2       85.7770  -10.6050  101.7800 N.am  133  ASN133     -0.0877
    121  N         87.1480  -18.0210   97.5550 N.3   135  LEU135     -0.1245
    122  CA        87.0100  -18.4410   96.1360 C.3   135  LEU135      0.1561
    123  C         87.6330  -19.8220   95.8420 C.2   135  LEU135      0.2260
    124  O         88.6720  -20.1980   96.3980 O.2   135  LEU135     -0.2867
    125  CB        87.7010  -17.4020   95.2470 C.3   135  LEU135      0.0270
    126  CG        87.0700  -15.9980   95.2730 C.3   135  LEU135      0.0019
    127  CD1       87.7570  -15.1000   94.3200 C.3   135  LEU135      0.0001
    128  CD2       85.5690  -16.0530   94.9160 C.3   135  LEU135      0.0001
    129  N         89.8640  -13.4800   98.5660 N.3   145  ALA145     -0.1245
    130  CA        89.7100  -12.2830   97.7490 C.3   145  ALA145      0.1562
    131  C         89.6840  -10.9810   98.5770 C.2   145  ALA145      0.2260
    132  O         89.4200   -9.9090   98.0480 O.2   145  ALA145     -0.2867
    133  CB        88.4400  -12.4200   96.9920 C.3   145  ALA145      0.0290
@<TRIPOS>BOND
     1    71    69   ar
     2    71    72   ar
     3    69    67   ar
     4    73    72    1
     5    72    70   ar
     6    24    25    1
     7    67    66    1
     8    67    68   ar
     9    66    63    1
    10    70    68   ar
    11    26    25    1
    12    26    27    2
    13    25    28    1
    14    48    47    2
    15     7     5    1
    16     1     2    1
    17    63    62    1
    18    63    64    1
    19    20    19    2
    20    19    18    1
    21    62    55   am
    22    45    46    1
    23    65    64    2
    24    83    82    1
    25    83    84    1
    26    29    30    1
    27    85    84    2
    28    64    74   am
    29    47    46    1
    30    47    53   am
    31     8     6    1
    32    32    31    2
    33    31    30    1
    34     5     2    1
    35     5     6    1
    36     2     3    1
    37    54    55    1
    38    54    53    1
    39    54    57    1
    40    82    76   am
    41    55    56    2
    42    84    86   am
    43    46    49    1
    44    18    17    1
    45    18    21    1
    46    30    33    1
    47    74    75    1
    48    76    77    2
    49    76    75    1
    50    58    57    1
    51    58    59    1
    52    22    21    1
    53    75    78    1
    54    49    50    1
    55     3     9   am
    56     3     4    2
    57    86    87    1
    58    21    23    1
    59     9    10    1
    60    33    34    1
    61    61    59   ar
    62    50    51    1
    63    59    60   ar
    64    12    11    2
    65    87    88    1
    66    78    79    1
    67    34    35    1
    68    10    11    1
    69    88    90   am
    70    88    89    2
    71    90    91    1
    72    79    80    1
    73    79    81    1
    74    52    51    1
    75    91    92    1
    76    35    36    1
    77   107   105   ar
    78    37    36    1
    79    40    39    1
    80    40    41    2
    81    92    93    2
    82    92    94   am
    83    42    39    1
    84    42    44    1
    85    42    43    1
    86   105   106   ar
    87   105   104    1
    88    39    38    1
    89    13    14    1
    90   127   126    1
    91   104   101    1
    92    94    95    1
    93   128   126    1
    94   125   126    1
    95   125   122    1
    96    14    15    1
    97   123   122    1
    98   123   124    2
    99   103   102    2
   100   101   102    1
   101   101   100    1
   102    95    98    1
   103    95    96    1
   104   122   121    1
   105    15    16    2
   106    99    98    1
   107    97    96    2
   108   133   130    1
   109   130   129    1
   110   130   131    1
   111   132   131    2
   112   111   110    2
   113   116   115    2
   114   110   109    1
   115   110   113   am
   116   119   118    2
   117   115   114    1
   118   114   113    1
   119   114   117    1
   120   109   112    1
   121   109   108    1
   122   118   117    1
   123   118   120   am
