@<TRIPOS>MOLECULE
tmp/3gggC01.pdb
 130 128 0 0 0
SMALL
GASTEIGER

@<TRIPOS>ATOM
      1  N         23.8270   13.6080   -7.3400 N.3   109  SER109     -0.1217
      2  CA        22.7910   12.7150   -6.8340 C.3   109  SER109      0.1889
      3  C         22.3550   12.9920   -5.4030 C.2   109  SER109      0.2288
      4  O         21.4340   12.3180   -4.9110 O.2   109  SER109     -0.2866
      5  CB        23.2670   11.2450   -6.8710 C.3   109  SER109      0.2089
      6  OG        23.8890   10.9480   -8.1090 O.3   109  SER109     -0.2183
      7  N         19.3540   17.5560  -10.1870 N.3   130  HIS130     -0.1227
      8  CA        19.6650   16.1310  -10.2320 C.3   130  HIS130      0.1737
      9  C         18.8180   15.4430  -11.3500 C.2   130  HIS130      0.2438
     10  O         17.6240   15.2030  -11.1630 O.2   130  HIS130     -0.2733
     11  CB        19.2510   15.5200   -8.9060 C.3   130  HIS130      0.0758
     12  CG        19.5130   14.0550   -8.8190 C.ar  130  HIS130      0.0818
     13  ND1       18.9400   13.2460   -7.8650 N.ar  130  HIS130     -0.2268
     14  CD2       20.3170   13.2530   -9.5600 C.ar  130  HIS130      0.1154
     15  CE1       19.3870   12.0100   -8.0170 C.ar  130  HIS130      0.1986
     16  NE2       20.2120   11.9880   -9.0480 N.ar  130  HIS130     -0.2212
     17  N         19.4250   15.0920  -12.4690 N.am  131  PRO131     -0.2718
     18  CA        18.7210   14.3110  -13.4900 C.3   131  PRO131      0.1535
     19  C         18.5760   12.8400  -13.0600 C.2   131  PRO131      0.2598
     20  O         19.5650   12.2260  -12.6330 O.2   131  PRO131     -0.2715
     21  CB        19.6810   14.3270  -14.6920 C.3   131  PRO131      0.0310
     22  CG        21.0690   14.5510  -14.0740 C.3   131  PRO131      0.0237
     23  CD        20.8540   15.3230  -12.7840 C.3   131  PRO131      0.0939
     24  N         17.3870   12.2560  -13.1750 N.am  132  ILE132     -0.1964
     25  CA        17.2390   10.9010  -12.6790 C.3   132  ILE132      0.1727
     26  C         17.4600   10.0160  -13.9010 C.2   132  ILE132      0.2616
     27  O         16.5050    9.5610  -14.5080 O.2   132  ILE132     -0.2715
     28  CB        15.8510   10.6700  -11.9900 C.3   132  ILE132      0.0290
     29  CG1       15.5380   11.7640  -10.9410 C.3   132  ILE132      0.0022
     30  CG2       15.7830    9.2770  -11.3390 C.3   132  ILE132      0.0023
     31  CD1       16.7050   12.0470   -9.8850 C.3   132  ILE132      0.0001
     32  N         18.7290    9.8280  -14.2670 N.am  133  ALA133     -0.1963
     33  CA        19.1440    9.1730  -15.5340 C.3   133  ALA133      0.1728
     34  C         20.6060    8.7490  -15.3960 C.2   133  ALA133      0.2617
     35  O         21.4580    9.5080  -14.9860 O.2   133  ALA133     -0.2715
     36  CB        19.0370   10.1840  -16.7390 C.3   133  ALA133      0.0334
     37  N         20.9270    7.5510  -15.7460 N.am  134  GLY134     -0.1940
     38  CA        22.3230    7.1790  -15.8100 C.3   134  GLY134      0.2014
     39  C         22.3520    5.6810  -15.9660 C.2   134  GLY134      0.2640
     40  O         21.3190    5.0560  -15.8950 O.2   134  GLY134     -0.2714
     41  N         23.5310    5.1190  -16.2120 N.am  135  THR135     -0.1936
     42  CA        23.6650    3.6930  -16.2970 C.3   135  THR135      0.2028
     43  C         24.7590    3.3760  -15.2930 C.2   135  THR135      0.2642
     44  O         25.0930    4.2450  -14.5010 O.2   135  THR135     -0.2714
     45  CB        24.1190    3.2090  -17.7510 C.3   135  THR135      0.1808
     46  OG1       25.3240    3.8760  -18.0460 O.3   135  THR135     -0.2208
     47  CG2       23.0730    3.5160  -18.8140 C.3   135  THR135      0.0379
     48  N         25.3000    2.1530  -15.3310 N.am  136  GLU136     -0.1976
     49  CA        26.4110    1.7690  -14.4560 C.3   136  GLU136      0.1602
     50  C         27.7490    2.2340  -15.0090 C.2   136  GLU136      0.2287
     51  O         28.7490    2.0910  -14.3200 O.2   136  GLU136     -0.2864
     52  CB        26.6060    0.2530  -14.3510 C.3   136  GLU136      0.0415
     53  CG        25.6310   -0.6300  -14.9790 C.3   136  GLU136      0.1163
     54  CD        25.5420   -0.6170  -16.4790 C.2   136  GLU136      0.3649
     55  OE1       24.4870   -0.2130  -16.9500 O.co2 136  GLU136     -0.2457
     56  OE2       26.4350   -1.0800  -17.1840 O.co2 136  GLU136     -0.2457
     57  N         15.3860   10.0450   -2.6080 N.3   192  PHE192     -0.1241
     58  CA        16.4010    9.3130   -3.2960 C.3   192  PHE192      0.1605
     59  C         17.2620    8.4440   -2.3820 C.2   192  PHE192      0.2264
     60  O         17.8270    7.4420   -2.8230 O.2   192  PHE192     -0.2867
     61  CB        17.1020   10.1690   -4.3410 C.3   192  PHE192      0.0534
     62  CG        16.1590   10.5720   -5.4320 C.ar  192  PHE192     -0.0203
     63  CD1       15.8750    9.7040   -6.4910 C.ar  192  PHE192     -0.0042
     64  CD2       15.4910   11.8200   -5.3780 C.ar  192  PHE192     -0.0042
     65  CE1       14.8940   10.0620   -7.4580 C.ar  192  PHE192     -0.0003
     66  CE2       14.5000   12.1710   -6.3430 C.ar  192  PHE192     -0.0003
     67  CZ        14.2060   11.3080   -7.3540 C.ar  192  PHE192     -0.0000
     68  N         16.9150    5.2260   -4.4820 N.3   196  SER196     -0.1217
     69  CA        18.1250    5.0970   -5.3350 C.3   196  SER196      0.1889
     70  C         19.3050    4.6700   -4.5090 C.2   196  SER196      0.2288
     71  O         19.9870    3.6950   -4.8430 O.2   196  SER196     -0.2866
     72  CB        18.4300    6.4470   -6.0430 C.3   196  SER196      0.2089
     73  OG        19.7250    6.5220   -6.6180 O.3   196  SER196     -0.2183
     74  N         21.0770    0.6530   -4.4640 N.3   200  HIS200     -0.1241
     75  CA        22.5200    0.4950   -4.6570 C.3   200  HIS200      0.1621
     76  C         23.2630   -0.1480   -3.4580 C.2   200  HIS200      0.2264
     77  O         24.1040   -1.0190   -3.6250 O.2   200  HIS200     -0.2867
     78  CB        23.1450    1.8660   -4.9940 C.3   200  HIS200      0.0745
     79  CG        22.9650    2.2460   -6.4360 C.ar  200  HIS200      0.0817
     80  ND1       21.8450    2.9310   -6.9100 N.ar  200  HIS200     -0.2268
     81  CD2       23.7560    2.0320   -7.4990 C.ar  200  HIS200      0.1154
     82  CE1       21.9660    3.1210   -8.2130 C.ar  200  HIS200      0.1986
     83  NE2       23.1180    2.5850   -8.6000 N.ar  200  HIS200     -0.2212
     84  N         23.2380   -5.3830  -11.5950 N.3   233  ARG233     -0.1231
     85  CA        23.8380   -4.5020  -12.6550 C.3   233  ARG233      0.1694
     86  C         24.3820   -3.2200  -12.0260 C.2   233  ARG233      0.2591
     87  O         25.4970   -2.7360  -12.3840 O.2   233  ARG233     -0.2718
     88  CB        22.8510   -4.2060  -13.8390 C.3   233  ARG233      0.0321
     89  CG        23.3690   -3.1940  -14.9340 C.3   233  ARG233      0.0489
     90  CD        22.2080   -2.6230  -15.8970 C.3   233  ARG233      0.2205
     91  NE        21.1260   -1.9460  -15.1150 N.pl3 233  ARG233     -0.0865
     92  CZ        21.1630   -0.6600  -14.6890 C.cat 233  ARG233      0.5346
     93  NH1       22.2020    0.1130  -14.9940 N.pl3 233  ARG233      0.1354
     94  NH2       20.1720   -0.1370  -13.9500 N.pl3 233  ARG233      0.1354
     95  N         23.6520   -2.6390  -11.0810 N.am  234  ILE234     -0.1980
     96  CA        24.1290   -1.3810  -10.5580 C.3   234  ILE234      0.1595
     97  C         25.3120   -1.5460   -9.5900 C.2   234  ILE234      0.2287
     98  O         25.9490   -0.5730   -9.2690 O.2   234  ILE234     -0.2864
     99  CB        23.0570   -0.5530   -9.8570 C.3   234  ILE234      0.0276
    100  CG1       22.5900   -1.2890   -8.5530 C.3   234  ILE234      0.0022
    101  CG2       21.9620   -0.1320  -10.9010 C.3   234  ILE234      0.0022
    102  CD1       21.2950   -0.7610   -7.9070 C.3   234  ILE234      0.0001
    103  N         28.5980    0.0570  -10.8440 N.3   237  SER237     -0.1217
    104  CA        28.7460    1.5210  -10.8550 C.3   237  SER237      0.1889
    105  C         30.0670    1.9980  -10.1670 C.2   237  SER237      0.2288
    106  O         30.8060    1.1880   -9.5540 O.2   237  SER237     -0.2866
    107  CB        27.5650    2.1560  -10.1010 C.3   237  SER237      0.2089
    108  OG        26.3560    1.7450  -10.6830 O.3   237  SER237     -0.2183
    109  N         31.9850    7.7740   -7.1000 N.3   241  MET241     -0.1230
    110  CA        30.6440    8.3560   -7.1670 C.3   241  MET241      0.1702
    111  C         29.8330    7.8720   -5.9930 C.2   241  MET241      0.2592
    112  O         29.1900    8.6710   -5.2920 O.2   241  MET241     -0.2718
    113  CB        29.9220    7.9510   -8.4550 C.3   241  MET241      0.0401
    114  CG        28.4460    8.2580   -8.4760 C.3   241  MET241      0.0596
    115  SD        27.6890    7.9110  -10.0930 S.3   241  MET241     -0.1393
    116  CE        25.9530    7.8630   -9.5390 C.3   241  MET241      0.0692
    117  N         29.8500    6.5620   -5.8070 N.am  242  TRP242     -0.1976
    118  CA        29.0250    5.9600   -4.7700 C.3   242  TRP242      0.1640
    119  C         29.5390    6.1680   -3.3550 C.2   242  TRP242      0.2290
    120  O         28.7090    6.3990   -2.5010 O.2   242  TRP242     -0.2864
    121  CB        28.5830    4.4910   -5.0580 C.3   242  TRP242      0.0576
    122  CG        27.4700    4.6300   -6.0110 C.ar  242  TRP242      0.0006
    123  CD1       27.5460    4.5720   -7.4030 C.ar  242  TRP242      0.0946
    124  CD2       26.1080    4.9370   -5.6860 C.ar  242  TRP242      0.0152
    125  NE1       26.3290    4.8020   -7.9100 N.ar  242  TRP242     -0.2442
    126  CE2       25.4230    5.0420   -6.8990 C.ar  242  TRP242      0.0810
    127  CE3       25.4220    5.2110   -4.4500 C.ar  242  TRP242      0.0012
    128  CZ2       24.0730    5.4140   -6.9830 C.ar  242  TRP242      0.0191
    129  CZ3       24.0650    5.5270   -4.4960 C.ar  242  TRP242      0.0001
    130  CH2       23.3980    5.6400   -5.7830 C.ar  242  TRP242      0.0015
@<TRIPOS>BOND
     1    47    45    1
     2    46    45    1
     3    45    42    1
     4    56    54   ar
     5    55    54   ar
     6    36    33    1
     7    54    53    1
     8    42    41    1
     9    42    43    1
    10    41    39   am
    11    39    40    2
    12    39    38    1
    13    90    91    1
    14    90    89    1
    15    38    37    1
    16    37    34   am
    17    33    34    1
    18    33    32    1
    19    34    35    2
    20    48    43   am
    21    48    49    1
    22    43    44    2
    23    91    92    2
    24    50    49    1
    25    50    51    2
    26    93    92    1
    27    53    52    1
    28    89    88    1
    29    21    22    1
    30    21    18    1
    31    92    94    1
    32    27    26    2
    33    49    52    1
    34    32    26   am
    35    22    23    1
    36    26    25    1
    37    88    85    1
    38    18    19    1
    39    18    17    1
    40    24    19   am
    41    24    25    1
    42    19    20    2
    43    23    17    1
    44    25    28    1
    45    85    86    1
    46    85    84    1
    47    17     9   am
    48    87    86    2
    49    86    95   am
    50    28    30    1
    51    28    29    1
    52     9    10    2
    53     9     8    1
    54    95    96    1
    55    29    31    1
    56   101    99    1
    57   104   103    1
    58   104   105    1
    59   104   107    1
    60   108   107    1
    61    96    99    1
    62    96    97    1
    63     8     7    1
    64     8    11    1
    65   105   106    2
    66   115   116    1
    67   115   114    1
    68    99   100    1
    69    97    98    2
    70    14    16   ar
    71    14    12   ar
    72    16    15   ar
    73    11    12    1
    74    12    13   ar
    75    83    82   ar
    76    83    81   ar
    77   100   102    1
    78   114   113    1
    79   113   110    1
    80    82    80   ar
    81     6     5    1
    82    15    13   ar
    83   125   123   ar
    84   125   126   ar
    85    81    79   ar
    86    65    67   ar
    87    65    63   ar
    88   123   122   ar
    89    67    66   ar
    90     1     2    1
    91   110   109    1
    92   110   111    1
    93   128   126   ar
    94   128   130   ar
    95    80    79   ar
    96   126   124   ar
    97     5     2    1
    98     2     3    1
    99    73    72    1
   100    63    62   ar
   101    79    78    1
   102    66    64   ar
   103    72    69    1
   104   122   124   ar
   105   122   121    1
   106   111   117   am
   107   111   112    2
   108   117   118    1
   109   130   129   ar
   110   124   127   ar
   111    62    64   ar
   112    62    61    1
   113     3     4    2
   114    69    70    1
   115    69    68    1
   116   121   118    1
   117    78    75    1
   118    71    70    2
   119   118   119    1
   120    75    74    1
   121    75    76    1
   122   129   127   ar
   123    61    58    1
   124    77    76    2
   125   119   120    2
   126    58    57    1
   127    58    59    1
   128    60    59    2
