@<TRIPOS>MOLECULE
tmp/3ggjA00.pdb
 151 144 0 0 0
SMALL
GASTEIGER

@<TRIPOS>ATOM
      1  N          9.0940   59.8810   11.3310 N.3    65  LYS65      -0.1245
      2  CA         9.6250   60.4030   10.0780 C.3    65  LYS65       0.1561
      3  C          8.7540   59.9520    8.9200 C.2    65  LYS65       0.2260
      4  O          7.8950   60.6960    8.4710 O.2    65  LYS65      -0.2867
      5  CB        11.0820   59.9920    9.8490 C.3    65  LYS65       0.0271
      6  CG        12.0960   60.9590   10.4300 C.3    65  LYS65       0.0035
      7  CD        12.7310   60.4320   11.6890 C.3    65  LYS65       0.0206
      8  CE        13.8560   59.4280   11.3770 C.3    65  LYS65       0.1093
      9  NZ        13.3900   58.0130   11.2340 N.3    65  LYS65      -0.1314
     10  N         20.7890   65.0960    5.0920 N.3   104  ASP104     -0.1239
     11  CA        21.1960   64.3740    6.2930 C.3   104  ASP104      0.1674
     12  C         22.6560   64.6470    6.6730 C.2   104  ASP104      0.2266
     13  O         23.3160   63.7970    7.2760 O.2   104  ASP104     -0.2867
     14  CB        20.9680   62.8680    6.1030 C.3   104  ASP104      0.1410
     15  CG        20.5700   62.1660    7.3910 C.2   104  ASP104      0.3668
     16  OD1       20.6860   62.7880    8.4740 O.co2 104  ASP104     -0.2456
     17  OD2       20.1410   60.9890    7.3160 O.co2 104  ASP104     -0.2456
     18  N         21.7030   66.2540   10.9240 N.3   107  THR107     -0.1218
     19  CA        20.4280   65.6850   11.3640 C.3   107  THR107      0.1862
     20  C         20.0180   66.1980   12.7410 C.2   107  THR107      0.2287
     21  O         18.8640   66.0300   13.1600 O.2   107  THR107     -0.2866
     22  CB        20.4740   64.1430   11.4010 C.3   107  THR107      0.1770
     23  OG1       21.6610   63.6730   10.7500 O.3   107  THR107     -0.2211
     24  CG2       19.2440   63.5600   10.7100 C.3   107  THR107      0.0375
     25  N         11.9000   55.2360   18.5410 N.3   130  GLU130     -0.1245
     26  CA        12.6100   55.5330   17.2970 C.3   130  GLU130      0.1567
     27  C         12.9300   54.2200   16.5720 C.2   130  GLU130      0.2260
     28  O         13.0200   53.1620   17.2050 O.2   130  GLU130     -0.2867
     29  CB        13.9000   56.2860   17.6230 C.3   130  GLU130      0.0388
     30  CG        14.7350   56.6970   16.4310 C.3   130  GLU130      0.1160
     31  CD        14.1110   57.8070   15.6080 C.2   130  GLU130      0.3649
     32  OE1       14.7250   58.9000   15.5470 O.co2 130  GLU130     -0.2457
     33  OE2       13.0240   57.5860   15.0180 O.co2 130  GLU130     -0.2457
     34  N         15.5600   53.8640   13.8620 N.3   132  ILE132     -0.1231
     35  CA        17.0030   53.7500   13.6790 C.3   132  ILE132      0.1692
     36  C         17.7100   54.9510   14.3230 C.2   132  ILE132      0.2592
     37  O         17.1720   56.0600   14.3290 O.2   132  ILE132     -0.2718
     38  CB        17.3500   53.6180   12.1750 C.3   132  ILE132      0.0266
     39  CG1       18.8600   53.4290   11.9680 C.3   132  ILE132      0.0019
     40  CG2       16.7710   54.7920   11.3790 C.3   132  ILE132      0.0020
     41  CD1       19.1960   52.6730   10.7170 C.3   132  ILE132      0.0001
     42  N         18.8890   54.7130   14.8950 N.am  133  ILE133     -0.1966
     43  CA        19.7710   55.7860   15.3540 C.3   133  ILE133      0.1727
     44  C         21.0920   55.5850   14.6340 C.2   133  ILE133      0.2616
     45  O         21.6400   54.4770   14.6100 O.2   133  ILE133     -0.2715
     46  CB        20.0110   55.7620   16.8960 C.3   133  ILE133      0.0290
     47  CG1       18.7470   56.1740   17.6700 C.3   133  ILE133      0.0022
     48  CG2       21.1970   56.6760   17.3070 C.3   133  ILE133      0.0023
     49  CD1       18.8330   55.8450   19.1620 C.3   133  ILE133      0.0001
     50  N         21.5940   56.6600   14.0380 N.am  134  ASP134     -0.1957
     51  CA        22.8100   56.6010   13.2570 C.3   134  ASP134      0.1840
     52  C         23.8850   57.4500   13.9560 C.2   134  ASP134      0.2623
     53  O         24.5730   56.9610   14.8550 O.2   134  ASP134     -0.2715
     54  CB        22.5130   57.0630   11.8240 C.3   134  ASP134      0.1450
     55  CG        23.7240   56.9730   10.9050 C.2   134  ASP134      0.3671
     56  OD1       24.5650   56.0570   11.0950 O.co2 134  ASP134     -0.2456
     57  OD2       23.8290   57.8250    9.9840 O.co2 134  ASP134     -0.2456
     58  N         24.0110   58.7190   13.5750 N.am  135  THR135     -0.1937
     59  CA        24.9670   59.6140   14.2200 C.3   135  THR135      0.2028
     60  C         24.5340   59.9540   15.6450 C.2   135  THR135      0.2643
     61  O         25.3600   60.3390   16.4800 O.2   135  THR135     -0.2714
     62  CB        25.1650   60.9280   13.4400 C.3   135  THR135      0.1808
     63  OG1       23.9500   61.6910   13.4670 O.3   135  THR135     -0.2208
     64  CG2       25.5720   60.6590   12.0020 C.3   135  THR135      0.0379
     65  N         23.2350   59.8200   15.9110 N.am  136  GLY136     -0.1939
     66  CA        22.6750   60.0970   17.2320 C.3   136  GLY136      0.2014
     67  C         22.2470   61.5360   17.4490 C.2   136  GLY136      0.2639
     68  O         21.6940   61.8530   18.5000 O.2   136  GLY136     -0.2714
     69  N         22.4900   62.4020   16.4570 N.am  137  LYS137     -0.1963
     70  CA        22.2000   63.8470   16.5670 C.3   137  LYS137      0.1728
     71  C         20.7040   64.2290   16.6050 C.2   137  LYS137      0.2617
     72  O         20.3230   65.1890   17.2700 O.2   137  LYS137     -0.2715
     73  CB        22.8870   64.6280   15.4450 C.3   137  LYS137      0.0311
     74  CG        24.3980   64.6320   15.5090 C.3   137  LYS137      0.0038
     75  CD        24.9670   65.4830   14.3850 C.3   137  LYS137      0.0206
     76  CE        26.4310   65.1680   14.1040 C.3   137  LYS137      0.1093
     77  NZ        26.7880   65.4920   12.6890 N.3   137  LYS137     -0.1314
     78  N         19.8620   63.5010   15.8770 N.am  138  THR138     -0.1937
     79  CA        18.4330   63.7640   15.9160 C.3   138  THR138      0.2028
     80  C         17.9340   63.6190   17.3430 C.2   138  THR138      0.2642
     81  O         17.3060   64.5210   17.8970 O.2   138  THR138     -0.2714
     82  CB        17.6710   62.7710   15.0290 C.3   138  THR138      0.1808
     83  OG1       18.0600   62.9680   13.6670 O.3   138  THR138     -0.2208
     84  CG2       16.1690   62.9530   15.1630 C.3   138  THR138      0.0379
     85  N         18.2440   62.4740   17.9350 N.am  139  MET139     -0.1976
     86  CA        17.7190   62.1070   19.2350 C.3   139  MET139      0.1605
     87  C         18.2140   63.0280   20.3340 C.2   139  MET139      0.2287
     88  O         17.4200   63.4990   21.1440 O.2   139  MET139     -0.2864
     89  CB        18.0750   60.6600   19.5630 C.3   139  MET139      0.0413
     90  CG        17.2610   60.1200   20.6960 C.3   139  MET139      0.0598
     91  SD        15.4970   60.1840   20.3460 S.3   139  MET139     -0.1393
     92  CE        15.3400   58.9660   19.0630 C.3   139  MET139      0.0692
     93  N         23.0810   51.9840   14.8670 N.3   162  LYS162     -0.1245
     94  CA        24.1620   51.7480   13.9200 C.3   162  LYS162      0.1561
     95  C         25.4910   51.9920   14.6000 C.2   162  LYS162      0.2260
     96  O         25.6700   52.9930   15.2920 O.2   162  LYS162     -0.2867
     97  CB        24.0270   52.6900   12.7350 C.3   162  LYS162      0.0271
     98  CG        24.4960   52.1460   11.4070 C.3   162  LYS162      0.0035
     99  CD        23.4990   52.5560   10.3310 C.3   162  LYS162      0.0206
    100  CE        24.1900   52.8510    9.0170 C.3   162  LYS162      0.1093
    101  NZ        23.2490   53.5430    8.0910 N.3   162  LYS162     -0.1314
    102  N         26.2350   50.1650    7.5770 N.3   182  LYS182     -0.1231
    103  CA        25.7290   50.0220    6.2140 C.3   182  LYS182      0.1693
    104  C         24.3070   50.5540    6.1390 C.2   182  LYS182      0.2592
    105  O         23.5870   50.5450    7.1330 O.2   182  LYS182     -0.2718
    106  CB        25.7300   48.5560    5.8080 C.3   182  LYS182      0.0285
    107  CG        27.1040   47.9980    5.4980 C.3   182  LYS182      0.0035
    108  CD        27.0830   46.4870    5.5260 C.3   182  LYS182      0.0206
    109  CE        28.4610   45.9130    5.1800 C.3   182  LYS182      0.1093
    110  NZ        28.5710   44.4540    5.5060 N.3   182  LYS182     -0.1314
    111  N         23.8930   51.0170    4.9640 N.am  183  PHE183     -0.1962
    112  CA        22.5760   51.6390    4.8120 C.3   183  PHE183      0.1771
    113  C         21.4430   50.6250    4.5860 C.2   183  PHE183      0.2619
    114  O         21.3610   49.9860    3.5380 O.2   183  PHE183     -0.2715
    115  CB        22.6040   52.6620    3.6770 C.3   183  PHE183      0.0574
    116  CG        21.3760   53.5290    3.6130 C.ar  183  PHE183     -0.0200
    117  CD1       21.3780   54.7980    4.1810 C.ar  183  PHE183     -0.0042
    118  CD2       20.2180   53.0750    2.9900 C.ar  183  PHE183     -0.0042
    119  CE1       20.2540   55.5950    4.1160 C.ar  183  PHE183     -0.0003
    120  CE2       19.0880   53.8730    2.9270 C.ar  183  PHE183     -0.0003
    121  CZ        19.1010   55.1300    3.4920 C.ar  183  PHE183     -0.0000
    122  N         20.5480   50.5170    5.5680 N.am  184  VAL184     -0.1963
    123  CA        19.4950   49.4960    5.5390 C.3   184  VAL184      0.1727
    124  C         18.0910   50.0260    5.2240 C.2   184  VAL184      0.2616
    125  O         17.7730   51.2030    5.4430 O.2   184  VAL184     -0.2715
    126  CB        19.4640   48.6470    6.8490 C.3   184  VAL184      0.0290
    127  CG1       20.7770   47.8830    7.0440 C.3   184  VAL184      0.0023
    128  CG2       19.1240   49.5140    8.0720 C.3   184  VAL184      0.0023
    129  N         17.2700   49.1300    4.6910 N.am  185  VAL185     -0.1977
    130  CA        15.8760   49.4030    4.3720 C.3   185  VAL185      0.1596
    131  C         15.0360   48.1920    4.7930 C.2   185  VAL185      0.2287
    132  O         15.5760   47.1160    5.0760 O.2   185  VAL185     -0.2864
    133  CB        15.6810   49.6450    2.8590 C.3   185  VAL185      0.0276
    134  CG1       16.3840   50.9290    2.4160 C.3   185  VAL185      0.0022
    135  CG2       16.1780   48.4540    2.0690 C.3   185  VAL185      0.0022
    136  N         11.8760   50.9970    7.7070 N.3   189  LEU189     -0.1231
    137  CA        12.6510   51.9720    6.9590 C.3   189  LEU189      0.1693
    138  C         12.3780   51.9340    5.4480 C.2   189  LEU189      0.2592
    139  O         12.7010   50.9520    4.7660 O.2   189  LEU189     -0.2718
    140  CB        14.1360   51.7960    7.2680 C.3   189  LEU189      0.0284
    141  CG        14.4650   51.8530    8.7650 C.3   189  LEU189      0.0019
    142  CD1       15.9260   51.6250    8.9770 C.3   189  LEU189      0.0001
    143  CD2       14.0570   53.1930    9.3380 C.3   189  LEU189      0.0001
    144  N         11.7580   53.0040    4.9420 N.am  190  ASP190     -0.1974
    145  CA        11.5020   53.1570    3.5120 C.3   190  ASP190      0.1709
    146  C         12.6800   53.8620    2.8350 C.2   190  ASP190      0.2293
    147  O         13.5430   54.4270    3.5000 O.2   190  ASP190     -0.2864
    148  CB        10.1890   53.9230    3.2570 C.3   190  ASP190      0.1436
    149  CG        10.3560   55.4470    3.3640 C.2   190  ASP190      0.3671
    150  OD1       10.2000   56.0040    4.4770 O.co2 190  ASP190     -0.2456
    151  OD2       10.6350   56.0890    2.3300 O.co2 190  ASP190     -0.2456
@<TRIPOS>BOND
     1   135   133    1
     2   151   149   ar
     3   134   133    1
     4   146   147    2
     5   146   145    1
     6   133   130    1
     7   120   118   ar
     8   120   121   ar
     9   118   116   ar
    10   148   149    1
    11   148   145    1
    12   149   150   ar
    13   121   119   ar
    14   145   144    1
    15   114   113    2
    16   116   115    1
    17   116   117   ar
    18   115   112    1
    19   119   117   ar
    20   130   129    1
    21   130   131    1
    22   113   112    1
    23   113   122   am
    24   129   124   am
    25   139   138    2
    26   131   132    2
    27   112   111    1
    28   144   138   am
    29   111   104   am
    30    10    11    1
    31   109   110    1
    32   109   108    1
    33   124   125    2
    34   124   123    1
    35   138   137    1
    36   107   108    1
    37   107   106    1
    38   123   122    1
    39   123   126    1
    40   106   103    1
    41    14    11    1
    42    14    15    1
    43   104   103    1
    44   104   105    2
    45   103   102    1
    46    11    12    1
    47    12    13    2
    48   126   127    1
    49   126   128    1
    50   137   140    1
    51   137   136    1
    52   140   141    1
    53    17    15   ar
    54    15    16   ar
    55   101   100    1
    56     4     3    2
    57   141   142    1
    58   141   143    1
    59     3     2    1
    60   100    99    1
    61     5     2    1
    62     5     6    1
    63    57    55   ar
    64     2     1    1
    65    99    98    1
    66     6     7    1
    67    24    22    1
    68    41    39    1
    69    23    22    1
    70    55    56   ar
    71    55    54    1
    72    18    19    1
    73     9     8    1
    74    19    22    1
    75    19    20    1
    76     8     7    1
    77    40    38    1
    78    98    97    1
    79    54    51    1
    80    39    38    1
    81    64    62    1
    82    38    35    1
    83    77    76    1
    84    97    94    1
    85    20    21    2
    86    51    52    1
    87    51    50    1
    88    62    63    1
    89    62    59    1
    90    58    52   am
    91    58    59    1
    92    83    82    1
    93    35    34    1
    94    35    36    1
    95    94    95    1
    96    94    93    1
    97    52    53    2
    98    50    44   am
    99    76    75    1
   100    59    60    1
   101    36    37    2
   102    36    42   am
   103    75    74    1
   104    95    96    2
   105    45    44    2
   106    44    43    1
   107    42    43    1
   108    33    31   ar
   109    82    84    1
   110    82    79    1
   111    43    46    1
   112    73    74    1
   113    73    70    1
   114    32    31   ar
   115    31    30    1
   116    60    65   am
   117    60    61    2
   118    78    79    1
   119    78    71   am
   120    65    66    1
   121    79    80    1
   122    30    29    1
   123    69    70    1
   124    69    67   am
   125    70    71    1
   126    27    28    2
   127    27    26    1
   128    71    72    2
   129    46    48    1
   130    46    47    1
   131    66    67    1
   132    26    29    1
   133    26    25    1
   134    80    81    2
   135    80    85   am
   136    67    68    2
   137    47    49    1
   138    85    86    1
   139    92    91    1
   140    86    89    1
   141    86    87    1
   142    89    90    1
   143    87    88    2
   144    91    90    1
