@<TRIPOS>MOLECULE
tmp/3ggoC00.pdb
 142 141 0 0 0
SMALL
GASTEIGER

@<TRIPOS>ATOM
      1  N         21.0610  -41.6420   24.6720 N.3   102  SER102     -0.1217
      2  CA        22.0030  -42.5680   25.2610 C.3   102  SER102      0.1889
      3  C         23.4500  -42.2450   24.8680 C.2   102  SER102      0.2288
      4  O         24.3760  -42.8370   25.3640 O.2   102  SER102     -0.2866
      5  CB        21.6590  -43.9740   24.8210 C.3   102  SER102      0.2089
      6  OG        20.3200  -44.2640   25.2430 O.3   102  SER102     -0.2183
      7  N         21.2210  -37.8710   30.2660 N.3   123  HIS123     -0.1227
      8  CA        21.0840  -39.2880   29.9380 C.3   123  HIS123      0.1737
      9  C         20.6770  -40.0780   31.1880 C.2   123  HIS123      0.2438
     10  O         21.4840  -40.2710   32.0600 O.2   123  HIS123     -0.2733
     11  CB        22.3730  -39.8530   29.3550 C.3   123  HIS123      0.0758
     12  CG        22.3150  -41.3390   29.1240 C.ar  123  HIS123      0.0818
     13  ND1       23.4290  -42.1070   28.8530 N.ar  123  HIS123     -0.2268
     14  CD2       21.2610  -42.1860   29.0660 C.ar  123  HIS123      0.1154
     15  CE1       23.0670  -43.3530   28.6390 C.ar  123  HIS123      0.1986
     16  NE2       21.7520  -43.4250   28.7610 N.ar  123  HIS123     -0.2212
     17  N         19.3910  -40.5010   31.2940 N.am  124  PRO124     -0.2718
     18  CA        19.0770  -41.3040   32.4890 C.3   124  PRO124      0.1535
     19  C         19.4880  -42.7420   32.3120 C.2   124  PRO124      0.2598
     20  O         19.1590  -43.3660   31.2880 O.2   124  PRO124     -0.2715
     21  CB        17.5510  -41.2150   32.6120 C.3   124  PRO124      0.0310
     22  CG        17.0370  -40.9910   31.0870 C.3   124  PRO124      0.0237
     23  CD        18.2090  -40.0920   30.5130 C.3   124  PRO124      0.0939
     24  N         20.1570  -43.3070   33.3150 N.am  125  ILE125     -0.1964
     25  CA        20.5430  -44.6910   33.2080 C.3   125  ILE125      0.1727
     26  C         19.4310  -45.5150   33.8160 C.2   125  ILE125      0.2616
     27  O         19.5000  -45.8800   34.9790 O.2   125  ILE125     -0.2715
     28  CB        21.9220  -44.9660   33.9010 C.3   125  ILE125      0.0290
     29  CG1       22.9230  -43.8530   33.5540 C.3   125  ILE125      0.0022
     30  CG2       22.4430  -46.4270   33.5350 C.3   125  ILE125      0.0023
     31  CD1       23.2230  -43.7130   32.0050 C.3   125  ILE125      0.0001
     32  N         18.3790  -45.7700   33.0390 N.am  126  ALA126     -0.1963
     33  CA        17.1410  -46.3220   33.5840 C.3   126  ALA126      0.1728
     34  C         16.3860  -47.0970   32.5040 C.2   126  ALA126      0.2617
     35  O         16.6960  -46.9920   31.3550 O.2   126  ALA126     -0.2715
     36  CB        16.2610  -45.1380   34.1400 C.3   126  ALA126      0.0334
     37  N         15.4090  -47.9170   32.8800 N.am  127  GLY127     -0.1940
     38  CA        14.5400  -48.5870   31.8820 C.3   127  GLY127      0.2014
     39  C         15.0810  -49.9300   31.4090 C.2   127  GLY127      0.2640
     40  O         16.0010  -50.4590   31.9930 O.2   127  GLY127     -0.2714
     41  N         14.5630  -50.4310   30.2910 N.am  128  THR128     -0.1936
     42  CA        14.7260  -51.7900   29.9300 C.3   128  THR128      0.2028
     43  C         14.9230  -51.9220   28.4070 C.2   128  THR128      0.2642
     44  O         15.1910  -50.9290   27.7030 O.2   128  THR128     -0.2714
     45  CB        13.4260  -52.5980   30.3480 C.3   128  THR128      0.1808
     46  OG1       12.3060  -52.0190   29.7160 O.3   128  THR128     -0.2208
     47  CG2       13.1860  -52.6220   31.9110 C.3   128  THR128      0.0379
     48  N         14.7430  -53.1400   27.8840 N.am  129  GLU129     -0.1976
     49  CA        14.7570  -53.3050   26.4330 C.3   129  GLU129      0.1602
     50  C         13.4350  -52.9120   25.7910 C.2   129  GLU129      0.2287
     51  O         13.3280  -53.0230   24.5870 O.2   129  GLU129     -0.2864
     52  CB        14.9650  -54.7580   26.0030 C.3   129  GLU129      0.0415
     53  CG        15.0060  -55.7360   27.0730 C.3   129  GLU129      0.1163
     54  CD        13.7280  -55.9600   27.8940 C.2   129  GLU129      0.3649
     55  OE1       12.7970  -56.5170   27.3710 O.co2 129  GLU129     -0.2457
     56  OE2       13.7540  -55.7010   29.1210 O.co2 129  GLU129     -0.2457
     57  N         29.9930  -45.0540   28.7770 N.3   185  PHE185     -0.1241
     58  CA        28.7490  -45.7720   28.4240 C.3   185  PHE185      0.1605
     59  C         28.9680  -46.5250   27.1290 C.2   185  PHE185      0.2264
     60  O         28.3500  -47.5440   26.9040 O.2   185  PHE185     -0.2867
     61  CB        27.5280  -44.8190   28.4590 C.3   185  PHE185      0.0534
     62  CG        27.1310  -44.5200   29.8720 C.ar  185  PHE185     -0.0203
     63  CD1       26.4240  -45.4450   30.6230 C.ar  185  PHE185     -0.0042
     64  CD2       27.6220  -43.4190   30.5050 C.ar  185  PHE185     -0.0042
     65  CE1       26.1740  -45.2020   31.9910 C.ar  185  PHE185     -0.0003
     66  CE2       27.3280  -43.1660   31.8580 C.ar  185  PHE185     -0.0003
     67  CZ        26.5980  -44.0520   32.5750 C.ar  185  PHE185     -0.0000
     68  N         27.7050  -50.0780   28.4630 N.3   189  SER189     -0.1202
     69  CA        26.3360  -50.1230   27.9890 C.3   189  SER189      0.2020
     70  C         26.2860  -50.5410   26.5060 C.2   189  SER189      0.2618
     71  O         25.6500  -51.5230   26.1420 O.2   189  SER189     -0.2717
     72  CB        25.6110  -48.7840   28.2630 C.3   189  SER189      0.2103
     73  OG        24.3260  -48.7620   27.6570 O.3   189  SER189     -0.2182
     74  N         26.9440  -49.7780   25.6620 N.am  190  HIS190     -0.1975
     75  CA        26.8160  -49.9930   24.2380 C.3   190  HIS190      0.1656
     76  C         27.5430  -51.2800   23.8610 C.2   190  HIS190      0.2291
     77  O         27.0160  -52.0580   23.0690 O.2   190  HIS190     -0.2864
     78  CB        27.3280  -48.7780   23.4470 C.3   190  HIS190      0.0771
     79  CG        26.8080  -47.4640   23.9540 C.ar  190  HIS190      0.0820
     80  ND1       27.4560  -46.2600   23.7140 N.ar  190  HIS190     -0.2267
     81  CD2       25.7470  -47.1670   24.7500 C.ar  190  HIS190      0.1154
     82  CE1       26.7800  -45.2810   24.2910 C.ar  190  HIS190      0.1986
     83  NE2       25.7480  -45.8000   24.9340 N.ar  190  HIS190     -0.2212
     84  N         25.5120  -54.4010   24.8000 N.3   193  HIS193     -0.1241
     85  CA        24.4290  -54.5750   23.8160 C.3   193  HIS193      0.1621
     86  C         24.9520  -55.2100   22.5270 C.2   193  HIS193      0.2264
     87  O         24.3530  -56.1740   22.0120 O.2   193  HIS193     -0.2867
     88  CB        23.6450  -53.2680   23.5270 C.3   193  HIS193      0.0745
     89  CG        22.6670  -52.9110   24.5920 C.ar  193  HIS193      0.0817
     90  ND1       23.0510  -52.3500   25.7930 N.ar  193  HIS193     -0.2268
     91  CD2       21.3130  -53.0330   24.6420 C.ar  193  HIS193      0.1154
     92  CE1       21.9690  -52.1390   26.5350 C.ar  193  HIS193      0.1986
     93  NE2       20.9090  -52.5580   25.8670 N.ar  193  HIS193     -0.2212
     94  N         18.5700  -60.9140   27.0830 N.3   226  ARG226     -0.1231
     95  CA        17.3190  -60.1430   27.1360 C.3   226  ARG226      0.1694
     96  C         17.4890  -58.8290   26.3110 C.2   226  ARG226      0.2591
     97  O         16.5960  -58.4070   25.5480 O.2   226  ARG226     -0.2718
     98  CB        16.9540  -59.7700   28.6040 C.3   226  ARG226      0.0321
     99  CG        15.6270  -58.8440   28.7860 C.3   226  ARG226      0.0489
    100  CD        15.3960  -58.3080   30.2550 C.3   226  ARG226      0.2205
    101  NE        16.6880  -57.7900   30.7990 N.pl3 226  ARG226     -0.0865
    102  CZ        17.1450  -56.5320   30.6640 C.cat 226  ARG226      0.5346
    103  NH1       16.4080  -55.6110   30.0390 N.pl3 226  ARG226      0.1354
    104  NH2       18.3560  -56.1710   31.1410 N.pl3 226  ARG226      0.1354
    105  N         18.6360  -58.1650   26.4610 N.am  227  ILE227     -0.1980
    106  CA        18.8010  -56.8400   25.8280 C.3   227  ILE227      0.1595
    107  C         18.9790  -56.9290   24.2990 C.2   227  ILE227      0.2287
    108  O         18.9840  -55.9240   23.5930 O.2   227  ILE227     -0.2864
    109  CB        19.9790  -56.0790   26.4530 C.3   227  ILE227      0.0276
    110  CG1       21.3110  -56.8090   26.0690 C.3   227  ILE227      0.0022
    111  CG2       19.6710  -55.8710   27.9610 C.3   227  ILE227      0.0022
    112  CD1       22.5900  -56.3180   26.7550 C.3   227  ILE227      0.0001
    113  N         16.7680  -47.4720   17.7650 N.3   234  MET234     -0.1230
    114  CA        17.4050  -46.8880   18.8810 C.3   234  MET234      0.1702
    115  C         18.8840  -47.3550   18.9090 C.2   234  MET234      0.2592
    116  O         19.7870  -46.5410   19.0900 O.2   234  MET234     -0.2718
    117  CB        16.7050  -47.3410   20.1600 C.3   234  MET234      0.0401
    118  CG        17.3780  -46.7850   21.3960 C.3   234  MET234      0.0596
    119  SD        17.0060  -47.6100   22.9370 S.3   234  MET234     -0.1393
    120  CE        15.2830  -47.7250   22.9750 C.3   234  MET234      0.0692
    121  N         19.1180  -48.6530   18.7020 N.am  235  TRP235     -0.1976
    122  CA        20.4650  -49.2020   18.8000 C.3   235  TRP235      0.1640
    123  C         21.3550  -48.9020   17.6050 C.2   235  TRP235      0.2290
    124  O         22.5840  -48.7170   17.7340 O.2   235  TRP235     -0.2864
    125  CB        20.4540  -50.6590   19.2970 C.3   235  TRP235      0.0576
    126  CG        20.2650  -50.5880   20.7560 C.ar  235  TRP235      0.0006
    127  CD1       19.0730  -50.6510   21.4430 C.ar  235  TRP235      0.0946
    128  CD2       21.2660  -50.2400   21.7280 C.ar  235  TRP235      0.0152
    129  NE1       19.2860  -50.4010   22.7840 N.ar  235  TRP235     -0.2442
    130  CE2       20.6250  -50.1670   22.9820 C.ar  235  TRP235      0.0810
    131  CE3       22.6490  -50.0110   21.6530 C.ar  235  TRP235      0.0012
    132  CZ2       21.3090  -49.8420   24.1520 C.ar  235  TRP235      0.0191
    133  CZ3       23.3550  -49.7040   22.8450 C.ar  235  TRP235      0.0001
    134  CH2       22.6950  -49.6200   24.0570 C.ar  235  TRP235      0.0015
    135  N         22.5490  -45.3890   18.2250 N.3   238  ILE238     -0.1245
    136  CA        23.5840  -45.4070   19.2480 C.3   238  ILE238      0.1561
    137  C         24.9620  -45.8340   18.7250 C.2   238  ILE238      0.2260
    138  O         25.9710  -45.2080   19.0220 O.2   238  ILE238     -0.2867
    139  CB        23.2030  -46.3020   20.4940 C.3   238  ILE238      0.0252
    140  CG1       22.1090  -45.6310   21.3150 C.3   238  ILE238      0.0019
    141  CG2       24.3780  -46.4890   21.4080 C.3   238  ILE238      0.0019
    142  CD1       21.3200  -46.5620   22.2730 C.3   238  ILE238      0.0001
@<TRIPOS>BOND
     1   123   124    2
     2   123   122    1
     3   113   114    1
     4   135   136    1
     5   121   122    1
     6   121   115   am
     7   137   138    2
     8   137   136    1
     9   122   125    1
    10   114   115    1
    11   114   117    1
    12   115   116    2
    13   136   139    1
    14   125   126    1
    15   117   118    1
    16   139   140    1
    17   139   141    1
    18   126   127   ar
    19   126   128   ar
    20   140   142    1
    21   118   119    1
    22   127   129   ar
    23   131   128   ar
    24   131   133   ar
    25   128   130   ar
    26    87    86    2
    27    86    85    1
    28   129   130   ar
    29   133   134   ar
    30   119   120    1
    31   130   132   ar
    32    77    76    2
    33    78    79    1
    34    78    75    1
    35    88    85    1
    36    88    89    1
    37   108   107    2
    38    80    79   ar
    39    80    82   ar
    40    85    84    1
    41    76    75    1
    42    79    81   ar
    43   134   132   ar
    44    75    74    1
    45    82    83   ar
    46   107   106    1
    47    51    50    2
    48    89    91   ar
    49    89    90   ar
    50    91    93   ar
    51     1     2    1
    52    81    83   ar
    53     5     6    1
    54     5     2    1
    55     3     2    1
    56     3     4    2
    57    97    96    2
    58    74    70   am
    59    50    49    1
    60    90    92   ar
    61   106   109    1
    62   106   105    1
    63    93    92   ar
    64    52    49    1
    65    52    53    1
    66   110   109    1
    67   110   112    1
    68    71    70    2
    69    96   105   am
    70    96    95    1
    71    49    48    1
    72   109   111    1
    73    70    69    1
    74    60    59    2
    75    53    54    1
    76    94    95    1
    77    59    58    1
    78    95    98    1
    79    55    54   ar
    80    73    72    1
    81    44    43    2
    82    48    43   am
    83    54    56   ar
    84    69    72    1
    85    69    68    1
    86    43    42    1
    87    58    61    1
    88    58    57    1
    89    61    62    1
    90    98    99    1
    91    15    16   ar
    92    15    13   ar
    93    16    14   ar
    94    99   100    1
    95    13    12   ar
    96    14    12   ar
    97    12    11    1
    98    11     8    1
    99    46    45    1
   100    62    64   ar
   101    62    63   ar
   102    42    41    1
   103    42    45    1
   104     8     7    1
   105     8     9    1
   106   103   102    1
   107   100   101    1
   108    41    39   am
   109    45    47    1
   110    64    66   ar
   111    23    22    1
   112    23    17    1
   113    63    65   ar
   114   102   101    2
   115   102   104    1
   116    22    21    1
   117     9    17   am
   118     9    10    2
   119    20    19    2
   120    17    18    1
   121    35    34    2
   122    39    38    1
   123    39    40    2
   124    66    67   ar
   125    38    37    1
   126    65    67   ar
   127    31    29    1
   128    19    18    1
   129    19    24   am
   130    18    21    1
   131    34    37   am
   132    34    33    1
   133    32    33    1
   134    32    26   am
   135    25    24    1
   136    25    26    1
   137    25    28    1
   138    30    28    1
   139    29    28    1
   140    33    36    1
   141    26    27    2
