@<TRIPOS>MOLECULE
tmp/3ggsA00.pdb
 125 118 0 0 0
SMALL
GASTEIGER

@<TRIPOS>ATOM
      1  N        -14.9010   -1.8180  -51.1750 N.3    31  SER31      -0.1217
      2  CA       -14.7860   -3.0850  -50.4720 C.3    31  SER31       0.1889
      3  C        -15.8350   -4.0870  -50.9670 C.2    31  SER31       0.2288
      4  O        -17.0280   -3.7870  -50.9900 O.2    31  SER31      -0.2866
      5  CB       -14.9240   -2.8510  -48.9680 C.3    31  SER31       0.2089
      6  OG       -14.5260   -3.9920  -48.2380 O.3    31  SER31      -0.2183
      7  N         -7.3640    3.8380  -46.7140 N.3    84  HIS84      -0.1241
      8  CA        -8.3760    4.4840  -45.8660 C.3    84  HIS84       0.1621
      9  C         -7.7200    5.3040  -44.7600 C.2    84  HIS84       0.2264
     10  O         -6.6040    5.0080  -44.3140 O.2    84  HIS84      -0.2867
     11  CB        -9.3220    3.4730  -45.2160 C.3    84  HIS84       0.0745
     12  CG       -10.0330    2.5780  -46.1830 C.ar   84  HIS84       0.0817
     13  ND1       -9.4690    1.4230  -46.6850 N.ar   84  HIS84      -0.2268
     14  CD2      -11.2800    2.6450  -46.7050 C.ar   84  HIS84       0.1154
     15  CE1      -10.3320    0.8270  -47.4850 C.ar   84  HIS84       0.1986
     16  NE2      -11.4370    1.5480  -47.5170 N.ar   84  HIS84      -0.2212
     17  N         -8.8780    5.5950  -41.6510 N.3    86  TYR86      -0.1241
     18  CA        -8.8780    4.7820  -40.4330 C.3    86  TYR86       0.1605
     19  C         -7.7030    3.8400  -40.2790 C.2    86  TYR86       0.2264
     20  O         -7.4220    3.4100  -39.1680 O.2    86  TYR86      -0.2867
     21  CB       -10.1840    3.9970  -40.2580 C.3    86  TYR86       0.0534
     22  CG       -10.5010    2.9690  -41.3200 C.ar   86  TYR86      -0.0201
     23  CD1      -11.6260    3.1150  -42.1310 C.ar   86  TYR86      -0.0009
     24  CD2       -9.7140    1.8320  -41.4910 C.ar   86  TYR86      -0.0009
     25  CE1      -11.9340    2.1800  -43.1040 C.ar   86  TYR86       0.0417
     26  CE2      -10.0180    0.8880  -42.4650 C.ar   86  TYR86       0.0417
     27  CZ       -11.1260    1.0750  -43.2710 C.ar   86  TYR86       0.1957
     28  OH       -11.4430    0.1550  -44.2360 O.3    86  TYR86      -0.2866
     29  N        -18.1960    2.3490  -53.5590 N.3   113  ASN113     -0.1225
     30  CA       -17.9450    2.0240  -52.1560 C.3   113  ASN113      0.1785
     31  C        -19.0990    1.2190  -51.5970 C.2   113  ASN113      0.2597
     32  O        -20.1630    1.1330  -52.2170 O.2   113  ASN113     -0.2718
     33  CB       -17.7160    3.2990  -51.3190 C.3   113  ASN113      0.1169
     34  CG       -18.9690    4.1770  -51.2110 C.2   113  ASN113      0.2627
     35  OD1      -20.0780    3.6880  -50.9410 O.2   113  ASN113     -0.2716
     36  ND2      -18.7910    5.4810  -51.4150 N.am  113  ASN113     -0.0877
     37  N        -18.8660    0.6160  -50.4360 N.am  114  ALA114     -0.1966
     38  CA       -19.9150   -0.0210  -49.6470 C.3   114  ALA114      0.1728
     39  C        -20.3300    0.9760  -48.5710 C.2   114  ALA114      0.2616
     40  O        -19.5090    1.7620  -48.1040 O.2   114  ALA114     -0.2715
     41  CB       -19.4090   -1.3090  -49.0200 C.3   114  ALA114      0.0334
     42  N        -21.6040    0.9490  -48.1800 N.am  115  ALA115     -0.1963
     43  CA       -22.1060    1.9210  -47.2230 C.3   115  ALA115      0.1728
     44  C        -23.2620    1.3870  -46.3910 C.2   115  ALA115      0.2616
     45  O        -24.0250    0.5170  -46.8340 O.2   115  ALA115     -0.2715
     46  CB       -22.5210    3.1960  -47.9400 C.3   115  ALA115      0.0334
     47  N        -23.3700    1.9210  -45.1730 N.am  116  GLY116     -0.1955
     48  CA       -24.5340    1.6990  -44.3420 C.3   116  GLY116      0.1869
     49  C        -25.6220    2.6420  -44.7960 C.2   116  GLY116      0.2309
     50  O        -25.3560    3.8130  -45.0840 O.2   116  GLY116     -0.2863
     51  N        -17.5780    9.4980  -42.5300 N.3   193  VAL193     -0.1245
     52  CA       -17.0780    9.5490  -41.1580 C.3   193  VAL193      0.1561
     53  C        -15.6900    8.8970  -41.1790 C.2   193  VAL193      0.2260
     54  O        -15.4150    8.0660  -42.0390 O.2   193  VAL193     -0.2867
     55  CB       -18.0300    8.8200  -40.2210 C.3   193  VAL193      0.0252
     56  CG1      -19.4360    9.4820  -40.2760 C.3   193  VAL193      0.0019
     57  CG2      -18.1130    7.3250  -40.5800 C.3   193  VAL193      0.0019
     58  N        -17.9920    1.8170  -35.5010 N.3   198  PHE198     -0.1227
     59  CA       -19.3100    2.0900  -36.1080 C.3   198  PHE198      0.1736
     60  C        -20.1830    2.9950  -35.2450 C.2   198  PHE198      0.2595
     61  O        -19.9510    3.1470  -34.0530 O.2   198  PHE198     -0.2718
     62  CB       -20.0510    0.7720  -36.3720 C.3   198  PHE198      0.0547
     63  CG       -19.7590    0.1550  -37.7090 C.ar  198  PHE198     -0.0202
     64  CD1      -18.6290    0.5080  -38.4510 C.ar  198  PHE198     -0.0042
     65  CD2      -20.6100   -0.8050  -38.2250 C.ar  198  PHE198     -0.0042
     66  CE1      -18.3750   -0.0770  -39.6980 C.ar  198  PHE198     -0.0003
     67  CE2      -20.3540   -1.3930  -39.4670 C.ar  198  PHE198     -0.0003
     68  CZ       -19.2340   -1.0250  -40.2000 C.ar  198  PHE198     -0.0000
     69  N        -21.2160    3.5510  -35.8660 N.am  199  GLN199     -0.1979
     70  CA       -22.1190    4.5020  -35.2270 C.3   199  GLN199      0.1601
     71  C        -22.8540    3.9410  -34.0130 C.2   199  GLN199      0.2287
     72  O        -23.1080    2.7460  -33.9330 O.2   199  GLN199     -0.2864
     73  CB       -23.1460    5.0200  -36.2380 C.3   199  GLN199      0.0394
     74  CG       -22.6440    6.1650  -37.1360 C.3   199  GLN199      0.0908
     75  CD       -21.1590    6.0590  -37.5350 C.2   199  GLN199      0.2608
     76  OE1      -20.2760    6.6190  -36.8610 O.2   199  GLN199     -0.2717
     77  NE2      -20.8870    5.3460  -38.6350 N.am  199  GLN199     -0.0878
     78  N        -23.8700    6.2400  -45.1230 N.3   215  VAL215     -0.1231
     79  CA       -22.6240    6.5440  -44.4550 C.3   215  VAL215      0.1692
     80  C        -21.5720    5.5360  -44.8740 C.2   215  VAL215      0.2593
     81  O        -21.9070    4.3790  -45.1740 O.2   215  VAL215     -0.2718
     82  CB       -22.7500    6.5430  -42.8890 C.3   215  VAL215      0.0266
     83  CG1      -23.3650    5.2630  -42.3910 C.3   215  VAL215      0.0020
     84  CG2      -21.3440    6.7770  -42.2340 C.3   215  VAL215      0.0020
     85  N        -20.3210    5.9990  -44.8980 N.am  216  GLY216     -0.1942
     86  CA       -19.1430    5.1580  -45.1170 C.3   216  GLY216      0.2014
     87  C        -17.8660    5.9400  -44.7800 C.2   216  GLY216      0.2638
     88  O        -17.9430    7.1000  -44.3750 O.2   216  GLY216     -0.2714
     89  N        -16.6910    5.3380  -44.9700 N.am  217  MET217     -0.1976
     90  CA       -15.4290    5.9240  -44.4650 C.3   217  MET217      0.1605
     91  C        -14.4040    6.2200  -45.5510 C.2   217  MET217      0.2287
     92  O        -13.1760    6.1850  -45.2940 O.2   217  MET217     -0.2864
     93  CB       -14.7910    4.9790  -43.4420 C.3   217  MET217      0.0413
     94  CG       -15.7820    4.2830  -42.5180 C.3   217  MET217      0.0598
     95  SD       -14.9980    3.0350  -41.4710 S.3   217  MET217     -0.1393
     96  CE       -16.3600    2.7250  -40.3390 C.3   217  MET217      0.0692
     97  N        -24.7590   -2.1310  -47.8860 N.3   240  THR240     -0.1203
     98  CA       -24.4570   -3.4580  -47.3360 C.3   240  THR240      0.1994
     99  C        -25.2020   -3.8010  -46.0400 C.2   240  THR240      0.2617
    100  O        -25.3490   -4.9810  -45.7260 O.2   240  THR240     -0.2717
    101  CB       -22.9420   -3.6630  -47.1060 C.3   240  THR240      0.1784
    102  OG1      -22.4460   -2.6620  -46.2170 O.3   240  THR240     -0.2211
    103  CG2      -22.1840   -3.5870  -48.4120 C.3   240  THR240      0.0376
    104  N        -25.6530   -2.7900  -45.2910 N.am  241  ASP241     -0.1973
    105  CA       -26.6350   -2.9940  -44.2010 C.3   241  ASP241      0.1709
    106  C        -27.3960   -1.7090  -43.8480 C.2   241  ASP241      0.2293
    107  O        -26.8980   -0.6100  -44.0870 O.2   241  ASP241     -0.2864
    108  CB       -25.9610   -3.5340  -42.9350 C.3   241  ASP241      0.1436
    109  CG       -25.1230   -2.4890  -42.2320 C.2   241  ASP241      0.3671
    110  OD1      -24.0370   -2.1440  -42.7470 O.co2 241  ASP241     -0.2456
    111  OD2      -25.5500   -2.0080  -41.1610 O.co2 241  ASP241     -0.2456
    112  N        -28.3210    0.7580  -41.0730 N.3   243  VAL243     -0.1245
    113  CA       -27.8700    1.1510  -39.7260 C.3   243  VAL243      0.1561
    114  C        -29.0890    1.2920  -38.8040 C.2   243  VAL243      0.2260
    115  O        -30.1700    1.7040  -39.2470 O.2   243  VAL243     -0.2867
    116  CB       -27.0400    2.4590  -39.7440 C.3   243  VAL243      0.0252
    117  CG1      -25.9430    2.3730  -40.7880 C.3   243  VAL243      0.0019
    118  CG2      -27.9180    3.6520  -40.0270 C.3   243  VAL243      0.0019
    119  N        -23.3530   -7.6960  -39.6800 N.3   258  VAL258     -0.1245
    120  CA       -23.1650   -6.7520  -40.7940 C.3   258  VAL258      0.1561
    121  C        -22.1820   -7.3640  -41.7920 C.2   258  VAL258      0.2260
    122  O        -20.9680   -7.1670  -41.6840 O.2   258  VAL258     -0.2867
    123  CB       -22.6250   -5.3670  -40.3240 C.3   258  VAL258      0.0252
    124  CG1      -22.2770   -4.4780  -41.5270 C.3   258  VAL258      0.0019
    125  CG2      -23.6290   -4.6710  -39.4030 C.3   258  VAL258      0.0019
@<TRIPOS>BOND
     1    29    30    1
     2    32    31    2
     3    30    31    1
     4    30    33    1
     5    31    37   am
     6    36    34   am
     7    33    34    1
     8    34    35    2
     9     1     2    1
    10     4     3    2
    11     3     2    1
    12     2     5    1
    13    37    38    1
    14    38    41    1
    15    38    39    1
    16     5     6    1
    17    39    42   am
    18    39    40    2
    19   103   101    1
    20    42    43    1
    21    46    43    1
    22    97    98    1
    23    16    15   ar
    24    16    14   ar
    25    15    13   ar
    26    98   101    1
    27    98    99    1
    28    43    44    1
    29   101   102    1
    30    45    44    2
    31     7     8    1
    32    14    12   ar
    33    13    12   ar
    34    44    47   am
    35    12    11    1
    36    99   100    2
    37    99   104   am
    38     8    11    1
    39     8     9    1
    40    91    92    2
    41    91    90    1
    42   104   105    1
    43    81    80    2
    44    47    48    1
    45    78    79    1
    46    86    85    1
    47    86    87    1
    48    50    49    2
    49    89    87   am
    50    89    90    1
    51    85    80   am
    52    80    79    1
    53    49    48    1
    54    87    88    2
    55     9    10    2
    56    90    93    1
    57    79    82    1
    58    28    27    1
    59   105   106    1
    60   105   108    1
    61   107   106    2
    62    93    94    1
    63    27    25   ar
    64    27    26   ar
    65    25    23   ar
    66   108   109    1
    67    82    83    1
    68    82    84    1
    69   110   109   ar
    70    51    52    1
    71    94    95    1
    72    26    24   ar
    73   109   111   ar
    74    23    22   ar
    75    54    53    2
    76   121   122    2
    77   121   120    1
    78    17    18    1
    79   124   123    1
    80    24    22   ar
    81    95    96    1
    82    22    21    1
    83    53    52    1
    84    52    55    1
    85   112   113    1
    86   120   123    1
    87   120   119    1
    88   117   116    1
    89    57    55    1
    90    18    19    1
    91    18    21    1
    92   123   125    1
    93    19    20    2
    94    56    55    1
    95    68    66   ar
    96    68    67   ar
    97   118   116    1
    98   116   113    1
    99   113   114    1
   100    66    64   ar
   101    67    65   ar
   102   115   114    2
   103    77    75   am
   104    64    63   ar
   105    65    63   ar
   106    63    62    1
   107    75    74    1
   108    75    76    2
   109    74    73    1
   110    62    59    1
   111    73    70    1
   112    59    58    1
   113    59    60    1
   114    69    60   am
   115    69    70    1
   116    60    61    2
   117    70    71    1
   118    71    72    2
