@<TRIPOS>MOLECULE
tmp/3gguA00.pdb
 111 104 0 0 0
SMALL
GASTEIGER

@<TRIPOS>ATOM
      1  N        -21.1330   19.6580   33.4630 N.3     8  ARG8       -0.1245
      2  CA       -20.5450   19.4520   32.1480 C.3     8  ARG8        0.1563
      3  C        -21.4930   20.0600   31.1210 C.2     8  ARG8        0.2260
      4  O        -22.7070   19.8400   31.1950 O.2     8  ARG8       -0.2867
      5  CB       -20.3770   17.9580   31.8710 C.3     8  ARG8        0.0307
      6  CG       -19.5300   17.2400   32.8990 C.3     8  ARG8        0.0489
      7  CD       -18.8210   16.0490   32.2810 C.3     8  ARG8        0.2205
      8  NE       -18.2490   15.1710   33.2990 N.pl3   8  ARG8       -0.0865
      9  CZ       -17.3010   14.2620   33.0750 C.cat   8  ARG8        0.5346
     10  NH1      -16.7760   14.1090   31.8600 N.pl3   8  ARG8        0.1354
     11  NH2      -16.8610   13.5130   34.0800 N.pl3   8  ARG8        0.1354
     12  N        -20.0870   16.9530   24.5680 N.3    23  LEU23      -0.1245
     13  CA       -19.6230   17.9470   25.4810 C.3    23  LEU23       0.1561
     14  C        -19.0450   19.1230   24.6600 C.2    23  LEU23       0.2260
     15  O        -18.1680   18.9110   23.7980 O.2    23  LEU23      -0.2867
     16  CB       -18.5580   17.2750   26.3590 C.3    23  LEU23       0.0270
     17  CG       -17.7940   17.9520   27.4910 C.3    23  LEU23       0.0019
     18  CD1      -18.7190   18.1410   28.6490 C.3    23  LEU23       0.0001
     19  CD2      -16.7000   17.0070   27.9610 C.3    23  LEU23       0.0001
     20  N        -16.4780   21.5320   24.1810 N.3    25  ASP25      -0.1239
     21  CA       -15.1420   21.3490   24.7660 C.3    25  ASP25       0.1674
     22  C        -14.1130   22.3110   24.1580 C.2    25  ASP25       0.2266
     23  O        -13.5630   22.0260   23.0930 O.2    25  ASP25      -0.2867
     24  CB       -14.7030   19.9110   24.5020 C.3    25  ASP25       0.1410
     25  CG       -13.4200   19.5550   25.2080 C.2    25  ASP25       0.3668
     26  OD1      -12.7930   20.4570   25.8090 O.co2  25  ASP25      -0.2456
     27  OD2      -13.0280   18.3790   25.1420 O.co2  25  ASP25      -0.2456
     28  N        -11.1990   22.7980   25.0020 N.3    27  GLY27      -0.1210
     29  CA        -9.8610   22.1800   24.9950 C.3    27  GLY27       0.1956
     30  C         -9.6710   21.2080   23.8410 C.2    27  GLY27       0.2612
     31  O         -8.5810   20.6760   23.6550 O.2    27  GLY27      -0.2717
     32  N        -10.7180   20.9850   23.0510 N.am   28  ALA28      -0.1965
     33  CA       -10.6370   20.0860   21.8840 C.3    28  ALA28       0.1728
     34  C        -10.4810   20.8680   20.5850 C.2    28  ALA28       0.2616
     35  O        -11.3080   21.7210   20.2780 O.2    28  ALA28      -0.2715
     36  CB       -11.8850   19.1750   21.8290 C.3    28  ALA28       0.0334
     37  N         -9.4110   20.6000   19.8300 N.am   29  ASP29      -0.1957
     38  CA        -9.2230   21.2330   18.5330 C.3    29  ASP29       0.1840
     39  C        -10.2720   20.7470   17.5480 C.2    29  ASP29       0.2622
     40  O        -10.7530   21.5370   16.7180 O.2    29  ASP29      -0.2715
     41  CB        -7.8550   20.8850   17.9570 C.3    29  ASP29       0.1450
     42  CG        -6.6990   21.4030   18.8020 C.2    29  ASP29       0.3671
     43  OD1       -6.8960   22.2970   19.6420 O.co2  29  ASP29      -0.2456
     44  OD2       -5.5740   20.9330   18.5550 O.co2  29  ASP29      -0.2456
     45  N        -10.5900   19.4530   17.6720 N.am   30  ASP30      -0.1971
     46  CA       -11.4210   18.6710   16.7400 C.3    30  ASP30       0.1709
     47  C        -12.6770   18.0910   17.4040 C.2    30  ASP30       0.2293
     48  O        -12.7260   17.8910   18.6160 O.2    30  ASP30      -0.2864
     49  CB       -10.6220   17.4690   16.2120 C.3    30  ASP30       0.1436
     50  CG        -9.2270   17.8360   15.7200 C.2    30  ASP30       0.3671
     51  OD1       -9.1290   18.6720   14.7960 O.co2  30  ASP30      -0.2456
     52  OD2       -8.2240   17.2570   16.2320 O.co2  30  ASP30      -0.2456
     53  N        -15.0990   15.0120   18.1130 N.3    32  VAL32      -0.1245
     54  CA       -14.8200   13.5780   18.1800 C.3    32  VAL32       0.1561
     55  C        -16.0030   12.8040   18.7430 C.2    32  VAL32       0.2260
     56  O        -16.5360   13.1850   19.7890 O.2    32  VAL32      -0.2867
     57  CB       -13.5850   13.2660   19.0640 C.3    32  VAL32       0.0252
     58  CG1      -13.2040   11.8060   18.9080 C.3    32  VAL32       0.0019
     59  CG2      -12.4160   14.1720   18.7060 C.3    32  VAL32       0.0019
     60  N         -5.0440   10.9560   17.0470 N.3    47  ILE47      -0.1231
     61  CA        -5.0890   12.1140   17.9330 C.3    47  ILE47       0.1692
     62  C         -4.5930   11.7810   19.3450 C.2    47  ILE47       0.2593
     63  O         -4.7030   10.6370   19.8020 O.2    47  ILE47      -0.2718
     64  CB        -6.4960   12.7750   17.9510 C.3    47  ILE47       0.0266
     65  CG1       -7.5560   11.7600   18.3740 C.3    47  ILE47       0.0019
     66  CG2       -6.7870   13.3740   16.5620 C.3    47  ILE47       0.0020
     67  CD1       -8.8870   12.3490   18.7760 C.3    47  ILE47       0.0001
     68  N         -4.0520   12.7790   20.0270 N.am   48  GLY48      -0.1942
     69  CA        -3.4430   12.5660   21.3310 C.3    48  GLY48       0.2014
     70  C         -4.1630   13.3530   22.3990 C.2    48  GLY48       0.2639
     71  O         -4.4490   14.5380   22.2210 O.2    48  GLY48      -0.2714
     72  N         -4.4530   12.7020   23.5170 N.am   49  GLY49      -0.1939
     73  CA        -5.0390   13.3980   24.6590 C.3    49  GLY49       0.2014
     74  C         -4.3010   13.0400   25.9230 C.2    49  GLY49       0.2638
     75  O         -3.1530   12.5850   25.8810 O.2    49  GLY49      -0.2714
     76  N         -4.9720   13.2230   27.0560 N.am   50  ILE50      -0.1977
     77  CA        -4.3710   12.9910   28.3680 C.3    50  ILE50       0.1596
     78  C         -3.7530   11.6060   28.5850 C.2    50  ILE50       0.2287
     79  O         -2.6360   11.5110   29.0690 O.2    50  ILE50      -0.2864
     80  CB        -5.3330   13.3940   29.5290 C.3    50  ILE50       0.0276
     81  CG1       -4.7010   14.5370   30.3480 C.3    50  ILE50       0.0022
     82  CG2       -5.6160   12.2120   30.4750 C.3    50  ILE50       0.0022
     83  CD1       -5.7150   15.4620   31.0450 C.3    50  ILE50       0.0001
     84  N        -13.4260    7.2400   22.2510 N.3    80  THR80      -0.1204
     85  CA       -13.3060    8.3110   23.2250 C.3    80  THR80       0.1979
     86  C        -14.3510    8.0200   24.2900 C.2    80  THR80       0.2460
     87  O        -15.4460    7.5540   23.9730 O.2    80  THR80      -0.2732
     88  CB       -13.5420    9.7240   22.6090 C.3    80  THR80       0.1783
     89  OG1      -13.6320   10.6840   23.6620 O.3    80  THR80      -0.2211
     90  CG2      -14.8410    9.7870   21.8010 C.3    80  THR80       0.0376
     91  N        -14.0170    8.2680   25.5570 N.am   81  PRO81      -0.2717
     92  CA       -15.0110    8.0050   26.5820 C.3    81  PRO81       0.1535
     93  C        -16.1950    8.9530   26.5530 C.2    81  PRO81       0.2599
     94  O        -17.2540    8.6070   27.0780 O.2    81  PRO81      -0.2715
     95  CB       -14.2380    8.1930   27.8870 C.3    81  PRO81       0.0310
     96  CG       -12.8240    8.3110   27.5120 C.3    81  PRO81       0.0237
     97  CD       -12.7490    8.7550   26.1190 C.3    81  PRO81       0.0939
     98  N        -16.0080   10.1310   25.9450 N.am   82  THR82      -0.1951
     99  CA       -17.0210   11.1760   25.9010 C.3    82  THR82       0.1897
    100  C        -16.9800   11.8070   24.5030 C.2    82  THR82       0.2313
    101  O        -15.8810   12.1520   24.0200 O.2    82  THR82      -0.2863
    102  CB       -16.6760   12.2820   26.9400 C.3    82  THR82       0.1794
    103  OG1      -16.7820   11.7610   28.2880 O.3    82  THR82      -0.2208
    104  CG2      -17.5890   13.4710   26.7970 C.3    82  THR82       0.0378
    105  N        -17.1280   14.8150   21.9690 N.3    84  VAL84      -0.1245
    106  CA       -16.7310   16.2120   22.2460 C.3    84  VAL84       0.1561
    107  C        -16.9260   17.0650   21.0030 C.2    84  VAL84       0.2260
    108  O        -16.6540   16.6150   19.8800 O.2    84  VAL84      -0.2867
    109  CB       -15.2880   16.3810   22.7740 C.3    84  VAL84       0.0252
    110  CG1      -15.0790   15.6830   24.1680 C.3    84  VAL84       0.0019
    111  CG2      -14.2250   15.9990   21.6970 C.3    84  VAL84       0.0019
@<TRIPOS>BOND
     1    51    50   ar
     2    50    49    1
     3    50    52   ar
     4    49    46    1
     5    66    64    1
     6    40    39    2
     7    46    47    1
     8    46    45    1
     9    60    61    1
    10    47    48    2
    11    39    45   am
    12    39    38    1
    13    61    64    1
    14    61    62    1
    15    64    65    1
    16    41    38    1
    17    41    42    1
    18    53    54    1
    19    54    55    1
    20    54    57    1
    21    65    67    1
    22    38    37    1
    23    44    42   ar
    24    59    57    1
    25    55    56    2
    26    42    43   ar
    27    58    57    1
    28    62    63    2
    29    62    68   am
    30    37    34   am
    31   108   107    2
    32    68    69    1
    33    35    34    2
    34    34    33    1
    35   107   106    1
    36    69    70    1
    37   111   109    1
    38    90    88    1
    39    36    33    1
    40    33    32    1
    41   105   106    1
    42    71    70    2
    43   106   109    1
    44    84    85    1
    45    70    72   am
    46    88    85    1
    47    88    89    1
    48   109   110    1
    49    32    30   am
    50    23    22    2
    51    85    86    1
    52    72    73    1
    53    31    30    2
    54    15    14    2
    55    30    29    1
    56    87    86    2
    57   101   100    2
    58    22    21    1
    59    20    21    1
    60    86    91   am
    61    24    21    1
    62    24    25    1
    63   100    99    1
    64    12    13    1
    65    73    74    1
    66    14    13    1
    67    29    28    1
    68    27    25   ar
    69    25    26   ar
    70    13    16    1
    71    91    97    1
    72    91    92    1
    73    75    74    2
    74    99    98    1
    75    99   102    1
    76    74    76   am
    77    98    93   am
    78    97    96    1
    79    16    17    1
    80    93    92    1
    81    93    94    2
    82    92    95    1
    83   104   102    1
    84   102   103    1
    85    76    77    1
    86    17    19    1
    87    17    18    1
    88    96    95    1
    89    77    78    1
    90    77    80    1
    91    78    79    2
    92    80    81    1
    93    80    82    1
    94    81    83    1
    95     3     4    2
    96     3     2    1
    97    10     9    1
    98     5     2    1
    99     5     6    1
   100     2     1    1
   101     7     6    1
   102     7     8    1
   103     9     8    2
   104     9    11    1
