@<TRIPOS>MOLECULE
tmp/3ggvA00.pdb
 113 105 0 0 0
SMALL
GASTEIGER

@<TRIPOS>ATOM
      1  N         24.5170   -6.9320   17.7100 N.3     8  ARG8       -0.1245
      2  CA        23.2110   -6.4250   17.2700 C.3     8  ARG8        0.1563
      3  C         22.4340   -5.8220   18.4490 C.2     8  ARG8        0.2260
      4  O         22.2980   -6.4730   19.4850 O.2     8  ARG8       -0.2867
      5  CB        22.3860   -7.5430   16.6360 C.3     8  ARG8        0.0307
      6  CG        23.1030   -8.3300   15.5700 C.3     8  ARG8        0.0489
      7  CD        22.0770   -9.0280   14.7050 C.3     8  ARG8        0.2205
      8  NE        22.6640   -9.6870   13.5410 N.pl3   8  ARG8       -0.0865
      9  CZ        22.4510  -10.9570   13.1990 C.cat   8  ARG8        0.5346
     10  NH1       21.6420  -11.7260   13.9140 N.pl3   8  ARG8        0.1354
     11  NH2       23.0380  -11.4480   12.1200 N.pl3   8  ARG8        0.1354
     12  N         19.9540   -5.8520   20.2570 N.3    10  LEU10      -0.1245
     13  CA        18.7640   -6.6220   20.6170 C.3    10  LEU10       0.1561
     14  C         18.3110   -6.2590   22.0220 C.2    10  LEU10       0.2260
     15  O         18.9820   -6.5850   22.9930 O.2    10  LEU10      -0.2867
     16  CB        19.0140   -8.1270   20.4960 C.3    10  LEU10       0.0270
     17  CG        19.1000   -8.6170   19.0470 C.3    10  LEU10       0.0019
     18  CD1       20.0530   -9.8160   18.8600 C.3    10  LEU10       0.0001
     19  CD2       17.7040   -8.8720   18.4660 C.3    10  LEU10       0.0001
     20  N         14.8870   -5.7090   17.6720 N.3    23  LEU23      -0.1245
     21  CA        16.0460   -5.0300   17.1500 C.3    23  LEU23       0.1561
     22  C         15.7750   -3.5370   17.1680 C.2    23  LEU23       0.2260
     23  O         14.6870   -3.1020   16.7950 O.2    23  LEU23      -0.2867
     24  CB        16.2760   -5.5170   15.7280 C.3    23  LEU23       0.0270
     25  CG        17.6020   -5.3070   14.9920 C.3    23  LEU23       0.0019
     26  CD1       18.8480   -5.6030   15.8360 C.3    23  LEU23       0.0001
     27  CD2       17.5830   -6.1810   13.7590 C.3    23  LEU23       0.0001
     28  N         16.2200   -0.5800   15.3470 N.3    25  ASP25      -0.1239
     29  CA        16.6170   -0.3520   13.9660 C.3    25  ASP25       0.1674
     30  C         16.3270    1.0620   13.4560 C.2    25  ASP25       0.2266
     31  O         15.1830    1.3850   13.1270 O.2    25  ASP25      -0.2867
     32  CB        15.8840   -1.3770   13.0980 C.3    25  ASP25       0.1410
     33  CG        16.2470   -1.2850   11.6210 C.2    25  ASP25       0.3668
     34  OD1       17.2790   -0.6710   11.2750 O.co2  25  ASP25      -0.2456
     35  OD2       15.4940   -1.8470   10.8000 O.co2  25  ASP25      -0.2456
     36  N         17.0810    2.3850   10.6110 N.3    27  GLY27      -0.1210
     37  CA        16.7670    2.4120    9.1900 C.3    27  GLY27       0.1956
     38  C         15.3850    1.8480    8.9010 C.2    27  GLY27       0.2612
     39  O         15.0580    1.5290    7.7450 O.2    27  GLY27      -0.2717
     40  N         14.5670    1.7120    9.9420 N.am   28  ALA28      -0.1965
     41  CA        13.1910    1.2820    9.7450 C.3    28  ALA28       0.1728
     42  C         12.2110    2.4460    9.9470 C.2    28  ALA28       0.2616
     43  O         12.1490    3.0530   11.0210 O.2    28  ALA28      -0.2715
     44  CB        12.8680    0.1050   10.6690 C.3    28  ALA28       0.0334
     45  N         11.4550    2.7720    8.9100 N.am   29  ASP29      -0.1957
     46  CA        10.4420    3.7990    9.0570 C.3    29  ASP29       0.1840
     47  C          9.4200    3.3210   10.0630 C.2    29  ASP29       0.2622
     48  O          9.0590    4.0440   10.9930 O.2    29  ASP29      -0.2715
     49  CB         9.7650    4.0900    7.7190 C.3    29  ASP29       0.1450
     50  CG        10.5730    5.0340    6.8530 C.2    29  ASP29       0.3671
     51  OD1       10.0180    6.0920    6.5070 O.co2  29  ASP29      -0.2456
     52  OD2       11.7670    4.7490    6.5420 O.co2  29  ASP29      -0.2456
     53  N          9.0010    2.0710    9.8830 N.am   30  ASP30      -0.1971
     54  CA         7.9060    1.4770   10.6220 C.3    30  ASP30       0.1709
     55  C          8.3720    0.3620   11.5330 C.2    30  ASP30       0.2293
     56  O          9.4250   -0.2240   11.3200 O.2    30  ASP30      -0.2864
     57  CB         6.9150    0.8910    9.6360 C.3    30  ASP30       0.1436
     58  CG         6.4990    1.8770    8.5690 C.2    30  ASP30       0.3671
     59  OD1        6.1800    3.0360    8.9240 O.co2  30  ASP30      -0.2456
     60  OD2        6.4830    1.4820    7.3780 O.co2  30  ASP30      -0.2456
     61  N          8.0620   -3.3080   12.6680 N.3    32  VAL32      -0.1245
     62  CA         7.4880   -4.5300   12.1430 C.3    32  VAL32       0.1561
     63  C          7.7530   -5.7170   13.0470 C.2    32  VAL32       0.2260
     64  O          8.8990   -6.0560   13.3060 O.2    32  VAL32      -0.2867
     65  CB         7.8090   -4.7520   10.6260 C.3    32  VAL32       0.0252
     66  CG1        9.1960   -4.3030   10.2750 C.3    32  VAL32       0.0019
     67  CG2        7.5720   -6.1800   10.2170 C.3    32  VAL32       0.0019
     68  N          5.1380   -3.6220    2.8560 N.3    47  ILE47      -0.1231
     69  CA         6.3260   -2.8590    3.2510 C.3    47  ILE47       0.1692
     70  C          7.5620   -3.1670    2.3850 C.2    47  ILE47       0.2593
     71  O          7.7770   -4.3090    1.9560 O.2    47  ILE47      -0.2718
     72  CB         6.6760   -2.9440    4.7680 C.3    47  ILE47       0.0266
     73  CG1        6.6540   -4.3740    5.2750 C.3    47  ILE47       0.0019
     74  CG2        5.7570   -2.0690    5.5790 C.3    47  ILE47       0.0020
     75  CD1        7.6140   -4.6040    6.4190 C.3    47  ILE47       0.0001
     76  N          8.3570   -2.1110    2.1750 N.am   48  GLY48      -0.1942
     77  CA         9.4700   -2.0690    1.2320 C.3    48  GLY48       0.2014
     78  C         10.5130   -3.1230    1.4650 C.2    48  GLY48       0.2639
     79  O         10.3350   -4.2690    1.0790 O.2    48  GLY48      -0.2714
     80  N         11.6150   -2.7340    2.0850 N.am   49  GLY49      -0.1939
     81  CA        12.6700   -3.6970    2.4200 C.3    49  GLY49       0.2014
     82  C         13.7010   -3.9540    1.3400 C.2    49  GLY49       0.2638
     83  O         13.4350   -3.7120    0.1660 O.2    49  GLY49      -0.2714
     84  N         14.8700   -4.4650    1.7360 N.am   50  ILE50      -0.1977
     85  CA        16.0190   -4.5950    0.8240 C.3    50  ILE50       0.1596
     86  C         15.6390   -5.2100   -0.5320 C.2    50  ILE50       0.2287
     87  O         15.6460   -4.5050   -1.5420 O.2    50  ILE50      -0.2864
     88  CB        17.2590   -5.2980    1.4860 C.3    50  ILE50       0.0276
     89  CG1       18.5580   -4.8600    0.8270 C.3    50  ILE50       0.0022
     90  CG2       17.1520   -6.7990    1.4080 C.3    50  ILE50       0.0022
     91  CD1       18.6370   -3.3890    0.5670 C.3    50  ILE50       0.0001
     92  N         11.5780  -12.0010    9.7910 N.3    81  PRO81      -0.2102
     93  CA        12.4950  -12.8890   10.5330 C.3    81  PRO81       0.1504
     94  C         12.8920  -12.4040   11.9420 C.2    81  PRO81       0.2575
     95  O         13.3620  -13.2140   12.7440 O.2    81  PRO81      -0.2718
     96  CB        13.7330  -12.9130    9.6470 C.3    81  PRO81       0.0282
     97  CG        13.7320  -11.5720    8.9930 C.3    81  PRO81       0.0208
     98  CD        12.2750  -11.3170    8.6820 C.3    81  PRO81       0.0893
     99  N         12.7520  -11.1060   12.2270 N.am   82  VAL82      -0.1980
    100  CA        12.9490  -10.5940   13.5810 C.3    82  VAL82       0.1595
    101  C         12.0020   -9.4220   13.8720 C.2    82  VAL82       0.2287
    102  O         11.5190   -8.7560   12.9490 O.2    82  VAL82      -0.2864
    103  CB        14.4050  -10.1720   13.8700 C.3    82  VAL82       0.0276
    104  CG1       15.3540  -11.1450   13.2960 C.3    82  VAL82       0.0022
    105  CG2       14.6990   -8.8210   13.2820 C.3    82  VAL82       0.0022
    106  N         11.2770   -5.8510   14.7580 N.3    84  ILE84      -0.1245
    107  CA        12.0100   -4.6840   14.3440 C.3    84  ILE84       0.1561
    108  C         11.3200   -3.4940   14.9590 C.2    84  ILE84       0.2260
    109  O         10.1250   -3.3240   14.7580 O.2    84  ILE84      -0.2867
    110  CB        11.9840   -4.5840   12.8030 C.3    84  ILE84       0.0252
    111  CG1       12.9410   -5.6140   12.2130 C.3    84  ILE84       0.0019
    112  CG2       12.3560   -3.1860   12.3200 C.3    84  ILE84       0.0019
    113  CD1       12.9890   -5.6270   10.7290 C.3    84  ILE84       0.0001
@<TRIPOS>BOND
     1    87    86    2
     2    86    85    1
     3    83    82    2
     4    91    89    1
     5    85    88    1
     6    85    84    1
     7    89    88    1
     8    79    78    2
     9    77    78    1
    10    77    76    1
    11    82    84   am
    12    82    81    1
    13    90    88    1
    14    78    80   am
    15    71    70    2
    16    80    81    1
    17    76    70   am
    18    70    69    1
    19    68    69    1
    20    69    72    1
    21    72    73    1
    22    72    74    1
    23    73    75    1
    24    51    50   ar
    25    52    50   ar
    26    50    49    1
    27    60    58   ar
    28    49    46    1
    29    39    38    2
    30    58    59   ar
    31    58    57    1
    32    98    97    1
    33    98    92    1
    34    38    37    1
    35    38    40   am
    36    45    46    1
    37    45    42   am
    38    97    96    1
    39    46    47    1
    40    37    36    1
    41    57    54    1
    42    96    93    1
    43    41    40    1
    44    41    42    1
    45    41    44    1
    46    92    93    1
    47    53    47   am
    48    53    54    1
    49    42    43    2
    50    47    48    2
    51    67    65    1
    52    66    65    1
    53    93    94    1
    54    54    55    1
    55    65    62    1
    56   113   111    1
    57    35    33   ar
    58    34    33   ar
    59    56    55    2
    60    33    32    1
    61    94    99   am
    62    94    95    2
    63    11     9    1
    64    62    61    1
    65    62    63    1
    66   111   110    1
    67    99   100    1
    68   112   110    1
    69   110   107    1
    70   102   101    2
    71    63    64    2
    72    32    29    1
    73    31    30    2
    74     9     8    2
    75     9    10    1
    76   105   103    1
    77   104   103    1
    78    30    29    1
    79     8     7    1
    80   100   103    1
    81   100   101    1
    82    27    25    1
    83    29    28    1
    84   107   106    1
    85   107   108    1
    86     7     6    1
    87   109   108    2
    88    25    24    1
    89    25    26    1
    90     6     5    1
    91    24    21    1
    92     5     2    1
    93    23    22    2
    94    21    22    1
    95    21    20    1
    96     2     1    1
    97     2     3    1
    98     3     4    2
    99    19    17    1
   100    18    17    1
   101    17    16    1
   102    12    13    1
   103    16    13    1
   104    13    14    1
   105    14    15    2
