@<TRIPOS>MOLECULE
tmp/3gh5A00.pdb
 154 151 0 0 0
SMALL
GASTEIGER

@<TRIPOS>ATOM
      1  N         32.3650    7.6950   38.0290 N.3   175  ARG175     -0.1245
      2  CA        33.6270    7.4840   38.7480 C.3   175  ARG175      0.1563
      3  C         33.5550    6.2800   39.6670 C.2   175  ARG175      0.2260
      4  O         34.4930    5.4780   39.7330 O.2   175  ARG175     -0.2867
      5  CB        34.0260    8.7510   39.5080 C.3   175  ARG175      0.0307
      6  CG        34.7630    9.7800   38.6360 C.3   175  ARG175      0.0489
      7  CD        34.1110   10.0590   37.2560 C.3   175  ARG175      0.2205
      8  NE        34.9260   11.0600   36.5730 N.pl3 175  ARG175     -0.0865
      9  CZ        34.8140   12.3700   36.7800 C.cat 175  ARG175      0.5346
     10  NH1       35.6500   13.1970   36.1680 N.pl3 175  ARG175      0.1354
     11  NH2       33.8700   12.8430   37.6010 N.pl3 175  ARG175      0.1354
     12  N         31.7660    9.2450   31.8660 N.3   204  ASP204     -0.1239
     13  CA        32.9570   10.0470   32.0290 C.3   204  ASP204      0.1674
     14  C         34.1520    9.2420   31.5270 C.2   204  ASP204      0.2266
     15  O         33.9920    8.3120   30.7230 O.2   204  ASP204     -0.2867
     16  CB        33.1170   10.4950   33.4820 C.3   204  ASP204      0.1410
     17  CG        33.8520   11.8260   33.6050 C.2   204  ASP204      0.3668
     18  OD1       35.0850   11.8460   33.4030 O.co2 204  ASP204     -0.2456
     19  OD2       33.1980   12.8520   33.9000 O.co2 204  ASP204     -0.2456
     20  N         35.8640   14.3970   28.7290 N.3   263  HIS263     -0.1241
     21  CA        35.4010   13.4020   29.6940 C.3   263  HIS263      0.1621
     22  C         34.7740   12.1980   28.9990 C.2   263  HIS263      0.2264
     23  O         33.7770   11.6260   29.4640 O.2   263  HIS263     -0.2867
     24  CB        34.4360   14.0530   30.7040 C.3   263  HIS263      0.0745
     25  CG        35.1380   14.8900   31.7250 C.ar  263  HIS263      0.0817
     26  ND1       35.7390   14.3410   32.8400 N.ar  263  HIS263     -0.2268
     27  CD2       35.3760   16.2240   31.7830 C.ar  263  HIS263      0.1154
     28  CE1       36.2960   15.3050   33.5540 C.ar  263  HIS263      0.1986
     29  NE2       36.0950   16.4560   32.9320 N.ar  263  HIS263     -0.2212
     30  N         41.6870   14.6330   34.9220 N.3   289  VAL289     -0.1245
     31  CA        40.6330   15.1420   34.0430 C.3   289  VAL289      0.1561
     32  C         41.2690   15.9560   32.9170 C.2   289  VAL289      0.2260
     33  O         42.4360   16.3740   33.0160 O.2   289  VAL289     -0.2867
     34  CB        39.5990   16.0510   34.7950 C.3   289  VAL289      0.0252
     35  CG1       38.9920   15.3510   36.0020 C.3   289  VAL289      0.0019
     36  CG2       40.2310   17.4010   35.2040 C.3   289  VAL289      0.0019
     37  N         32.4660   20.3730   29.9190 N.3   326  ASP326     -0.1225
     38  CA        33.5140   20.8230   30.8390 C.3   326  ASP326      0.1805
     39  C         34.8790   20.2450   30.4580 C.2   326  ASP326      0.2597
     40  O         34.9840   19.0980   30.0070 O.2   326  ASP326     -0.2718
     41  CB        33.1920   20.4060   32.2890 C.3   326  ASP326      0.1424
     42  CG        33.0610   18.9010   32.4560 C.2   326  ASP326      0.3668
     43  OD1       32.2990   18.2890   31.6830 O.co2 326  ASP326     -0.2456
     44  OD2       33.6860   18.3410   33.3860 O.co2 326  ASP326     -0.2456
     45  N         35.9200   21.0370   30.6930 N.am  327  GLU327     -0.1979
     46  CA        37.2930   20.5290   30.6930 C.3   327  GLU327      0.1602
     47  C         37.6350   19.7730   29.4140 C.2   327  GLU327      0.2287
     48  O         38.2480   18.7020   29.4410 O.2   327  GLU327     -0.2864
     49  CB        37.5300   19.6790   31.9500 C.3   327  GLU327      0.0415
     50  CG        37.5190   20.5380   33.2030 C.3   327  GLU327      0.1163
     51  CD        37.3760   19.7640   34.4920 C.2   327  GLU327      0.3649
     52  OE1       37.1150   18.5450   34.4580 O.co2 327  GLU327     -0.2457
     53  OE2       37.5150   20.4040   35.5620 O.co2 327  GLU327     -0.2457
     54  N         27.7990   22.5090   31.0000 N.3   357  TRP357     -0.1241
     55  CA        28.7050   23.1990   31.9190 C.3   357  TRP357      0.1605
     56  C         29.3240   24.4060   31.2090 C.2   357  TRP357      0.2264
     57  O         29.5340   24.3500   29.9970 O.2   357  TRP357     -0.2867
     58  CB        29.8590   22.2700   32.3240 C.3   357  TRP357      0.0550
     59  CG        29.4540   20.9770   32.9280 C.ar  357  TRP357      0.0003
     60  CD1       29.5000   19.7500   32.3320 C.ar  357  TRP357      0.0946
     61  CD2       28.9840   20.7610   34.2640 C.ar  357  TRP357      0.0152
     62  NE1       29.0770   18.7810   33.2110 N.ar  357  TRP357     -0.2442
     63  CE2       28.7450   19.3730   34.4020 C.ar  357  TRP357      0.0810
     64  CE3       28.7480   21.6020   35.3620 C.ar  357  TRP357      0.0012
     65  CZ2       28.2730   18.8050   35.5980 C.ar  357  TRP357      0.0191
     66  CZ3       28.2740   21.0410   36.5480 C.ar  357  TRP357      0.0001
     67  CH2       28.0430   19.6530   36.6560 C.ar  357  TRP357      0.0015
     68  N         29.5220   26.4360   36.8920 N.3   375  TRP375     -0.1241
     69  CA        30.3260   25.8800   37.9900 C.3   375  TRP375      0.1605
     70  C         31.5340   26.7500   38.3220 C.2   375  TRP375      0.2264
     71  O         31.9620   26.8160   39.4730 O.2   375  TRP375     -0.2867
     72  CB        30.7460   24.4290   37.7120 C.3   375  TRP375      0.0550
     73  CG        31.5700   24.2380   36.4620 C.ar  375  TRP375      0.0003
     74  CD1       31.1600   24.4290   35.1570 C.ar  375  TRP375      0.0946
     75  CD2       32.9320   23.7900   36.3900 C.ar  375  TRP375      0.0152
     76  NE1       32.1910   24.1430   34.2930 N.ar  375  TRP375     -0.2442
     77  CE2       33.2880   23.7490   35.0190 C.ar  375  TRP375      0.0810
     78  CE3       33.8840   23.4190   37.3500 C.ar  375  TRP375      0.0012
     79  CZ2       34.5640   23.3590   34.5840 C.ar  375  TRP375      0.0191
     80  CZ3       35.1560   23.0280   36.9200 C.ar  375  TRP375      0.0001
     81  CH2       35.4840   22.9990   35.5420 C.ar  375  TRP375      0.0015
     82  N         29.7180   22.2670   45.7220 N.3   400  TYR400     -0.1241
     83  CA        30.5420   21.1020   45.3870 C.3   400  TYR400      0.1605
     84  C         30.6780   20.2440   46.6310 C.2   400  TYR400      0.2264
     85  O         31.6530   20.3520   47.3850 O.2   400  TYR400     -0.2867
     86  CB        31.9150   21.5120   44.8030 C.3   400  TYR400      0.0534
     87  CG        31.8810   21.5260   43.2760 C.ar  400  TYR400     -0.0201
     88  CD1       30.9510   22.3220   42.5910 C.ar  400  TYR400     -0.0009
     89  CD2       32.7330   20.7050   42.5200 C.ar  400  TYR400     -0.0009
     90  CE1       30.8840   22.3230   41.1840 C.ar  400  TYR400      0.0417
     91  CE2       32.6870   20.7120   41.1100 C.ar  400  TYR400      0.0417
     92  CZ        31.7430   21.5070   40.4530 C.ar  400  TYR400      0.1957
     93  OH        31.6580   21.5070   39.0780 O.3   400  TYR400     -0.2866
     94  N         31.2540   17.2350   47.1230 N.3   402  ASP402     -0.1225
     95  CA        32.3800   16.2790   47.1750 C.3   402  ASP402      0.1805
     96  C         33.6350   16.8460   47.8540 C.2   402  ASP402      0.2597
     97  O         34.5820   16.0810   48.1450 O.2   402  ASP402     -0.2718
     98  CB        32.7380   15.7540   45.7820 C.3   402  ASP402      0.1424
     99  CG        33.2010   16.8630   44.8350 C.2   402  ASP402      0.3668
    100  OD1       32.5450   17.9360   44.8090 O.co2 402  ASP402     -0.2456
    101  OD2       34.2070   16.6440   44.1090 O.co2 402  ASP402     -0.2456
    102  N         33.6610   18.1590   48.1060 N.am  403  MET403     -0.1979
    103  CA        34.7910   18.7580   48.8320 C.3   403  MET403      0.1605
    104  C         34.7830   18.2810   50.2790 C.2   403  MET403      0.2287
    105  O         33.7200   18.1900   50.9170 O.2   403  MET403     -0.2864
    106  CB        34.7400   20.2920   48.8300 C.3   403  MET403      0.0413
    107  CG        34.9400   20.9880   47.4750 C.3   403  MET403      0.0598
    108  SD        36.4110   20.4270   46.5870 S.3   403  MET403     -0.1393
    109  CE        35.6980   19.4510   45.2660 C.3   403  MET403      0.0692
    110  N         37.4760   15.5530   47.8400 N.3   413  LEU413     -0.1245
    111  CA        38.5290   16.2940   47.1670 C.3   413  LEU413      0.1561
    112  C         38.6650   17.6640   47.8290 C.2   413  LEU413      0.2260
    113  O         37.9860   17.9510   48.8200 O.2   413  LEU413     -0.2867
    114  CB        38.2160   16.4170   45.6700 C.3   413  LEU413      0.0270
    115  CG        38.2710   15.1150   44.8630 C.3   413  LEU413      0.0019
    116  CD1       38.0550   15.4440   43.3890 C.3   413  LEU413      0.0001
    117  CD2       39.6000   14.3810   45.0520 C.3   413  LEU413      0.0001
    118  N         39.9940   20.6500   45.6760 N.3   415  TRP415     -0.1241
    119  CA        40.4630   21.6290   44.6880 C.3   415  TRP415      0.1605
    120  C         39.6950   22.9570   44.7280 C.2   415  TRP415      0.2264
    121  O         40.1970   23.9630   44.2150 O.2   415  TRP415     -0.2867
    122  CB        40.5190   21.0500   43.2710 C.3   415  TRP415      0.0550
    123  CG        39.1850   20.8460   42.6350 C.ar  415  TRP415      0.0003
    124  CD1       38.4020   19.7320   42.7140 C.ar  415  TRP415      0.0946
    125  CD2       38.4730   21.7840   41.8130 C.ar  415  TRP415      0.0152
    126  NE1       37.2420   19.9150   41.9860 N.ar  415  TRP415     -0.2442
    127  CE2       37.2630   21.1630   41.4240 C.ar  415  TRP415      0.0810
    128  CE3       38.7460   23.0830   41.3550 C.ar  415  TRP415      0.0012
    129  CZ2       36.3280   21.7950   40.6040 C.ar  415  TRP415      0.0191
    130  CZ3       37.8090   23.7160   40.5460 C.ar  415  TRP415      0.0001
    131  CH2       36.6110   23.0730   40.1830 C.ar  415  TRP415      0.0015
    132  N         30.3580   14.6410   42.9490 N.3   446  TRP446     -0.1241
    133  CA        31.3380   13.8790   42.1810 C.3   446  TRP446      0.1605
    134  C         31.8410   12.7080   43.0260 C.2   446  TRP446      0.2264
    135  O         31.8260   12.7910   44.2540 O.2   446  TRP446     -0.2867
    136  CB        32.4790   14.8060   41.7820 C.3   446  TRP446      0.0550
    137  CG        31.9730   15.9830   41.0030 C.ar  446  TRP446      0.0003
    138  CD1       31.7570   17.2550   41.4750 C.ar  446  TRP446      0.0946
    139  CD2       31.5800   15.9930   39.6200 C.ar  446  TRP446      0.0152
    140  NE1       31.2750   18.0540   40.4630 N.ar  446  TRP446     -0.2442
    141  CE2       31.1520   17.3050   39.3180 C.ar  446  TRP446      0.0810
    142  CE3       31.5540   15.0150   38.6080 C.ar  446  TRP446      0.0012
    143  CZ2       30.7010   17.6720   38.0380 C.ar  446  TRP446      0.0191
    144  CZ3       31.1110   15.3710   37.3380 C.ar  446  TRP446      0.0001
    145  CH2       30.6990   16.6950   37.0590 C.ar  446  TRP446      0.0015
    146  N         34.9000   10.5850   42.6900 N.3   448  GLU448     -0.1245
    147  CA        36.2890   10.0950   42.6320 C.3   448  GLU448      0.1567
    148  C         36.6870    9.3000   43.8720 C.2   448  GLU448      0.2260
    149  O         37.3870    8.2790   43.7660 O.2   448  GLU448     -0.2867
    150  CB        37.2860   11.2450   42.4550 C.3   448  GLU448      0.0388
    151  CG        37.4290   11.7620   41.0250 C.3   448  GLU448      0.1160
    152  CD        36.4440   12.8740   40.6740 C.2   448  GLU448      0.3649
    153  OE1       35.4290   13.0610   41.3910 O.co2 448  GLU448     -0.2457
    154  OE2       36.6980   13.5710   39.6680 O.co2 448  GLU448     -0.2457
@<TRIPOS>BOND
     1    20    21    1
     2    22    23    2
     3    22    21    1
     4    47    48    2
     5    47    46    1
     6    21    24    1
     7    37    38    1
     8    57    56    2
     9    40    39    2
    10    39    45   am
    11    39    38    1
    12    45    46    1
    13    46    49    1
    14    24    25    1
    15    15    14    2
    16    38    41    1
    17    54    55    1
    18    56    55    1
    19    14    13    1
    20    43    42   ar
    21    25    27   ar
    22    25    26   ar
    23    27    29   ar
    24    12    13    1
    25    55    58    1
    26    49    50    1
    27    13    16    1
    28    41    42    1
    29    58    59    1
    30    60    59   ar
    31    60    62   ar
    32    42    44   ar
    33    26    28   ar
    34    32    33    2
    35    32    31    1
    36    59    61   ar
    37    29    28   ar
    38    50    51    1
    39    62    63   ar
    40    18    17   ar
    41    16    17    1
    42    17    19   ar
    43    31    34    1
    44    31    30    1
    45    61    63   ar
    46    61    64   ar
    47    76    77   ar
    48    76    74   ar
    49    63    65   ar
    50    52    51   ar
    51    51    53   ar
    52    79    77   ar
    53    79    81   ar
    54    34    36    1
    55    34    35    1
    56    77    75   ar
    57    74    73   ar
    58    64    66   ar
    59    81    80   ar
    60    65    67   ar
    61    10     9    1
    62    75    73   ar
    63    75    78   ar
    64    73    72    1
    65    66    67   ar
    66     8     9    2
    67     8     7    1
    68     9    11    1
    69    68    69    1
    70    80    78   ar
    71   145   144   ar
    72   145   143   ar
    73     7     6    1
    74   144   142   ar
    75    72    69    1
    76    69    70    1
    77     1     2    1
    78   143   141   ar
    79    70    71    2
    80   142   139   ar
    81     6     5    1
    82     2     5    1
    83     2     3    1
    84    93    92    1
    85   141   139   ar
    86   141   140   ar
    87   139   137   ar
    88     3     4    2
    89   154   152   ar
    90   131   130   ar
    91   131   129   ar
    92    92    91   ar
    93    92    90   ar
    94   140   138   ar
    95   130   128   ar
    96   129   127   ar
    97   152   151    1
    98   152   153   ar
    99   137   138   ar
   100   137   136    1
   101   151   150    1
   102    91    89   ar
   103    90    88   ar
   104   128   125   ar
   105   127   125   ar
   106   127   126   ar
   107   136   133    1
   108   125   123   ar
   109   126   124   ar
   110   133   132    1
   111   133   134    1
   112   150   147    1
   113    89    87   ar
   114    88    87   ar
   115   147   146    1
   116   147   148    1
   117   123   124   ar
   118   123   122    1
   119   134   135    2
   120   122   119    1
   121    87    86    1
   122   116   115    1
   123   149   148    2
   124   101    99   ar
   125   121   120    2
   126   119   120    1
   127   119   118    1
   128    86    83    1
   129   100    99   ar
   130    99    98    1
   131   115   117    1
   132   115   114    1
   133   109   108    1
   134    83    82    1
   135    83    84    1
   136   114   111    1
   137    98    95    1
   138   108   107    1
   139    84    85    2
   140    94    95    1
   141   111   112    1
   142   111   110    1
   143    95    96    1
   144   107   106    1
   145   112   113    2
   146    96   102   am
   147    96    97    2
   148   102   103    1
   149   106   103    1
   150   103   104    1
   151   104   105    2
