@<TRIPOS>MOLECULE
tmp/3gh6A00.pdb
 146 143 0 0 0
SMALL
GASTEIGER

@<TRIPOS>ATOM
      1  N         15.3510    7.1560   33.5810 N.3     6  ARG6       -0.1245
      2  CA        15.9930    8.1160   32.6730 C.3     6  ARG6        0.1563
      3  C         17.4760    7.7930   32.6390 C.2     6  ARG6        0.2260
      4  O         18.0570    7.4660   33.6760 O.2     6  ARG6       -0.2867
      5  CB        15.7930    9.5630   33.1390 C.3     6  ARG6        0.0307
      6  CG        14.3750   10.0840   32.9890 C.3     6  ARG6        0.0489
      7  CD        14.2390   11.5670   33.3570 C.3     6  ARG6        0.2205
      8  NE        15.0220   12.4230   32.4630 N.pl3   6  ARG6       -0.0865
      9  CZ        14.7030   12.7010   31.1990 C.cat   6  ARG6        0.5346
     10  NH1       13.6030   12.2030   30.6390 N.pl3   6  ARG6        0.1354
     11  NH2       15.5000   13.4850   30.4790 N.pl3   6  ARG6        0.1354
     12  N         19.8380    9.7550   35.1390 N.3     9  SER9       -0.1202
     13  CA        19.5390    9.6770   36.5770 C.3     9  SER9        0.2020
     14  C         20.4410    8.6690   37.2920 C.2     9  SER9        0.2619
     15  O         20.4970    7.4870   36.9310 O.2     9  SER9       -0.2717
     16  CB        18.0500    9.3360   36.7810 C.3     9  SER9        0.2103
     17  OG        17.7860    8.8860   38.1010 O.3     9  SER9       -0.2182
     18  N         21.1450    9.1470   38.3200 N.am   10  ALA10      -0.1965
     19  CA        22.0540    8.2790   39.0700 C.3    10  ALA10       0.1713
     20  C         21.3680    7.0380   39.6600 C.2    10  ALA10       0.2458
     21  O         21.9010    5.9380   39.5260 O.2    10  ALA10      -0.2730
     22  CB        22.7910    9.0690   40.1440 C.3    10  ALA10       0.0333
     23  N         20.2010    7.2070   40.3180 N.am   11  PRO11      -0.2727
     24  CA        19.5820    5.9880   40.8690 C.3    11  PRO11       0.1402
     25  C         19.1390    5.0260   39.7560 C.2    11  PRO11       0.2269
     26  O         19.1640    3.8070   39.9400 O.2    11  PRO11      -0.2865
     27  CB        18.3850    6.5290   41.6680 C.3    11  PRO11       0.0296
     28  CG        18.1140    7.8730   41.1100 C.3    11  PRO11       0.0237
     29  CD        19.4870    8.4170   40.7710 C.3    11  PRO11       0.0939
     30  N          9.9590   13.5650   32.8300 N.3    34  THR34      -0.1218
     31  CA         9.5040   14.1820   34.0780 C.3    34  THR34       0.1862
     32  C          9.1480   15.6620   33.8930 C.2    34  THR34       0.2287
     33  O          8.2950   16.1920   34.6090 O.2    34  THR34      -0.2866
     34  CB        10.5170   13.9940   35.2260 C.3    34  THR34       0.1770
     35  OG1       11.8120   14.4250   34.7980 O.3    34  THR34      -0.2211
     36  CG2       10.5930   12.5280   35.6420 C.3    34  THR34       0.0375
     37  N          5.2320   11.0280   34.8950 N.3    39  GLN39      -0.1231
     38  CA         5.1430   10.2100   36.1060 C.3    39  GLN39       0.1698
     39  C          3.8440   10.4590   36.8840 C.2    39  GLN39       0.2592
     40  O          3.5140    9.7190   37.8100 O.2    39  GLN39      -0.2718
     41  CB         6.3740   10.4120   37.0070 C.3    39  GLN39       0.0381
     42  CG         6.3800   11.7130   37.8230 C.3    39  GLN39       0.0905
     43  CD         6.9930   12.8950   37.0850 C.2    39  GLN39       0.2608
     44  OE1        6.8420   13.0390   35.8710 O.2    39  GLN39      -0.2717
     45  NE2        7.6850   13.7510   37.8230 N.am   39  GLN39      -0.0878
     46  N          3.1120   11.4990   36.4910 N.am   40  PHE40      -0.1976
     47  CA         1.8570   11.8640   37.1440 C.3    40  PHE40       0.1639
     48  C          0.5930   11.3200   36.4600 C.2    40  PHE40       0.2290
     49  O         -0.5130   11.5450   36.9540 O.2    40  PHE40      -0.2864
     50  CB         1.7580   13.3850   37.2880 C.3    40  PHE40       0.0560
     51  CG         2.6380   13.9540   38.3600 C.ar   40  PHE40      -0.0200
     52  CD1        3.8960   14.4670   38.0520 C.ar   40  PHE40      -0.0042
     53  CD2        2.2060   13.9840   39.6860 C.ar   40  PHE40      -0.0042
     54  CE1        4.7080   15.0040   39.0400 C.ar   40  PHE40      -0.0003
     55  CE2        3.0120   14.5220   40.6850 C.ar   40  PHE40      -0.0003
     56  CZ         4.2660   15.0300   40.3650 C.ar   40  PHE40      -0.0000
     57  N          5.3420    8.1620   42.3420 N.3    51  HIS51      -0.1226
     58  CA         5.7320    8.7470   41.0440 C.3    51  HIS51       0.1752
     59  C          7.2300    9.0530   40.9170 C.2    51  HIS51       0.2597
     60  O          7.6290   10.1590   40.5310 O.2    51  HIS51      -0.2718
     61  CB         4.8440    9.9590   40.6520 C.3    51  HIS51       0.0759
     62  CG         4.8240   11.0770   41.6550 C.ar   51  HIS51       0.0818
     63  ND1        5.8490   11.9900   41.7750 N.ar   51  HIS51      -0.2268
     64  CD2        3.8920   11.4360   42.5710 C.ar   51  HIS51       0.1154
     65  CE1        5.5540   12.8610   42.7270 C.ar   51  HIS51       0.1986
     66  NE2        4.3730   12.5440   43.2280 N.ar   51  HIS51      -0.2212
     67  N          8.0580    8.0580   41.2250 N.am   52  THR52      -0.1939
     68  CA         9.5030    8.2060   41.0900 C.3    52  THR52       0.2028
     69  C         10.0700    7.2750   40.0300 C.2    52  THR52       0.2642
     70  O          9.4170    6.3140   39.6150 O.2    52  THR52      -0.2714
     71  CB        10.2530    7.9160   42.4050 C.3    52  THR52       0.1808
     72  OG1        9.8870    6.6130   42.8820 O.3    52  THR52      -0.2208
     73  CG2        9.9210    8.9770   43.4550 C.3    52  THR52       0.0379
     74  N         11.2790    7.5960   39.5960 N.am   53  ILE53      -0.1963
     75  CA        12.1200    6.6750   38.8310 C.3    53  ILE53       0.1712
     76  C         13.4310    6.4330   39.6030 C.2    53  ILE53       0.2458
     77  O         13.9290    7.3360   40.3020 O.2    53  ILE53      -0.2730
     78  CB        12.4290    7.2260   37.4200 C.3    53  ILE53       0.0289
     79  CG1       13.1010    8.5970   37.5270 C.3    53  ILE53       0.0022
     80  CG2       11.1410    7.2340   36.5600 C.3    53  ILE53       0.0023
     81  CD1       13.5640    9.1840   36.1910 C.3    53  ILE53       0.0001
     82  N         14.0110    5.2260   39.4940 N.am   54  PRO54      -0.2727
     83  CA        13.5530    4.0850   38.6900 C.3    54  PRO54       0.1402
     84  C         12.3680    3.3570   39.3150 C.2    54  PRO54       0.2269
     85  O         12.2400    3.3090   40.5400 O.2    54  PRO54      -0.2865
     86  CB        14.7770    3.1650   38.6700 C.3    54  PRO54       0.0296
     87  CG        15.4670    3.4400   39.9890 C.3    54  PRO54       0.0237
     88  CD        15.2900    4.9360   40.1770 C.3    54  PRO54       0.0939
     89  N         12.5770    2.6490   44.6270 N.3    65  GLU65      -0.1231
     90  CA        13.8470    2.8120   45.3700 C.3    65  GLU65       0.1699
     91  C         14.9560    1.9970   44.7350 C.2    65  GLU65       0.2593
     92  O         14.9650    0.7700   44.8150 O.2    65  GLU65      -0.2718
     93  CB        13.7160    2.5080   46.8810 C.3    65  GLU65       0.0402
     94  CG        12.9300    3.5550   47.6210 C.3    65  GLU65       0.1161
     95  CD        13.6860    4.8780   47.8150 C.2    65  GLU65       0.3649
     96  OE1       14.9020    4.9380   47.5580 O.co2  65  GLU65      -0.2457
     97  OE2       13.0370    5.8470   48.2550 O.co2  65  GLU65      -0.2457
     98  N         15.8730    2.6960   44.0760 N.am   66  SER66      -0.1938
     99  CA        16.9520    2.0630   43.3370 C.3    66  SER66       0.2055
    100  C         17.6580    0.9480   44.1100 C.2    66  SER66       0.2642
    101  O         17.9430   -0.1100   43.5540 O.2    66  SER66      -0.2714
    102  CB        17.9690    3.1160   42.8910 C.3    66  SER66       0.2130
    103  OG        18.5130    3.7800   44.0200 O.3    66  SER66      -0.2179
    104  N         17.9610    1.1800   45.3840 N.am   67  ARG67      -0.1977
    105  CA        18.7970    0.2480   46.1180 C.3    67  ARG67       0.1597
    106  C         17.9770   -0.9780   46.5530 C.2    67  ARG67       0.2287
    107  O         18.5400   -2.0680   46.6990 O.2    67  ARG67      -0.2864
    108  CB        19.4910    0.9690   47.2840 C.3    67  ARG67       0.0334
    109  CG        20.3840    2.1160   46.7650 C.3    67  ARG67       0.0492
    110  CD        20.7760    3.0910   47.8740 C.3    67  ARG67       0.2205
    111  NE        21.3970    4.3030   47.3230 N.pl3  67  ARG67      -0.0865
    112  CZ        20.7190    5.3470   46.8440 C.cat  67  ARG67       0.5346
    113  NH1       19.3890    5.3550   46.8450 N.pl3  67  ARG67       0.1354
    114  NH2       21.3810    6.4070   46.3910 N.pl3  67  ARG67       0.1354
    115  N         22.7560    6.6570   49.9160 N.3   102  MET102     -0.1245
    116  CA        21.5280    7.4420   49.7970 C.3   102  MET102      0.1570
    117  C         21.5090    8.6820   50.6960 C.2   102  MET102      0.2261
    118  O         21.2470    9.7980   50.2340 O.2   102  MET102     -0.2867
    119  CB        20.3030    6.6000   50.1260 C.3   102  MET102      0.0387
    120  CG        19.0440    7.3040   49.6300 C.3   102  MET102      0.0595
    121  SD        17.5800    6.2970   49.8120 S.3   102  MET102     -0.1393
    122  CE        17.2620    6.7270   51.4280 C.3   102  MET102      0.0692
    123  N         25.0210   10.6150   48.0750 N.3   106  TYR106     -0.1241
    124  CA        24.1740   11.1880   47.0260 C.3   106  TYR106      0.1605
    125  C         23.3130   12.3410   47.5450 C.2   106  TYR106      0.2264
    126  O         23.0630   13.2870   46.8110 O.2   106  TYR106     -0.2867
    127  CB        23.3090   10.1530   46.2790 C.3   106  TYR106      0.0534
    128  CG        22.7480   10.7850   45.0190 C.ar  106  TYR106     -0.0201
    129  CD1       23.5610   10.9650   43.9020 C.ar  106  TYR106     -0.0009
    130  CD2       21.4420   11.2680   44.9710 C.ar  106  TYR106     -0.0009
    131  CE1       23.0900   11.5830   42.7540 C.ar  106  TYR106      0.0417
    132  CE2       20.9600   11.8950   43.8090 C.ar  106  TYR106      0.0417
    133  CZ        21.7980   12.0380   42.7130 C.ar  106  TYR106      0.1957
    134  OH        21.3680   12.6560   41.5500 O.3   106  TYR106     -0.2866
    135  N         21.2290   20.4210   42.8800 N.3   114  TYR114     -0.1241
    136  CA        19.8490   20.5840   42.3870 C.3   114  TYR114      0.1605
    137  C         19.3510   22.0400   42.4720 C.2   114  TYR114      0.2264
    138  O         18.7740   22.5450   41.4930 O.2   114  TYR114     -0.2867
    139  CB        18.8850   19.6130   43.0800 C.3   114  TYR114      0.0534
    140  CG        18.9700   18.1550   42.6390 C.ar  114  TYR114     -0.0201
    141  CD1       20.0730   17.6530   41.9280 C.ar  114  TYR114     -0.0009
    142  CD2       17.9480   17.2650   42.9750 C.ar  114  TYR114     -0.0009
    143  CE1       20.1390   16.3010   41.5470 C.ar  114  TYR114      0.0417
    144  CE2       18.0040   15.9230   42.6010 C.ar  114  TYR114      0.0417
    145  CZ        19.0910   15.4480   41.8960 C.ar  114  TYR114      0.1957
    146  OH        19.1120   14.1170   41.5470 O.3   114  TYR114     -0.2866
@<TRIPOS>BOND
     1    11     9    1
     2    10     9    1
     3     9     8    2
     4     8     7    1
     5     3     2    1
     6     3     4    2
     7     2     5    1
     8     2     1    1
     9    30    31    1
    10     6     5    1
    11     6     7    1
    12    32    31    1
    13    32    33    2
    14    31    34    1
    15    35    34    1
    16    37    38    1
    17    12    13    1
    18    34    36    1
    19    44    43    2
    20    38    39    1
    21    38    41    1
    22    81    79    1
    23    48    49    2
    24    48    47    1
    25    46    39   am
    26    46    47    1
    27    80    78    1
    28    13    16    1
    29    13    14    1
    30    16    17    1
    31    39    40    2
    32    15    14    2
    33    41    42    1
    34    43    42    1
    35    43    45   am
    36    47    50    1
    37    50    51    1
    38    14    18   am
    39    78    79    1
    40    78    75    1
    41    52    51   ar
    42    52    54   ar
    43    18    19    1
    44    51    53   ar
    45    86    83    1
    46    86    87    1
    47    83    84    1
    48    83    82    1
    49    75    74    1
    50    75    76    1
    51    54    56   ar
    52    19    20    1
    53    19    22    1
    54    84    85    2
    55    82    76   am
    56    82    88    1
    57    21    20    2
    58    74    69   am
    59    76    77    2
    60    70    69    2
    61    20    23   am
    62    53    55   ar
    63    25    26    2
    64    25    24    1
    65    87    88    1
    66    69    68    1
    67    23    29    1
    68    23    24    1
    69    56    55   ar
    70    60    59    2
    71    61    58    1
    72    61    62    1
    73    29    28    1
    74    24    27    1
    75    59    58    1
    76    59    67   am
    77    58    57    1
    78    68    67    1
    79    68    71    1
    80    28    27    1
    81   138   137    2
    82   143   145   ar
    83   143   141   ar
    84   146   145    1
    85   134   133    1
    86    62    63   ar
    87    62    64   ar
    88    63    65   ar
    89   145   144   ar
    90   141   140   ar
    91   136   137    1
    92   136   135    1
    93   136   139    1
    94    71    72    1
    95    71    73    1
    96    64    66   ar
    97   144   142   ar
    98   140   142   ar
    99   140   139    1
   100   133   131   ar
   101   133   132   ar
   102    65    66   ar
   103   131   129   ar
   104   102    99    1
   105   102   103    1
   106    99    98    1
   107    99   100    1
   108   101   100    2
   109   132   130   ar
   110   129   128   ar
   111    98    91   am
   112   100   104   am
   113    89    90    1
   114    91    92    2
   115    91    90    1
   116   130   128   ar
   117   128   127    1
   118    90    93    1
   119   104   105    1
   120   105   106    1
   121   105   108    1
   122   127   124    1
   123   114   112    1
   124   106   107    2
   125   109   108    1
   126   109   110    1
   127   126   125    2
   128   112   113    1
   129   112   111    2
   130    93    94    1
   131   124   125    1
   132   124   123    1
   133   111   110    1
   134    96    95   ar
   135    94    95    1
   136    95    97   ar
   137   120   121    1
   138   120   119    1
   139   116   115    1
   140   116   119    1
   141   116   117    1
   142   121   122    1
   143   118   117    2
