@<TRIPOS>MOLECULE
tmp/3ghbB00.pdb
 140 139 0 0 0
SMALL
GASTEIGER

@<TRIPOS>ATOM
      1  N        -39.1440   77.6670  119.8520 N.3    33  TRP33      -0.1241
      2  CA       -38.0410   76.9900  119.1910 C.3    33  TRP33       0.1605
      3  C        -38.7070   75.8620  118.4010 C.2    33  TRP33       0.2264
      4  O        -39.7230   75.3160  118.8440 O.2    33  TRP33      -0.2867
      5  CB       -37.1090   76.3610  120.2250 C.3    33  TRP33       0.0550
      6  CG       -36.2250   77.3050  120.9620 C.ar   33  TRP33       0.0003
      7  CD1      -36.4150   78.6450  121.1470 C.ar   33  TRP33       0.0946
      8  CD2      -35.0050   76.9730  121.6370 C.ar   33  TRP33       0.0152
      9  NE1      -35.3860   79.1670  121.8930 N.ar   33  TRP33      -0.2442
     10  CE2      -34.5070   78.1630  122.2070 C.ar   33  TRP33       0.0810
     11  CE3      -34.2860   75.7810  121.8170 C.ar   33  TRP33       0.0012
     12  CZ2      -33.3180   78.2000  122.9430 C.ar   33  TRP33       0.0191
     13  CZ3      -33.1060   75.8150  122.5510 C.ar   33  TRP33       0.0001
     14  CH2      -32.6330   77.0200  123.1050 C.ar   33  TRP33       0.0015
     15  N        -32.5450   71.9570  115.0500 N.3    50  ARG50      -0.1245
     16  CA       -33.4360   72.9460  115.6390 C.3    50  ARG50       0.1563
     17  C        -33.0760   74.3330  115.1530 C.2    50  ARG50       0.2260
     18  O        -32.0170   74.5430  114.5670 O.2    50  ARG50      -0.2867
     19  CB       -33.3070   72.9660  117.1660 C.3    50  ARG50       0.0307
     20  CG       -31.9830   73.5740  117.6700 C.3    50  ARG50       0.0489
     21  CD       -32.0450   73.9060  119.1540 C.3    50  ARG50       0.2205
     22  NE       -32.4350   72.7370  119.9320 N.pl3  50  ARG50      -0.0865
     23  CZ       -31.6140   71.7450  120.2600 C.cat  50  ARG50       0.5346
     24  NH1      -30.3400   71.7830  119.8900 N.pl3  50  ARG50       0.1354
     25  NH2      -32.0780   70.6990  120.9330 N.pl3  50  ARG50       0.1354
     26  N        -33.6340   78.2520  116.9270 N.3    52  LYS52      -0.1245
     27  CA       -34.1240   78.9950  118.0720 C.3    52  LYS52       0.1561
     28  C        -34.9830   80.1750  117.6450 C.2    52  LYS52       0.2260
     29  O        -34.9960   80.5620  116.4780 O.2    52  LYS52      -0.2867
     30  CB       -32.9400   79.4800  118.9110 C.3    52  LYS52       0.0271
     31  CG       -32.1010   78.3430  119.4660 C.3    52  LYS52       0.0035
     32  CD       -30.8700   78.8420  120.1860 C.3    52  LYS52       0.0206
     33  CE       -30.0630   77.6830  120.7380 C.3    52  LYS52       0.1093
     34  NZ       -28.8240   78.1510  121.4230 N.3    52  LYS52      -0.1314
     35  N        -33.9250   84.4050  121.1070 N.3    56  ASP56      -0.1239
     36  CA       -32.8030   83.6530  121.6570 C.3    56  ASP56       0.1674
     37  C        -31.6540   83.5590  120.6530 C.2    56  ASP56       0.2266
     38  O        -30.7410   82.7430  120.8100 O.2    56  ASP56      -0.2867
     39  CB       -33.2380   82.2490  122.0820 C.3    56  ASP56       0.1410
     40  CG       -34.1700   82.2620  123.2800 C.2    56  ASP56       0.3668
     41  OD1      -33.9390   83.0720  124.2030 O.co2  56  ASP56      -0.2456
     42  OD2      -35.1240   81.4530  123.3090 O.co2  56  ASP56      -0.2456
     43  N        -28.8870   74.3400  115.1280 N.3    61  ASP61      -0.1239
     44  CA       -28.0670   73.2200  115.5900 C.3    61  ASP61       0.1674
     45  C        -28.4680   72.0590  114.6750 C.2    61  ASP61       0.2266
     46  O        -29.6440   71.9250  114.3230 O.2    61  ASP61      -0.2867
     47  CB       -28.3800   72.8450  117.0480 C.3    61  ASP61       0.1410
     48  CG       -27.9530   73.9140  118.0480 C.2    61  ASP61       0.3668
     49  OD1      -26.8350   74.4540  117.9160 O.co2  61  ASP61      -0.2456
     50  OD2      -28.7280   74.1990  118.9850 O.co2  61  ASP61      -0.2456
     51  N        -40.7890   73.2640  120.7440 N.3   101  ASP101     -0.1239
     52  CA       -40.2840   72.9740  122.0720 C.3   101  ASP101      0.1674
     53  C        -41.2750   73.7410  122.9320 C.2   101  ASP101      0.2266
     54  O        -41.4770   74.9390  122.7430 O.2   101  ASP101     -0.2867
     55  CB       -38.8810   73.5450  122.2990 C.3   101  ASP101      0.1410
     56  CG       -37.7770   72.5850  121.8890 C.2   101  ASP101      0.3668
     57  OD1      -38.0730   71.4490  121.4680 O.co2 101  ASP101     -0.2456
     58  OD2      -36.5970   72.9760  121.9970 O.co2 101  ASP101     -0.2456
     59  N        -43.0800   73.8710  127.1250 N.3   103  PHE103     -0.1241
     60  CA       -42.5930   73.7340  128.4810 C.3   103  PHE103      0.1605
     61  C        -43.6850   73.6360  129.5270 C.2   103  PHE103      0.2264
     62  O        -44.8330   73.9980  129.2830 O.2   103  PHE103     -0.2867
     63  CB       -41.6670   74.9070  128.8190 C.3   103  PHE103      0.0534
     64  CG       -42.3580   76.2480  128.8510 C.ar  103  PHE103     -0.0203
     65  CD1      -43.1970   76.5940  129.9070 C.ar  103  PHE103     -0.0042
     66  CD2      -42.1600   77.1690  127.8310 C.ar  103  PHE103     -0.0042
     67  CE1      -43.8250   77.8320  129.9470 C.ar  103  PHE103     -0.0003
     68  CE2      -42.7860   78.4140  127.8630 C.ar  103  PHE103     -0.0003
     69  CZ       -43.6210   78.7440  128.9260 C.ar  103  PHE103     -0.0000
     70  N        -38.9020   80.3500  145.0730 N.3   110  SER110     -0.1202
     71  CA       -37.9410   81.3890  144.7270 C.3   110  SER110      0.2020
     72  C        -37.9030   81.6650  143.2230 C.2   110  SER110      0.2619
     73  O        -38.2500   82.7590  142.7750 O.2   110  SER110     -0.2717
     74  CB       -36.5500   80.9810  145.2210 C.3   110  SER110      0.2103
     75  OG       -35.5890   81.9790  144.9320 O.3   110  SER110     -0.2182
     76  N        -37.4820   80.6670  142.4490 N.am  111  GLU111     -0.1965
     77  CA       -37.3870   80.7970  140.9970 C.3   111  GLU111      0.1733
     78  C        -38.4130   79.9490  140.2530 C.2   111  GLU111      0.2616
     79  O        -38.9000   78.9490  140.7770 O.2   111  GLU111     -0.2715
     80  CB       -35.9820   80.4020  140.5240 C.3   111  GLU111      0.0429
     81  CG       -34.9610   81.5250  140.5580 C.3   111  GLU111      0.1163
     82  CD       -35.1990   82.5570  139.4690 C.2   111  GLU111      0.3649
     83  OE1      -36.3190   83.1080  139.4000 O.co2 111  GLU111     -0.2457
     84  OE2      -34.2660   82.8200  138.6800 O.co2 111  GLU111     -0.2457
     85  N        -38.7410   80.3620  139.0300 N.am  112  ASP112     -0.1957
     86  CA       -39.6810   79.6200  138.1980 C.3   112  ASP112      0.1840
     87  C        -38.8780   78.6490  137.3390 C.2   112  ASP112      0.2622
     88  O        -37.9500   79.0530  136.6410 O.2   112  ASP112     -0.2715
     89  CB       -40.4710   80.5540  137.2760 C.3   112  ASP112      0.1450
     90  CG       -41.3510   81.5250  138.0340 C.2   112  ASP112      0.3671
     91  OD1      -41.8980   81.1440  139.0930 O.co2 112  ASP112     -0.2456
     92  OD2      -41.5080   82.6660  137.5520 O.co2 112  ASP112     -0.2456
     93  N        -39.2330   77.3710  137.3930 N.am  113  TYR113     -0.1960
     94  CA       -38.5330   76.3620  136.6110 C.3   113  TYR113      0.1771
     95  C        -39.3100   75.9850  135.3570 C.2   113  TYR113      0.2620
     96  O        -40.5030   75.6790  135.4180 O.2   113  TYR113     -0.2715
     97  CB       -38.2850   75.1150  137.4590 C.3   113  TYR113      0.0574
     98  CG       -37.2890   75.3310  138.5720 C.ar  113  TYR113     -0.0198
     99  CD1      -37.4940   76.3160  139.5380 C.ar  113  TYR113     -0.0009
    100  CD2      -36.1380   74.5490  138.6610 C.ar  113  TYR113     -0.0009
    101  CE1      -36.5740   76.5190  140.5690 C.ar  113  TYR113      0.0417
    102  CE2      -35.2130   74.7400  139.6850 C.ar  113  TYR113      0.0417
    103  CZ       -35.4360   75.7260  140.6360 C.ar  113  TYR113      0.1957
    104  OH       -34.5250   75.9150  141.6530 O.3   113  TYR113     -0.2866
    105  N        -38.6260   76.0150  134.2170 N.am  114  TYR114     -0.1960
    106  CA       -39.2470   75.6690  132.9480 C.3   114  TYR114      0.1771
    107  C        -38.6600   74.3720  132.4060 C.2   114  TYR114      0.2620
    108  O        -37.4640   74.2990  132.1050 O.2   114  TYR114     -0.2715
    109  CB       -39.0300   76.7750  131.9150 C.3   114  TYR114      0.0574
    110  CG       -39.6160   78.1170  132.2840 C.ar  114  TYR114     -0.0198
    111  CD1      -39.0340   78.9120  133.2700 C.ar  114  TYR114     -0.0009
    112  CD2      -40.7500   78.5980  131.6350 C.ar  114  TYR114     -0.0009
    113  CE1      -39.5680   80.1560  133.5980 C.ar  114  TYR114      0.0417
    114  CE2      -41.2940   79.8380  131.9530 C.ar  114  TYR114      0.0417
    115  CZ       -40.7000   80.6130  132.9350 C.ar  114  TYR114      0.1957
    116  OH       -41.2410   81.8430  133.2430 O.3   114  TYR114     -0.2866
    117  N        -39.5000   73.3470  132.2960 N.am  115  TYR115     -0.1960
    118  CA       -39.0650   72.0670  131.7630 C.3   115  TYR115      0.1771
    119  C        -39.5310   72.0120  130.3200 C.2   115  TYR115      0.2619
    120  O        -40.7360   72.0180  130.0440 O.2   115  TYR115     -0.2715
    121  CB       -39.6840   70.9050  132.5390 C.3   115  TYR115      0.0574
    122  CG       -39.2560   70.8170  133.9790 C.ar  115  TYR115     -0.0198
    123  CD1      -39.8900   71.5720  134.9650 C.ar  115  TYR115     -0.0009
    124  CD2      -38.2320   69.9590  134.3630 C.ar  115  TYR115     -0.0009
    125  CE1      -39.5170   71.4650  136.3050 C.ar  115  TYR115      0.0417
    126  CE2      -37.8470   69.8480  135.6920 C.ar  115  TYR115      0.0417
    127  CZ       -38.4960   70.6010  136.6560 C.ar  115  TYR115      0.1957
    128  OH       -38.1220   70.4750  137.9660 O.3   115  TYR115     -0.2866
    129  N        -38.5860   71.9540  129.3930 N.am  116  TYR116     -0.1974
    130  CA       -38.9490   71.9180  127.9890 C.3   116  TYR116      0.1639
    131  C        -39.1280   70.5030  127.4730 C.2   116  TYR116      0.2290
    132  O        -38.6370   69.5500  128.0740 O.2   116  TYR116     -0.2864
    133  CB       -37.9010   72.6760  127.1650 C.3   116  TYR116      0.0560
    134  CG       -37.8540   74.1490  127.5090 C.ar  116  TYR116     -0.0198
    135  CD1      -37.1330   74.6090  128.6150 C.ar  116  TYR116     -0.0009
    136  CD2      -38.5780   75.0790  126.7630 C.ar  116  TYR116     -0.0009
    137  CE1      -37.1370   75.9580  128.9670 C.ar  116  TYR116      0.0417
    138  CE2      -38.5920   76.4270  127.1070 C.ar  116  TYR116      0.0417
    139  CZ       -37.8710   76.8610  128.2090 C.ar  116  TYR116      0.1957
    140  OH       -37.8920   78.1980  128.5510 O.3   116  TYR116     -0.2866
@<TRIPOS>BOND
     1    46    45    2
     2    18    17    2
     3    45    44    1
     4    15    16    1
     5    43    44    1
     6    17    16    1
     7    44    47    1
     8    16    19    1
     9    29    28    2
    10    26    27    1
    11    47    48    1
    12    19    20    1
    13    28    27    1
    14    20    21    1
    15    49    48   ar
    16    48    50   ar
    17    27    30    1
    18     3     4    2
    19     3     2    1
    20    30    31    1
    21    21    22    1
    22     2     1    1
    23     2     5    1
    24    31    32    1
    25    24    23    1
    26    22    23    2
    27    32    33    1
    28     5     6    1
    29    23    25    1
    30    37    38    2
    31    37    36    1
    32    33    34    1
    33    51    52    1
    34     6     7   ar
    35     6     8   ar
    36    35    36    1
    37     7     9   ar
    38    57    56   ar
    39     8    11   ar
    40     8    10   ar
    41    36    39    1
    42    11    13   ar
    43    56    58   ar
    44    56    55    1
    45     9    10   ar
    46    52    55    1
    47    52    53    1
    48    39    40    1
    49    10    12   ar
    50    13    14   ar
    51    54    53    2
    52    12    14   ar
    53    40    42   ar
    54    40    41   ar
    55   136   138   ar
    56   136   134   ar
    57   138   139   ar
    58    59    60    1
    59   133   134    1
    60   133   130    1
    61   131   130    1
    62   131   132    2
    63   134   135   ar
    64    66    68   ar
    65    66    64   ar
    66    68    69   ar
    67   130   129    1
    68   139   140    1
    69   139   137   ar
    70    60    63    1
    71    60    61    1
    72   135   137   ar
    73    63    64    1
    74    64    65   ar
    75    69    67   ar
    76    62    61    2
    77   129   119   am
    78    65    67   ar
    79   120   119    2
    80   119   118    1
    81   112   114   ar
    82   112   110   ar
    83   118   117    1
    84   118   121    1
    85   109   110    1
    86   109   106    1
    87   114   115   ar
    88   108   107    2
    89   110   111   ar
    90   117   107   am
    91   107   106    1
    92   121   122    1
    93   115   116    1
    94   115   113   ar
    95   106   105    1
    96   111   113   ar
    97   122   124   ar
    98   122   123   ar
    99   105    95   am
   100   124   126   ar
   101   123   125   ar
   102    95    96    2
   103    95    94    1
   104   126   127   ar
   105   125   127   ar
   106    94    93    1
   107    94    97    1
   108    88    87    2
   109   127   128    1
   110    89    90    1
   111    89    86    1
   112    87    93   am
   113    87    86    1
   114    97    98    1
   115    92    90   ar
   116    90    91   ar
   117    86    85    1
   118    98   100   ar
   119    98    99   ar
   120   100   102   ar
   121    84    82   ar
   122    85    78   am
   123    83    82   ar
   124    82    81    1
   125    99   101   ar
   126   102   103   ar
   127    78    79    2
   128    78    77    1
   129    80    81    1
   130    80    77    1
   131   101   103   ar
   132   103   104    1
   133    77    76    1
   134    76    72   am
   135    73    72    2
   136    72    71    1
   137    71    70    1
   138    71    74    1
   139    75    74    1
