@<TRIPOS>MOLECULE
tmp/3ghfA00.pdb
 93 88 0 0 0
SMALL
GASTEIGER

@<TRIPOS>ATOM
      1  N         58.6880   20.0400  -27.2860 N.3    18  GLU18      -0.1231
      2  CA        58.8270   21.4840  -27.3660 C.3    18  GLU18       0.1699
      3  C         58.5150   21.9570  -28.8020 C.2    18  GLU18       0.2592
      4  O         59.1490   21.5030  -29.7520 O.2    18  GLU18      -0.2718
      5  CB        60.2470   21.8940  -26.9300 C.3    18  GLU18       0.0402
      6  CG        60.4960   23.3610  -26.8620 C.3    18  GLU18       0.1161
      7  CD        59.8210   24.0420  -25.7160 C.2    18  GLU18       0.3649
      8  OE1       59.1990   23.3570  -24.8590 O.co2  18  GLU18      -0.2457
      9  OE2       59.9220   25.2860  -25.6560 O.co2  18  GLU18      -0.2457
     10  N         57.5030   22.8160  -28.9330 N.am   19  ALA19      -0.1980
     11  CA        57.0670   23.3840  -30.2200 C.3    19  ALA19       0.1597
     12  C         56.2030   24.6160  -29.9970 C.2    19  ALA19       0.2287
     13  O         55.6850   24.8340  -28.8860 O.2    19  ALA19      -0.2864
     14  CB        56.3480   22.3550  -31.1100 C.3    19  ALA19       0.0319
     15  N         53.0860   27.0360  -29.8740 N.3    21  PRO21      -0.2116
     16  CA        51.6740   26.8170  -29.5570 C.3    21  PRO21       0.1372
     17  C         50.8040   26.4290  -30.7970 C.2    21  PRO21       0.2244
     18  O         50.0370   25.4300  -30.7510 O.2    21  PRO21      -0.2868
     19  CB        51.2330   28.1720  -28.9770 C.3    21  PRO21       0.0268
     20  CG        52.4520   28.8180  -28.5020 C.3    21  PRO21       0.0207
     21  CD        53.6280   28.2500  -29.2290 C.3    21  PRO21       0.0892
     22  N         51.7000   22.8970  -32.0600 N.3    24  ILE24      -0.1245
     23  CA        51.1010   21.9020  -31.1340 C.3    24  ILE24       0.1561
     24  C         49.6080   21.6990  -31.4800 C.2    24  ILE24       0.2260
     25  O         49.1600   20.5700  -31.6600 O.2    24  ILE24      -0.2867
     26  CB        51.3040   22.2830  -29.6030 C.3    24  ILE24       0.0252
     27  CG1       52.7880   22.1490  -29.1790 C.3    24  ILE24       0.0019
     28  CG2       50.4130   21.3930  -28.6890 C.3    24  ILE24       0.0019
     29  CD1       53.1140   22.7690  -27.8160 C.3    24  ILE24       0.0001
     30  N         59.0990   19.0320  -22.6860 N.3    51  LEU51      -0.1231
     31  CA        58.9920   20.4760  -22.8040 C.3    51  LEU51       0.1693
     32  C         60.1190   21.1310  -22.0420 C.2    51  LEU51       0.2591
     33  O         60.6600   20.5610  -21.1090 O.2    51  LEU51      -0.2718
     34  CB        57.6330   21.0040  -22.3170 C.3    51  LEU51       0.0284
     35  CG        56.3170   20.4790  -22.9430 C.3    51  LEU51       0.0019
     36  CD1       55.1170   21.2000  -22.3360 C.3    51  LEU51       0.0001
     37  CD2       56.2950   20.6250  -24.4380 C.3    51  LEU51       0.0001
     38  N         60.4610   22.3350  -22.4670 N.am   52  GLU52      -0.1979
     39  CA        61.5560   23.1200  -21.8950 C.3    52  GLU52       0.1602
     40  C         60.9830   24.2680  -21.0740 C.2    52  GLU52       0.2287
     41  O         60.0280   24.9450  -21.5110 O.2    52  GLU52      -0.2864
     42  CB        62.4670   23.6880  -23.0140 C.3    52  GLU52       0.0415
     43  CG        63.0450   22.6420  -24.0150 C.3    52  GLU52       0.1163
     44  CD        64.1670   21.7730  -23.4440 C.2    52  GLU52       0.3649
     45  OE1       64.6650   22.0690  -22.3430 O.co2  52  GLU52      -0.2457
     46  OE2       64.5540   20.7740  -24.0830 O.co2  52  GLU52      -0.2457
     47  N         60.8400   27.9890  -19.4570 N.3    54  PRO54      -0.2102
     48  CA        59.5170   28.0420  -18.7640 C.3    54  PRO54       0.1504
     49  C         58.3260   27.6370  -19.6420 C.2    54  PRO54       0.2576
     50  O         58.2230   28.0750  -20.7920 O.2    54  PRO54      -0.2718
     51  CB        59.3790   29.5240  -18.3790 C.3    54  PRO54       0.0282
     52  CG        60.0990   30.2650  -19.5280 C.3    54  PRO54       0.0208
     53  CD        61.1950   29.2890  -20.0700 C.3    54  PRO54       0.0893
     54  N         57.4240   26.8250  -19.0970 N.am   55  VAL55      -0.1966
     55  CA        56.1680   26.4780  -19.7920 C.3    55  VAL55       0.1727
     56  C         55.0240   27.4610  -19.4700 C.2    55  VAL55       0.2616
     57  O         54.8070   27.8000  -18.3150 O.2    55  VAL55      -0.2715
     58  CB        55.7880   25.0140  -19.5540 C.3    55  VAL55       0.0290
     59  CG1       54.3970   24.7010  -20.1080 C.3    55  VAL55       0.0023
     60  CG2       56.8080   24.1260  -20.2270 C.3    55  VAL55       0.0023
     61  N         54.3420   27.9590  -20.5090 N.am   56  ASN56      -0.1972
     62  CA        53.1410   28.7860  -20.3590 C.3    56  ASN56       0.1688
     63  C         51.9170   27.8520  -20.2760 C.2    56  ASN56       0.2292
     64  O         51.2790   27.5160  -21.2780 O.2    56  ASN56      -0.2864
     65  CB        53.0200   29.8250  -21.4920 C.3    56  ASN56       0.1181
     66  CG        51.7090   30.6470  -21.4270 C.2    56  ASN56       0.2629
     67  OD1       50.8330   30.3960  -20.6070 O.2    56  ASN56      -0.2716
     68  ND2       51.5840   31.6220  -22.3090 N.am   56  ASN56      -0.0877
     69  N         48.1180   28.8230  -21.3000 N.3    59  GLU59      -0.1231
     70  CA        47.9940   28.7920  -22.7670 C.3    59  GLU59       0.1699
     71  C         47.9570   27.3700  -23.3320 C.2    59  GLU59       0.2592
     72  O         47.0950   27.0580  -24.1690 O.2    59  GLU59      -0.2718
     73  CB        49.0680   29.6440  -23.4650 C.3    59  GLU59       0.0402
     74  CG        48.8270   29.8550  -24.9840 C.3    59  GLU59       0.1161
     75  CD        49.9220   30.7280  -25.6770 C.2    59  GLU59       0.3649
     76  OE1       51.1330   30.4390  -25.5570 O.co2  59  GLU59      -0.2457
     77  OE2       49.5680   31.7160  -26.3550 O.co2  59  GLU59      -0.2457
     78  N         48.8700   26.5130  -22.8720 N.am   60  LEU60      -0.1980
     79  CA        48.9480   25.1430  -23.3580 C.3    60  LEU60       0.1596
     80  C         47.6820   24.3550  -22.9760 C.2    60  LEU60       0.2287
     81  O         47.1690   23.5540  -23.7630 O.2    60  LEU60      -0.2864
     82  CB        50.2150   24.4530  -22.8180 C.3    60  LEU60       0.0297
     83  CG        50.5120   22.9900  -23.0840 C.3    60  LEU60       0.0022
     84  CD1       50.6010   22.6780  -24.5730 C.3    60  LEU60       0.0001
     85  CD2       51.7890   22.6220  -22.3990 C.3    60  LEU60       0.0001
     86  N         44.8680   25.2610  -25.2860 N.3    63  ILE63      -0.1245
     87  CA        45.1070   24.6250  -26.6040 C.3    63  ILE63       0.1561
     88  C         44.7460   23.1400  -26.6350 C.2    63  ILE63       0.2260
     89  O         44.0830   22.7050  -27.5530 O.2    63  ILE63      -0.2867
     90  CB        46.5790   24.8660  -27.1500 C.3    63  ILE63       0.0252
     91  CG1       46.6880   26.2950  -27.7050 C.3    63  ILE63       0.0019
     92  CG2       46.9480   23.8000  -28.1690 C.3    63  ILE63       0.0019
     93  CD1       48.0780   26.8440  -27.8370 C.3    63  ILE63       0.0001
@<TRIPOS>BOND
     1    22    23    1
     2    25    24    2
     3    24    23    1
     4    23    26    1
     5    14    11    1
     6    17    18    2
     7    17    16    1
     8    11    12    1
     9    11    10    1
    10    12    13    2
    11    15    16    1
    12    15    21    1
    13     4     3    2
    14    26    27    1
    15    26    28    1
    16    16    19    1
    17    21    20    1
    18    27    29    1
    19    19    20    1
    20    10     3   am
    21     3     2    1
    22    92    90    1
    23    93    91    1
    24    91    90    1
    25    89    88    2
    26     2     1    1
    27     2     5    1
    28    90    87    1
    29     5     6    1
    30     6     7    1
    31    88    87    1
    32    87    86    1
    33    77    75   ar
    34     7     9   ar
    35     7     8   ar
    36    75    76   ar
    37    75    74    1
    38    74    73    1
    39    84    83    1
    40    37    35    1
    41    72    71    2
    42    46    44   ar
    43    43    44    1
    44    43    42    1
    45    81    80    2
    46    73    70    1
    47    44    45   ar
    48    79    80    1
    49    79    78    1
    50    79    82    1
    51    71    78   am
    52    71    70    1
    53    83    82    1
    54    83    85    1
    55    42    39    1
    56    35    36    1
    57    35    34    1
    58    31    30    1
    59    31    34    1
    60    31    32    1
    61    70    69    1
    62    38    32   am
    63    38    39    1
    64    68    66   am
    65    32    33    2
    66    39    40    1
    67    41    40    2
    68    65    66    1
    69    65    62    1
    70    66    67    2
    71    64    63    2
    72    50    49    2
    73    61    62    1
    74    61    56   am
    75    62    63    1
    76    60    58    1
    77    59    58    1
    78    53    52    1
    79    53    47    1
    80    55    58    1
    81    55    56    1
    82    55    54    1
    83    49    54   am
    84    49    48    1
    85    52    51    1
    86    56    57    2
    87    47    48    1
    88    48    51    1
