@<TRIPOS>MOLECULE
tmp/3ghgI00.pdb
 151 146 0 0 0
SMALL
GASTEIGER

@<TRIPOS>ATOM
      1  N       -123.4640  -58.6980  -36.5470 N.3   294  PHE294     -0.1241
      2  CA      -123.1430  -59.2800  -37.8380 C.3   294  PHE294      0.1605
      3  C       -124.1190  -60.3750  -38.2200 C.2   294  PHE294      0.2264
      4  O       -124.1400  -60.7860  -39.3770 O.2   294  PHE294     -0.2867
      5  CB      -121.7130  -59.8440  -37.8360 C.3   294  PHE294      0.0534
      6  CG      -120.6370  -58.7870  -37.7320 C.ar  294  PHE294     -0.0203
      7  CD1     -119.9890  -58.5450  -36.5220 C.ar  294  PHE294     -0.0042
      8  CD2     -120.2700  -58.0400  -38.8490 C.ar  294  PHE294     -0.0042
      9  CE1     -118.9980  -57.5740  -36.4260 C.ar  294  PHE294     -0.0003
     10  CE2     -119.2820  -57.0640  -38.7630 C.ar  294  PHE294     -0.0003
     11  CZ      -118.6440  -56.8300  -37.5480 C.ar  294  PHE294     -0.0000
     12  N       -124.5150  -63.7270  -37.5730 N.3   296  ASP296     -0.1225
     13  CA      -124.1440  -65.1330  -37.3680 C.3   296  ASP296      0.1805
     14  C       -124.3270  -65.5800  -35.9170 C.2   296  ASP296      0.2597
     15  O       -124.2350  -66.7720  -35.6110 O.2   296  ASP296     -0.2718
     16  CB      -122.7080  -65.3990  -37.8300 C.3   296  ASP296      0.1424
     17  CG      -121.7520  -64.2980  -37.4210 C.2   296  ASP296      0.3668
     18  OD1     -122.2240  -63.1540  -37.2460 O.co2 296  ASP296     -0.2456
     19  OD2     -120.5340  -64.5720  -37.2840 O.co2 296  ASP296     -0.2456
     20  N       -124.5680  -64.6180  -35.0290 N.am  297  ASP297     -0.1974
     21  CA      -125.0570  -64.9110  -33.6880 C.3   297  ASP297      0.1709
     22  C       -125.7940  -63.6990  -33.0890 C.2   297  ASP297      0.2293
     23  O       -125.3820  -62.5610  -33.2950 O.2   297  ASP297     -0.2864
     24  CB      -123.8950  -65.3210  -32.7940 C.3   297  ASP297      0.1436
     25  CG      -124.3540  -65.9660  -31.5240 C.2   297  ASP297      0.3671
     26  OD1     -124.9120  -67.0790  -31.6010 O.co2 297  ASP297     -0.2456
     27  OD2     -124.1790  -65.3490  -30.4500 O.co2 297  ASP297     -0.2456
     28  N       -123.8570  -60.7760  -31.0520 N.3   300  ASP300     -0.1239
     29  CA      -122.6970  -60.3800  -31.8470 C.3   300  ASP300      0.1674
     30  C       -122.3350  -58.9410  -31.5460 C.2   300  ASP300      0.2266
     31  O       -121.1680  -58.6180  -31.3510 O.2   300  ASP300     -0.2867
     32  CB      -122.9700  -60.5410  -33.3540 C.3   300  ASP300      0.1410
     33  CG      -122.7530  -61.9760  -33.8580 C.2   300  ASP300      0.3668
     34  OD1     -121.8960  -62.6970  -33.2780 O.co2 300  ASP300     -0.2456
     35  OD2     -123.4350  -62.3670  -34.8460 O.co2 300  ASP300     -0.2456
     36  N       -120.2640  -58.4450  -28.3980 N.3   303  PHE303     -0.1227
     37  CA      -118.8950  -58.9590  -28.4220 C.3   303  PHE303      0.1736
     38  C       -118.0250  -58.2510  -29.4490 C.2   303  PHE303      0.2596
     39  O       -116.8900  -58.6300  -29.6620 O.2   303  PHE303     -0.2718
     40  CB      -118.9140  -60.4650  -28.6950 C.3   303  PHE303      0.0547
     41  CG      -119.3140  -61.3110  -27.4900 C.ar  303  PHE303     -0.0202
     42  CD1     -118.6690  -61.1700  -26.2620 C.ar  303  PHE303     -0.0042
     43  CD2     -120.3090  -62.2770  -27.6000 C.ar  303  PHE303     -0.0042
     44  CE1     -119.0250  -61.9580  -25.1670 C.ar  303  PHE303     -0.0003
     45  CE2     -120.6650  -63.0670  -26.5060 C.ar  303  PHE303     -0.0003
     46  CZ      -120.0200  -62.9030  -25.2910 C.ar  303  PHE303     -0.0000
     47  N       -118.5630  -57.2250  -30.0860 N.am  304  THR304     -0.1953
     48  CA      -117.8070  -56.4210  -31.0250 C.3   304  THR304      0.1897
     49  C       -117.8040  -54.9590  -30.5870 C.2   304  THR304      0.2313
     50  O       -117.3340  -54.0720  -31.3010 O.2   304  THR304     -0.2863
     51  CB      -118.3910  -56.5480  -32.4470 C.3   304  THR304      0.1794
     52  OG1     -119.7620  -56.1320  -32.4580 O.3   304  THR304     -0.2208
     53  CG2     -118.2990  -57.9790  -32.9330 C.3   304  THR304      0.0378
     54  N       -112.2790  -62.9540  -25.4710 N.3   321  PHE321     -0.1241
     55  CA      -112.2330  -64.2530  -26.1000 C.3   321  PHE321      0.1605
     56  C       -111.2130  -65.0940  -25.3990 C.2   321  PHE321      0.2264
     57  O       -110.1060  -64.6300  -25.1870 O.2   321  PHE321     -0.2867
     58  CB      -111.7730  -64.0570  -27.5330 C.3   321  PHE321      0.0534
     59  CG      -111.7110  -65.3100  -28.3410 C.ar  321  PHE321     -0.0203
     60  CD1     -110.8720  -65.3790  -29.4310 C.ar  321  PHE321     -0.0042
     61  CD2     -112.4840  -66.4110  -28.0380 C.ar  321  PHE321     -0.0042
     62  CE1     -110.8110  -66.5060  -30.2040 C.ar  321  PHE321     -0.0003
     63  CE2     -112.4110  -67.5470  -28.8100 C.ar  321  PHE321     -0.0003
     64  CZ      -111.5760  -67.5920  -29.8930 C.ar  321  PHE321     -0.0000
     65  N       -107.3250  -62.7540  -29.7350 N.3   325  CYS325     -0.1235
     66  CA      -107.8710  -61.9960  -30.8660 C.3   325  CYS325      0.1677
     67  C       -106.8140  -61.1960  -31.6010 C.2   325  CYS325      0.2270
     68  O       -106.8230  -61.1380  -32.8340 O.2   325  CYS325     -0.2867
     69  CB      -108.9470  -61.0330  -30.3840 C.3   325  CYS325      0.0956
     70  SG      -110.4300  -61.8170  -29.7470 S.3   325  CYS325     -0.0801
     71  N       -104.5760  -63.6230  -33.8180 N.3   328  GLN328     -0.1231
     72  CA      -105.1760  -64.1290  -35.0520 C.3   328  GLN328      0.1698
     73  C       -105.3200  -63.0350  -36.1170 C.2   328  GLN328      0.2592
     74  O       -105.1090  -63.2880  -37.3120 O.2   328  GLN328     -0.2718
     75  CB      -106.5270  -64.7860  -34.7510 C.3   328  GLN328      0.0381
     76  CG      -106.4140  -66.0690  -33.9220 C.3   328  GLN328      0.0905
     77  CD      -107.6860  -66.3940  -33.1480 C.2   328  GLN328      0.2608
     78  OE1     -108.0980  -65.6260  -32.2840 O.2   328  GLN328     -0.2717
     79  NE2     -108.3020  -67.5420  -33.4430 N.am  328  GLN328     -0.0878
     80  N       -105.6430  -61.8190  -35.6740 N.am  329  ASP329     -0.1974
     81  CA      -105.8440  -60.6910  -36.5830 C.3   329  ASP329      0.1709
     82  C       -104.5920  -59.8300  -36.7860 C.2   329  ASP329      0.2293
     83  O       -104.6630  -58.7570  -37.3920 O.2   329  ASP329     -0.2864
     84  CB      -107.0230  -59.8340  -36.1010 C.3   329  ASP329      0.1436
     85  CG      -108.3610  -60.5450  -36.2480 C.2   329  ASP329      0.3671
     86  OD1     -108.3710  -61.7250  -36.6750 O.co2 329  ASP329     -0.2456
     87  OD2     -109.4070  -59.9240  -35.9460 O.co2 329  ASP329     -0.2456
     88  N       -114.4390  -59.4520  -28.4930 N.3   337  LYS337     -0.1231
     89  CA      -114.4670  -60.8420  -28.9870 C.3   337  LYS337      0.1693
     90  C       -114.9940  -60.9060  -30.4330 C.2   337  LYS337      0.2592
     91  O       -115.9990  -61.5660  -30.6870 O.2   337  LYS337     -0.2718
     92  CB      -115.3190  -61.7420  -28.0700 C.3   337  LYS337      0.0285
     93  CG      -115.1410  -63.2380  -28.3270 C.3   337  LYS337      0.0035
     94  CD      -116.3640  -64.0870  -27.9760 C.3   337  LYS337      0.0206
     95  CE      -117.5650  -63.8600  -28.9160 C.3   337  LYS337      0.1093
     96  NZ      -117.3170  -63.9860  -30.3840 N.3   337  LYS337     -0.1314
     97  N       -114.3410  -60.2330  -31.3840 N.am  338  CYS338     -0.1956
     98  CA      -113.1410  -59.4360  -31.1460 C.3   338  CYS338      0.1843
     99  C       -113.2710  -57.9960  -31.6310 C.2   338  CYS338      0.2625
    100  O       -112.8780  -57.0700  -30.9180 O.2   338  CYS338     -0.2714
    101  CB      -111.9240  -60.0850  -31.7990 C.3   338  CYS338      0.0997
    102  SG      -111.6740  -61.8350  -31.3380 S.3   338  CYS338     -0.0797
    103  N       -113.8040  -57.7820  -32.8290 N.am  339  HIS339     -0.1973
    104  CA      -113.8940  -56.4130  -33.3340 C.3   339  HIS339      0.1656
    105  C       -114.9970  -56.1390  -34.3540 C.2   339  HIS339      0.2291
    106  O       -115.2760  -56.9400  -35.2390 O.2   339  HIS339     -0.2864
    107  CB      -112.5530  -55.9880  -33.9240 C.3   339  HIS339      0.0771
    108  CG      -112.1400  -56.7830  -35.1250 C.ar  339  HIS339      0.0820
    109  ND1     -112.4080  -56.3780  -36.4150 N.ar  339  HIS339     -0.2267
    110  CD2     -111.4820  -57.9620  -35.2290 C.ar  339  HIS339      0.1154
    111  CE1     -111.9220  -57.2670  -37.2620 C.ar  339  HIS339      0.1986
    112  NE2     -111.3590  -58.2410  -36.5690 N.ar  339  HIS339     -0.2212
    113  N       -109.9760  -65.9820  -39.7710 N.3   362  TYR362     -0.1227
    114  CA      -110.9930  -64.9240  -39.6580 C.3   362  TYR362      0.1736
    115  C       -110.6090  -63.6300  -40.3740 C.2   362  TYR362      0.2595
    116  O       -109.4590  -63.4450  -40.7600 O.2   362  TYR362     -0.2718
    117  CB      -111.2630  -64.6030  -38.1890 C.3   362  TYR362      0.0548
    118  CG      -111.5230  -65.7970  -37.2780 C.ar  362  TYR362     -0.0200
    119  CD1     -110.4770  -66.4280  -36.6020 C.ar  362  TYR362     -0.0009
    120  CD2     -112.8190  -66.2640  -37.0570 C.ar  362  TYR362     -0.0009
    121  CE1     -110.7150  -67.4960  -35.7430 C.ar  362  TYR362      0.0417
    122  CE2     -113.0640  -67.3380  -36.2050 C.ar  362  TYR362      0.0417
    123  CZ      -112.0100  -67.9460  -35.5480 C.ar  362  TYR362      0.1957
    124  OH      -112.2450  -69.0090  -34.7010 O.3   362  TYR362     -0.2866
    125  N       -111.5870  -62.7370  -40.5190 N.am  363  ASP363     -0.1974
    126  CA      -111.3990  -61.4240  -41.1560 C.3   363  ASP363      0.1709
    127  C       -110.4910  -60.5180  -40.3460 C.2   363  ASP363      0.2293
    128  O       -110.8040  -60.2120  -39.2010 O.2   363  ASP363     -0.2864
    129  CB      -112.7450  -60.7170  -41.2970 C.3   363  ASP363      0.1436
    130  CG      -113.4020  -60.4360  -39.9520 C.2   363  ASP363      0.3671
    131  OD1     -113.3240  -61.3030  -39.0540 O.co2 363  ASP363     -0.2456
    132  OD2     -113.9880  -59.3440  -39.7920 O.co2 363  ASP363     -0.2456
    133  N       -111.2320  -53.2800  -41.2370 N.3   367  ILE367     -0.1245
    134  CA      -112.6890  -53.2010  -41.4120 C.3   367  ILE367      0.1561
    135  C       -113.3110  -52.2340  -40.4310 C.2   367  ILE367      0.2260
    136  O       -112.7120  -51.9040  -39.4110 O.2   367  ILE367     -0.2867
    137  CB      -113.4080  -54.5720  -41.2940 C.3   367  ILE367      0.0252
    138  CG1     -113.1580  -55.2360  -39.9270 C.3   367  ILE367      0.0019
    139  CG2     -112.9800  -55.4800  -42.4470 C.3   367  ILE367      0.0019
    140  CD1     -114.1800  -56.3210  -39.5640 C.3   367  ILE367      0.0001
    141  N       -117.3070  -56.5290  -43.4680 N.3   374  ARG374     -0.1245
    142  CA      -116.1510  -57.1030  -42.7770 C.3   374  ARG374      0.1563
    143  C       -115.1190  -57.7370  -43.7130 C.2   374  ARG374      0.2260
    144  O       -114.1060  -58.2500  -43.2470 O.2   374  ARG374     -0.2867
    145  CB      -116.5810  -58.1110  -41.7060 C.3   374  ARG374      0.0307
    146  CG      -117.4110  -59.2870  -42.1820 C.3   374  ARG374      0.0489
    147  CD      -117.5900  -60.2960  -41.0470 C.3   374  ARG374      0.2205
    148  NE      -118.7940  -61.1220  -41.1890 N.pl3 374  ARG374     -0.0865
    149  CZ      -119.0820  -62.1900  -40.4390 C.cat 374  ARG374      0.5346
    150  NH1     -118.2550  -62.5960  -39.4740 N.pl3 374  ARG374      0.1354
    151  NH2     -120.2050  -62.8680  -40.6570 N.pl3 374  ARG374      0.1354
@<TRIPOS>BOND
     1   143   144    2
     2   143   142    1
     3   141   142    1
     4   142   145    1
     5   139   137    1
     6   146   145    1
     7   146   147    1
     8   134   137    1
     9   134   133    1
    10   134   135    1
    11   129   126    1
    12   129   130    1
    13   137   138    1
    14   148   147    1
    15   148   149    2
    16   126   125    1
    17   126   127    1
    18   116   115    2
    19   151   149    1
    20   125   115   am
    21   149   150    1
    22   135   136    2
    23   115   114    1
    24   127   128    2
    25   130   132   ar
    26   130   131   ar
    27   138   140    1
    28   113   114    1
    29   114   117    1
    30     4     3    2
    31     8    10   ar
    32     8     6   ar
    33    10    11   ar
    34     3     2    1
    35   117   118    1
    36     2     5    1
    37     2     1    1
    38     5     6    1
    39    16    17    1
    40    16    13    1
    41     6     7   ar
    42    12    13    1
    43    11     9   ar
    44    17    19   ar
    45    17    18   ar
    46    83    82    2
    47    13    14    1
    48    74    73    2
    49   118   120   ar
    50   118   119   ar
    51   111   112   ar
    52   111   109   ar
    53   120   122   ar
    54    82    81    1
    55    86    85   ar
    56   119   121   ar
    57    81    84    1
    58    81    80    1
    59   112   110   ar
    60     7     9   ar
    61   109   108   ar
    62    85    84    1
    63    85    87   ar
    64   122   123   ar
    65    73    80   am
    66    73    72    1
    67    14    15    2
    68    14    20   am
    69   121   123   ar
    70   123   124    1
    71   106   105    2
    72   110   108   ar
    73   108   107    1
    74    72    75    1
    75    72    71    1
    76    20    21    1
    77    35    33   ar
    78    75    76    1
    79   105   104    1
    80   107   104    1
    81    76    77    1
    82    33    32    1
    83    33    34   ar
    84    21    22    1
    85    21    24    1
    86    79    77   am
    87    32    29    1
    88   104   103    1
    89    23    22    2
    90    77    78    2
    91    53    51    1
    92    68    67    2
    93   103    99   am
    94    24    25    1
    95    52    51    1
    96    51    48    1
    97    29    30    1
    98    29    28    1
    99   101   102    1
   100   101    98    1
   101    99    98    1
   102    99   100    2
   103    67    66    1
   104    26    25   ar
   105    30    31    2
   106    25    27   ar
   107    97    98    1
   108    97    90   am
   109   102    70    1
   110    50    49    2
   111    48    49    1
   112    48    47    1
   113    66    69    1
   114    66    65    1
   115    91    90    2
   116    90    89    1
   117    69    70    1
   118    96    95    1
   119    62    64   ar
   120    62    60   ar
   121    47    38   am
   122    64    63   ar
   123    39    38    2
   124    38    37    1
   125    60    59   ar
   126    89    88    1
   127    89    92    1
   128    95    94    1
   129    63    61   ar
   130    40    37    1
   131    40    41    1
   132    37    36    1
   133    59    61   ar
   134    59    58    1
   135    93    92    1
   136    93    94    1
   137    43    41   ar
   138    43    45   ar
   139    58    55    1
   140    41    42   ar
   141    45    46   ar
   142    42    44   ar
   143    55    54    1
   144    55    56    1
   145    56    57    2
   146    46    44   ar
