@<TRIPOS>MOLECULE
tmp/3ghgE00.pdb
 127 121 0 0 0
SMALL
GASTEIGER

@<TRIPOS>ATOM
      1  N        191.3550  -15.2480 -116.1080 N.3   303  LEU303     -0.1245
      2  CA       190.4610  -14.3240 -116.8190 C.3   303  LEU303      0.1561
      3  C        189.9870  -14.9030 -118.1460 C.2   303  LEU303      0.2260
      4  O        190.6130  -15.8060 -118.7000 O.2   303  LEU303     -0.2867
      5  CB       191.1580  -12.9880 -117.0720 C.3   303  LEU303      0.0270
      6  CG       192.0130  -12.4540 -115.9200 C.3   303  LEU303      0.0019
      7  CD1      192.5800  -11.0880 -116.2310 C.3   303  LEU303      0.0001
      8  CD2      191.1960  -12.4070 -114.6610 C.3   303  LEU303      0.0001
      9  N        187.7690  -10.7900 -123.4620 N.3   306  GLU306     -0.1231
     10  CA       188.2690   -9.4360 -123.1600 C.3   306  GLU306      0.1699
     11  C        189.3020   -9.4050 -122.0380 C.2   306  GLU306      0.2592
     12  O        190.4660   -9.0320 -122.2420 O.2   306  GLU306     -0.2718
     13  CB       187.0810   -8.5350 -122.7420 C.3   306  GLU306      0.0402
     14  CG       187.4460   -7.2350 -121.9280 C.3   306  GLU306      0.1161
     15  CD       186.3210   -6.7410 -120.9890 C.2   306  GLU306      0.3649
     16  OE1      186.6020   -6.3980 -119.8080 O.co2 306  GLU306     -0.2457
     17  OE2      185.1550   -6.6900 -121.4360 O.co2 306  GLU306     -0.2457
     18  N        188.8450   -9.7980 -120.8500 N.am  307  ASN307     -0.1974
     19  CA       189.5990   -9.6090 -119.6240 C.3   307  ASN307      0.1688
     20  C        190.9560  -10.2790 -119.7010 C.2   307  ASN307      0.2292
     21  O        191.9370   -9.7160 -119.2560 O.2   307  ASN307     -0.2864
     22  CB       188.7940  -10.0990 -118.4170 C.3   307  ASN307      0.1181
     23  CG       187.5650   -9.2390 -118.1580 C.2   307  ASN307      0.2629
     24  OD1      187.6760   -8.0500 -117.8550 O.2   307  ASN307     -0.2716
     25  ND2      186.3890   -9.8290 -118.3030 N.am  307  ASN307     -0.0877
     26  N        193.3840   -8.3780 -122.8710 N.3   310  MET310     -0.1230
     27  CA       193.9040   -7.0340 -122.5150 C.3   310  MET310      0.1702
     28  C        195.1170   -7.0870 -121.5740 C.2   310  MET310      0.2593
     29  O        195.7710   -6.0690 -121.3230 O.2   310  MET310     -0.2718
     30  CB       192.8160   -6.1430 -121.9010 C.3   310  MET310      0.0401
     31  CG       192.1690   -6.6840 -120.6330 C.3   310  MET310      0.0596
     32  SD       190.6420   -5.8440 -120.1670 S.3   310  MET310     -0.1393
     33  CE       190.0530   -5.1680 -121.7240 C.3   310  MET310      0.0692
     34  N        195.3970   -8.2750 -121.0530 N.am  311  THR311     -0.1953
     35  CA       196.6220   -8.5260 -120.3200 C.3   311  THR311      0.1897
     36  C        197.5390   -9.4530 -121.1280 C.2   311  THR311      0.2313
     37  O        197.9040  -10.5320 -120.6550 O.2   311  THR311     -0.2863
     38  CB       196.3200   -9.1770 -118.9670 C.3   311  THR311      0.1794
     39  OG1      195.9580  -10.5540 -119.1580 O.3   311  THR311     -0.2208
     40  CG2      195.1920   -8.4290 -118.2610 C.3   311  THR311      0.0378
     41  N        195.7220    1.5520 -122.4400 N.3   328  TRP328     -0.1241
     42  CA       194.5640    2.0080 -121.6840 C.3   328  TRP328      0.1605
     43  C        194.1620    3.3760 -122.1870 C.2   328  TRP328      0.2264
     44  O        194.1700    4.3540 -121.4370 O.2   328  TRP328     -0.2867
     45  CB       194.9320    2.0930 -120.2080 C.3   328  TRP328      0.0550
     46  CG       193.7910    2.0440 -119.2730 C.ar  328  TRP328      0.0003
     47  CD1      192.4650    2.1470 -119.5730 C.ar  328  TRP328      0.0946
     48  CD2      193.8740    1.8990 -117.8550 C.ar  328  TRP328      0.0152
     49  NE1      191.7150    2.0560 -118.4280 N.ar  328  TRP328     -0.2442
     50  CE2      192.5570    1.9060 -117.3580 C.ar  328  TRP328      0.0810
     51  CE3      194.9370    1.7540 -116.9550 C.ar  328  TRP328      0.0012
     52  CZ2      192.2750    1.7770 -116.0020 C.ar  328  TRP328      0.0191
     53  CZ3      194.6530    1.6300 -115.6060 C.ar  328  TRP328      0.0001
     54  CH2      193.3350    1.6490 -115.1440 C.ar  328  TRP328      0.0015
     55  N        199.4800    2.8840 -111.7660 N.3   340  GLU340     -0.1231
     56  CA       198.8130    2.0280 -110.7780 C.3   340  GLU340      0.1699
     57  C        199.6450    0.8130 -110.3370 C.2   340  GLU340      0.2592
     58  O        199.8930    0.6340 -109.1360 O.2   340  GLU340     -0.2718
     59  CB       197.4040    1.6280 -111.2620 C.3   340  GLU340      0.0402
     60  CG       196.4880    2.8570 -111.5310 C.3   340  GLU340      0.1161
     61  CD       194.9710    2.5880 -111.4360 C.2   340  GLU340      0.3649
     62  OE1      194.5440    1.4120 -111.4030 O.co2 340  GLU340     -0.2457
     63  OE2      194.1950    3.5760 -111.4030 O.co2 340  GLU340     -0.2457
     64  N        200.1090    0.0010 -111.2850 N.am  341  ASP341     -0.1974
     65  CA       200.6940   -1.3060 -110.9310 C.3   341  ASP341      0.1709
     66  C        202.1870   -1.2870 -110.5080 C.2   341  ASP341      0.2293
     67  O        202.8050   -2.3500 -110.3320 O.2   341  ASP341     -0.2864
     68  CB       200.4320   -2.3450 -112.0420 C.3   341  ASP341      0.1436
     69  CG       199.0250   -2.9620 -111.9660 C.2   341  ASP341      0.3671
     70  OD1      198.5080   -3.2000 -110.8460 O.co2 341  ASP341     -0.2456
     71  OD2      198.4430   -3.2320 -113.0400 O.co2 341  ASP341     -0.2456
     72  N        197.2370   -2.5910 -120.2750 N.3   349  ARG349     -0.1231
     73  CA       195.9140   -2.5190 -119.6100 C.3   349  ARG349      0.1694
     74  C        195.5130   -3.8200 -118.8510 C.2   349  ARG349      0.2592
     75  O        194.4750   -4.4200 -119.1670 O.2   349  ARG349     -0.2718
     76  CB       194.8290   -2.1330 -120.6270 C.3   349  ARG349      0.0321
     77  CG       193.4550   -1.8800 -120.0790 C.3   349  ARG349      0.0489
     78  CD       192.4110   -2.6300 -120.9180 C.3   349  ARG349      0.2205
     79  NE       191.0960   -1.9950 -120.8680 N.pl3 349  ARG349     -0.0865
     80  CZ       190.7750   -0.8720 -121.5090 C.cat 349  ARG349      0.5346
     81  NH1      189.5510   -0.3830 -121.3710 N.pl3 349  ARG349      0.1354
     82  NH2      191.6560   -0.2330 -122.2860 N.pl3 349  ARG349      0.1354
     83  N        196.3160   -4.2870 -117.8830 N.am  350  CYS350     -0.1956
     84  CA       197.6830   -3.8120 -117.6350 C.3   350  CYS350      0.1843
     85  C        198.7090   -4.9360 -117.5870 C.2   350  CYS350      0.2625
     86  O        199.7760   -4.7810 -118.1670 O.2   350  CYS350     -0.2714
     87  CB       197.7670   -2.9600 -116.3740 C.3   350  CYS350      0.0997
     88  SG       196.8390   -1.3860 -116.4870 S.3   350  CYS350     -0.0797
     89  N        198.4160   -6.0580 -116.9270 N.am  351  HIS351     -0.1973
     90  CA       199.3930   -7.1620 -116.8660 C.3   351  HIS351      0.1656
     91  C        198.8530   -8.5210 -116.4760 C.2   351  HIS351      0.2291
     92  O        197.8250   -8.6160 -115.8240 O.2   351  HIS351     -0.2864
     93  CB       200.5240   -6.8250 -115.8810 C.3   351  HIS351      0.0771
     94  CG       200.1280   -6.8970 -114.4320 C.ar  351  HIS351      0.0820
     95  ND1      199.6120   -5.8190 -113.7410 N.ar  351  HIS351     -0.2267
     96  CD2      200.2060   -7.9120 -113.5360 C.ar  351  HIS351      0.1154
     97  CE1      199.3850   -6.1680 -112.4860 C.ar  351  HIS351      0.1986
     98  NE2      199.7360   -7.4330 -112.3360 N.ar  351  HIS351     -0.2212
     99  N        195.0690   -1.4030 -106.8680 N.3   374  THR374     -0.1203
    100  CA       195.3340   -2.3630 -107.9250 C.3   374  THR374      0.1994
    101  C        196.0880   -3.5620 -107.3610 C.2   374  THR374      0.2617
    102  O        196.2080   -3.6900 -106.1480 O.2   374  THR374     -0.2717
    103  CB       196.1550   -1.6920 -109.0170 C.3   374  THR374      0.1784
    104  OG1      197.3700   -1.1980 -108.4460 O.3   374  THR374     -0.2211
    105  CG2      195.3800   -0.5300 -109.5960 C.3   374  THR374      0.0376
    106  N        196.5800   -4.4440 -108.2290 N.am  375  ASP375     -0.1973
    107  CA       197.4230   -5.5500 -107.7830 C.3   375  ASP375      0.1709
    108  C        198.8710   -5.3930 -108.2870 C.2   375  ASP375      0.2293
    109  O        199.4040   -6.2580 -109.0030 O.2   375  ASP375     -0.2864
    110  CB       196.8180   -6.8930 -108.1950 C.3   375  ASP375      0.1436
    111  CG       197.0950   -7.2360 -109.6350 C.2   375  ASP375      0.3671
    112  OD1      197.6310   -8.3370 -109.8830 O.co2 375  ASP375     -0.2456
    113  OD2      196.8150   -6.3880 -110.5100 O.co2 375  ASP375     -0.2456
    114  N        200.3580  -13.7730 -112.2720 N.3   381  MET381     -0.1245
    115  CA       198.9640  -14.2030 -112.1570 C.3   381  MET381      0.1570
    116  C        198.8140  -15.6770 -112.4950 C.2   381  MET381      0.2261
    117  O        198.2250  -16.4440 -111.7360 O.2   381  MET381     -0.2867
    118  CB       198.0430  -13.3510 -113.0440 C.3   381  MET381      0.0387
    119  CG       197.3010  -12.2600 -112.2690 C.3   381  MET381      0.0595
    120  SD       197.0810  -10.6880 -113.1460 S.3   381  MET381     -0.1393
    121  CE       195.4550  -10.9460 -113.8740 C.3   381  MET381      0.0692
    122  N        196.9330  -12.4110 -108.8400 N.3   386  SER386     -0.1217
    123  CA       197.2190  -11.0060 -108.5360 C.3   386  SER386      0.1889
    124  C        197.7490  -10.6760 -107.1360 C.2   386  SER386      0.2288
    125  O        198.4260   -9.6610 -106.9580 O.2   386  SER386     -0.2866
    126  CB       195.9450  -10.1760 -108.7480 C.3   386  SER386      0.2089
    127  OG       195.8880   -9.6530 -110.0560 O.3   386  SER386     -0.2183
@<TRIPOS>BOND
     1     9    10    1
     2    10    13    1
     3    10    11    1
     4    26    27    1
     5    13    14    1
     6    27    30    1
     7    27    28    1
     8    41    42    1
     9    82    80    1
    10    12    11    2
    11    43    42    1
    12    43    44    2
    13    11    18   am
    14    14    15    1
    15    30    31    1
    16    33    32    1
    17    42    45    1
    18    28    29    2
    19    28    34   am
    20    80    81    1
    21    80    79    2
    22    17    15   ar
    23    36    37    2
    24    36    35    1
    25    34    35    1
    26    15    16   ar
    27    78    79    1
    28    78    77    1
    29    18    19    1
    30    31    32    1
    31    76    77    1
    32    76    73    1
    33    35    38    1
    34    72    73    1
    35    45    46    1
    36    20    19    1
    37    20    21    2
    38    19    22    1
    39    73    74    1
    40    47    46   ar
    41    47    49   ar
    42    46    48   ar
    43    75    74    2
    44    39    38    1
    45    38    40    1
    46    74    83   am
    47     4     3    2
    48    49    50   ar
    49    22    23    1
    50    25    23   am
    51    86    85    2
    52    23    24    2
    53     3     2    1
    54    83    84    1
    55    48    50   ar
    56    48    51   ar
    57    84    85    1
    58    84    87    1
    59    85    89   am
    60    50    52   ar
    61     5     2    1
    62     5     6    1
    63    51    53   ar
    64    89    90    1
    65    90    91    1
    66    90    93    1
    67     2     1    1
    68    88    87    1
    69    91    92    2
    70     7     6    1
    71    52    54   ar
    72     6     8    1
    73    93    94    1
    74    53    54   ar
    75    94    95   ar
    76    94    96   ar
    77   121   120    1
    78    95    97   ar
    79    96    98   ar
    80   120   119    1
    81   118   119    1
    82   118   115    1
    83    71    69   ar
    84   116   115    1
    85   116   117    2
    86    97    98   ar
    87   114   115    1
    88    68    69    1
    89    68    65    1
    90    69    70   ar
    91    55    56    1
    92    60    61    1
    93    60    59    1
    94    61    62   ar
    95    61    63   ar
    96    64    65    1
    97    64    57   am
    98    59    56    1
    99    65    66    1
   100    56    57    1
   101   113   111   ar
   102    66    67    2
   103    57    58    2
   104   127   126    1
   105   112   111   ar
   106   111   110    1
   107   105   103    1
   108   103   104    1
   109   103   100    1
   110   109   108    2
   111   122   123    1
   112   126   123    1
   113   123   124    1
   114   108   107    1
   115   106   107    1
   116   106   101   am
   117   110   107    1
   118   100   101    1
   119   100    99    1
   120   101   102    2
   121   124   125    2
