@<TRIPOS>MOLECULE
tmp/3ghhB01.pdb
 213 209 0 0 0
SMALL
GASTEIGER

@<TRIPOS>ATOM
      1  N         18.6850    7.1880    0.6980 N.3    79  PHE79      -0.1227
      2  CA        18.1690    5.8420    0.4880 C.3    79  PHE79       0.1736
      3  C         18.4530    5.4130   -0.9420 C.2    79  PHE79       0.2595
      4  O         18.6940    6.2490   -1.8100 O.2    79  PHE79      -0.2718
      5  CB        16.6660    5.7980    0.7780 C.3    79  PHE79       0.0547
      6  CG        16.3300    6.1020    2.2080 C.ar   79  PHE79      -0.0202
      7  CD1       16.2130    5.0830    3.1370 C.ar   79  PHE79      -0.0042
      8  CD2       16.1800    7.4110    2.6300 C.ar   79  PHE79      -0.0042
      9  CE1       15.9310    5.3710    4.4620 C.ar   79  PHE79      -0.0003
     10  CE2       15.8980    7.7000    3.9440 C.ar   79  PHE79      -0.0003
     11  CZ        15.7740    6.6760    4.8630 C.ar   79  PHE79      -0.0000
     12  N         18.4350    4.1110   -1.1960 N.am   80  TRP80      -0.1962
     13  CA        18.6600    3.6460   -2.5580 C.3    80  TRP80       0.1771
     14  C         18.0180    2.2990   -2.8360 C.2    80  TRP80       0.2620
     15  O         17.6810    1.5500   -1.9210 O.2    80  TRP80      -0.2715
     16  CB        20.1570    3.6120   -2.8880 C.3    80  TRP80       0.0590
     17  CG        20.9730    2.6860   -2.0310 C.ar   80  TRP80       0.0006
     18  CD1       21.6800    3.0160   -0.9050 C.ar   80  TRP80       0.0946
     19  CD2       21.1890    1.2860   -2.2420 C.ar   80  TRP80       0.0152
     20  NE1       22.3130    1.9070   -0.4020 N.ar   80  TRP80      -0.2442
     21  CE2       22.0270    0.8310   -1.2030 C.ar   80  TRP80       0.0810
     22  CE3       20.7490    0.3700   -3.2030 C.ar   80  TRP80       0.0012
     23  CZ2       22.4340   -0.5010   -1.0980 C.ar   80  TRP80       0.0191
     24  CZ3       21.1570   -0.9560   -3.0980 C.ar   80  TRP80       0.0001
     25  CH2       21.9870   -1.3770   -2.0520 C.ar   80  TRP80       0.0015
     26  N         17.8400    2.0070   -4.1150 N.am   81  SER81      -0.1936
     27  CA        17.2700    0.7410   -4.5310 C.3    81  SER81       0.2055
     28  C         17.6850    0.5040   -5.9710 C.2    81  SER81       0.2642
     29  O         17.3480    1.2870   -6.8530 O.2    81  SER81      -0.2714
     30  CB        15.7500    0.7780   -4.4060 C.3    81  SER81       0.2130
     31  OG        15.2160   -0.5270   -4.3000 O.3    81  SER81      -0.2179
     32  N         18.4470   -0.5610   -6.1970 N.am   82  LYS82      -0.1977
     33  CA        18.8910   -0.8990   -7.5400 C.3    82  LYS82       0.1596
     34  C         19.8320    0.1590   -8.0900 C.2    82  LYS82       0.2287
     35  O         19.9950    0.2730   -9.3030 O.2    82  LYS82      -0.2864
     36  CB        17.6890   -1.0550   -8.4800 C.3    82  LYS82       0.0298
     37  CG        17.1030   -2.4580   -8.5210 C.3    82  LYS82       0.0038
     38  CD        16.0880   -2.7050   -7.4190 C.3    82  LYS82       0.0206
     39  CE        15.6360   -4.1570   -7.4390 C.3    82  LYS82       0.1093
     40  NZ        14.4060   -4.3770   -6.6270 N.3    82  LYS82      -0.1314
     41  N         22.9610    1.0450   -6.1420 N.3    84  LYS84      -0.1245
     42  CA        24.0130    1.0460   -5.1270 C.3    84  LYS84       0.1561
     43  C         25.2370    1.8960   -5.4620 C.2    84  LYS84       0.2260
     44  O         25.5950    2.7930   -4.7030 O.2    84  LYS84      -0.2867
     45  CB        24.4450   -0.3840   -4.7930 C.3    84  LYS84       0.0271
     46  CG        25.4990   -0.4670   -3.6940 C.3    84  LYS84       0.0035
     47  CD        25.5250   -1.8550   -3.0770 C.3    84  LYS84       0.0206
     48  CE        26.3750   -1.9050   -1.8120 C.3    84  LYS84       0.1093
     49  NZ        26.1870   -3.2020   -1.1030 N.3    84  LYS84      -0.1314
     50  N         22.9170    4.0460    4.2890 N.3    99  LEU99      -0.1231
     51  CA        22.9720    3.0530    5.3530 C.3    99  LEU99       0.1693
     52  C         24.3800    2.4820    5.4910 C.2    99  LEU99       0.2591
     53  O         24.8300    2.1570    6.5930 O.2    99  LEU99      -0.2718
     54  CB        21.9770    1.9270    5.0610 C.3    99  LEU99       0.0284
     55  CG        21.8570    0.8280    6.1130 C.3    99  LEU99       0.0019
     56  CD1       21.4720    1.4450    7.4570 C.3    99  LEU99       0.0001
     57  CD2       20.8310   -0.1980    5.6790 C.3    99  LEU99       0.0001
     58  N         25.0880    2.3760    4.3720 N.am  100  GLU100     -0.1979
     59  CA        26.4330    1.7960    4.3860 C.3   100  GLU100      0.1602
     60  C         27.4800    2.7570    4.9670 C.2   100  GLU100      0.2287
     61  O         28.6550    2.4130    5.0790 O.2   100  GLU100     -0.2864
     62  CB        26.8350    1.3330    2.9780 C.3   100  GLU100      0.0415
     63  CG        25.9760    0.1990    2.4140 C.3   100  GLU100      0.1163
     64  CD        24.5210    0.5970    2.2160 C.2   100  GLU100      0.3649
     65  OE1       24.2670    1.6760    1.6500 O.co2 100  GLU100     -0.2457
     66  OE2       23.6230   -0.1670    2.6280 O.co2 100  GLU100     -0.2457
     67  N         28.7170   -4.2370    5.0800 N.3   109  ASP109     -0.1225
     68  CA        28.6020   -4.0550    3.6480 C.3   109  ASP109      0.1805
     69  C         29.4270   -5.0720    2.8600 C.2   109  ASP109      0.2598
     70  O         30.6410   -5.2040    3.0600 O.2   109  ASP109     -0.2718
     71  CB        29.0070   -2.6350    3.2570 C.3   109  ASP109      0.1424
     72  CG        28.5840   -2.2820    1.8410 C.2   109  ASP109      0.3668
     73  OD1       27.5480   -2.8090    1.3810 O.co2 109  ASP109     -0.2456
     74  OD2       29.2800   -1.4770    1.1960 O.co2 109  ASP109     -0.2456
     75  N         28.7500   -5.7980    1.9770 N.am  110  GLY110     -0.1957
     76  CA        29.4060   -6.7370    1.0860 C.3   110  GLY110      0.1869
     77  C         29.8240   -8.0540    1.7090 C.2   110  GLY110      0.2309
     78  O         30.4790   -8.8580    1.0550 O.2   110  GLY110     -0.2863
     79  N         18.1080  -16.0480    0.4190 N.3   130  TRP130     -0.1227
     80  CA        16.8380  -15.5260    0.9130 C.3   130  TRP130      0.1737
     81  C         15.6590  -15.8690    0.0010 C.2   130  TRP130      0.2595
     82  O         14.4960  -15.8170    0.4180 O.2   130  TRP130     -0.2718
     83  CB        16.9210  -14.0200    1.1780 C.3   130  TRP130      0.0564
     84  CG        17.0680  -13.1630   -0.0450 C.ar  130  TRP130      0.0003
     85  CD1       18.2350  -12.7670   -0.6390 C.ar  130  TRP130      0.0946
     86  CD2       16.0100  -12.5710   -0.8050 C.ar  130  TRP130      0.0152
     87  NE1       17.9640  -11.9730   -1.7300 N.ar  130  TRP130     -0.2442
     88  CE2       16.6060  -11.8380   -1.8530 C.ar  130  TRP130      0.0810
     89  CE3       14.6160  -12.5910   -0.7030 C.ar  130  TRP130      0.0012
     90  CZ2       15.8560  -11.1340   -2.7920 C.ar  130  TRP130      0.0191
     91  CZ3       13.8730  -11.8890   -1.6360 C.ar  130  TRP130      0.0001
     92  CH2       14.4940  -11.1720   -2.6670 C.ar  130  TRP130      0.0015
     93  N         15.9600  -16.2240   -1.2430 N.am  131  ARG131     -0.1980
     94  CA        14.9180  -16.6670   -2.1640 C.3   131  ARG131      0.1597
     95  C         14.7330  -18.1850   -2.1190 C.2   131  ARG131      0.2287
     96  O         13.6300  -18.6750   -1.8680 O.2   131  ARG131     -0.2864
     97  CB        15.2090  -16.1990   -3.5930 C.3   131  ARG131      0.0334
     98  CG        15.0630  -14.6960   -3.7880 C.3   131  ARG131      0.0492
     99  CD        15.1050  -14.3130   -5.2610 C.3   131  ARG131      0.2205
    100  NE        15.7070  -12.9980   -5.4500 N.pl3 131  ARG131     -0.0865
    101  CZ        17.0170  -12.7770   -5.4180 C.cat 131  ARG131      0.5346
    102  NH1       17.8550  -13.7850   -5.2060 N.pl3 131  ARG131      0.1354
    103  NH2       17.4920  -11.5520   -5.5940 N.pl3 131  ARG131      0.1354
    104  N         13.6240  -16.7440    4.1930 N.3   135  ARG135     -0.1245
    105  CA        13.6300  -15.3010    4.3250 C.3   135  ARG135      0.1563
    106  C         14.1890  -14.9130    5.6680 C.2   135  ARG135      0.2260
    107  O         14.7750  -13.8870    5.8280 O.2   135  ARG135     -0.2867
    108  CB        12.2040  -14.7820    4.2730 C.3   135  ARG135      0.0307
    109  CG        11.9610  -13.7550    3.2360 C.3   135  ARG135      0.0489
    110  CD        11.5320  -14.3880    1.9630 C.3   135  ARG135      0.2205
    111  NE        10.4950  -13.6410    1.2650 N.pl3 135  ARG135     -0.0865
    112  CZ        10.1390  -13.8660    0.0040 C.cat 135  ARG135      0.5346
    113  NH1       10.7660  -14.8110   -0.6920 N.pl3 135  ARG135      0.1354
    114  NH2        9.1730  -13.1300   -0.5670 N.pl3 135  ARG135      0.1354
    115  N         21.4100  -12.9180    7.4390 N.3   139  LEU139     -0.1231
    116  CA        21.8590  -11.8630    6.5370 C.3   139  LEU139      0.1693
    117  C         20.7050  -10.9270    6.1700 C.2   139  LEU139      0.2592
    118  O         20.8290   -9.7050    6.2390 O.2   139  LEU139     -0.2718
    119  CB        22.4990  -12.4660    5.2790 C.3   139  LEU139      0.0284
    120  CG        22.9790  -11.5260    4.1650 C.3   139  LEU139      0.0019
    121  CD1       23.9460  -10.4760    4.6880 C.3   139  LEU139      0.0001
    122  CD2       23.6280  -12.3290    3.0330 C.3   139  LEU139      0.0001
    123  N         19.5690  -11.4960    5.7920 N.am  140  SER140     -0.1952
    124  CA        18.4350  -10.6710    5.4010 C.3   140  SER140      0.1924
    125  C         17.8280   -9.9500    6.5970 C.2   140  SER140      0.2314
    126  O         17.4050   -8.8010    6.4810 O.2   140  SER140     -0.2863
    127  CB        17.3700  -11.5210    4.6980 C.3   140  SER140      0.2116
    128  OG        17.9500  -12.1990    3.5970 O.3   140  SER140     -0.2180
    129  N         19.9330   -6.7820    7.5980 N.3   143  TRP143     -0.1227
    130  CA        19.6730   -5.6130    6.7610 C.3   143  TRP143      0.1737
    131  C         18.2740   -5.0220    6.9450 C.2   143  TRP143      0.2595
    132  O         18.1010   -3.8080    6.8870 O.2   143  TRP143     -0.2718
    133  CB        19.9820   -5.9040    5.2910 C.3   143  TRP143      0.0564
    134  CG        21.4510   -6.0400    5.0590 C.ar  143  TRP143      0.0003
    135  CD1       22.1360   -7.1820    4.7500 C.ar  143  TRP143      0.0946
    136  CD2       22.4260   -5.0040    5.1730 C.ar  143  TRP143      0.0152
    137  NE1       23.4800   -6.9120    4.6450 N.ar  143  TRP143     -0.2442
    138  CE2       23.6820   -5.5790    4.8970 C.ar  143  TRP143      0.0810
    139  CE3       22.3580   -3.6360    5.4670 C.ar  143  TRP143      0.0012
    140  CZ2       24.8590   -4.8380    4.9090 C.ar  143  TRP143      0.0191
    141  CZ3       23.5230   -2.9040    5.4840 C.ar  143  TRP143      0.0001
    142  CH2       24.7610   -3.5040    5.2080 C.ar  143  TRP143      0.0015
    143  N         17.2800   -5.8690    7.1910 N.am  144  GLU144     -0.1979
    144  CA        15.9350   -5.3620    7.4440 C.3   144  GLU144      0.1602
    145  C         15.8860   -4.5840    8.7540 C.2   144  GLU144      0.2287
    146  O         15.3100   -3.4980    8.8140 O.2   144  GLU144     -0.2864
    147  CB        14.9160   -6.5010    7.4550 C.3   144  GLU144      0.0415
    148  CG        14.6720   -7.0900    6.0680 C.3   144  GLU144      0.1163
    149  CD        13.8190   -8.3470    6.1100 C.2   144  GLU144      0.3649
    150  OE1       13.3460   -8.7080    7.2120 O.co2 144  GLU144     -0.2457
    151  OE2       13.6320   -8.9740    5.0430 O.co2 144  GLU144     -0.2457
    152  N         17.8760   -1.3620    8.2270 N.3   147  SER147     -0.1217
    153  CA        17.1320   -0.5160    7.2960 C.3   147  SER147      0.1889
    154  C         15.9510    0.1600    7.9730 C.2   147  SER147      0.2288
    155  O         15.6730    1.3360    7.7300 O.2   147  SER147     -0.2866
    156  CB        16.6410   -1.3300    6.0950 C.3   147  SER147      0.2089
    157  OG        17.7350   -1.8060    5.3350 O.3   147  SER147     -0.2183
    158  N         17.1010    2.9870   10.3820 N.3   150  PHE150     -0.1241
    159  CA        17.6790    4.0660    9.5900 C.3   150  PHE150      0.1605
    160  C         16.5530    4.8770    8.9650 C.2   150  PHE150      0.2264
    161  O         16.6040    6.1030    8.9340 O.2   150  PHE150     -0.2867
    162  CB        18.5910    3.4590    8.5180 C.3   150  PHE150      0.0534
    163  CG        19.3210    4.4600    7.6560 C.ar  150  PHE150     -0.0203
    164  CD1       20.4240    5.1490    8.1370 C.ar  150  PHE150     -0.0042
    165  CD2       18.9450    4.6460    6.3320 C.ar  150  PHE150     -0.0042
    166  CE1       21.1180    6.0370    7.3220 C.ar  150  PHE150     -0.0003
    167  CE2       19.6250    5.5360    5.5130 C.ar  150  PHE150     -0.0003
    168  CZ        20.7130    6.2320    6.0050 C.ar  150  PHE150     -0.0000
    169  N         11.1130   -4.6210   -2.6140 N.3   174  SER174     -0.1202
    170  CA        12.5130   -4.4430   -2.2380 C.3   174  SER174      0.2020
    171  C         12.5910   -4.0490   -0.7660 C.2   174  SER174      0.2619
    172  O         11.5790   -3.7350   -0.1450 O.2   174  SER174     -0.2717
    173  CB        13.1790   -3.3650   -3.0880 C.3   174  SER174      0.2103
    174  OG        12.6460   -2.0900   -2.7750 O.3   174  SER174     -0.2182
    175  N         13.7940   -4.0570   -0.2080 N.am  175  ILE175     -0.1965
    176  CA        13.9620   -3.5830    1.1530 C.3   175  ILE175      0.1727
    177  C         13.4860   -2.1300    1.2430 C.2   175  ILE175      0.2616
    178  O         12.7410   -1.7750    2.1530 O.2   175  ILE175     -0.2715
    179  CB        15.4130   -3.7540    1.6430 C.3   175  ILE175      0.0290
    180  CG1       15.7240   -5.2420    1.8150 C.3   175  ILE175      0.0022
    181  CG2       15.6390   -3.0110    2.9450 C.3   175  ILE175      0.0023
    182  CD1       16.8520   -5.5350    2.7930 C.3   175  ILE175      0.0001
    183  N         13.8920   -1.2920    0.2900 N.am  176  PHE176     -0.1974
    184  CA        13.4010    0.0840    0.2970 C.3   176  PHE176      0.1639
    185  C         11.8710    0.1050    0.3520 C.2   176  PHE176      0.2290
    186  O         11.2760    0.8660    1.1200 O.2   176  PHE176     -0.2864
    187  CB        13.9060    0.8970   -0.9000 C.3   176  PHE176      0.0560
    188  CG        13.3400    2.2930   -0.9500 C.ar  176  PHE176     -0.0200
    189  CD1       13.7800    3.2620   -0.0650 C.ar  176  PHE176     -0.0042
    190  CD2       12.3490    2.6260   -1.8600 C.ar  176  PHE176     -0.0042
    191  CE1       13.2490    4.5380   -0.0890 C.ar  176  PHE176     -0.0003
    192  CE2       11.8160    3.9010   -1.8930 C.ar  176  PHE176     -0.0003
    193  CZ        12.2650    4.8600   -1.0060 C.ar  176  PHE176     -0.0000
    194  N          9.5200   -2.4680    1.2150 N.3   178  ARG178     -0.1245
    195  CA         8.8090   -3.1120    2.3200 C.3   178  ARG178      0.1563
    196  C          9.1240   -2.5010    3.6830 C.2   178  ARG178      0.2260
    197  O          8.2440   -2.3950    4.5340 O.2   178  ARG178     -0.2867
    198  CB         9.1210   -4.6090    2.3970 C.3   178  ARG178      0.0307
    199  CG         9.3750   -5.3100    1.0810 C.3   178  ARG178      0.0489
    200  CD         9.7270   -6.7700    1.3470 C.3   178  ARG178      0.2205
    201  NE        10.7640   -7.2640    0.4460 N.pl3 178  ARG178     -0.0865
    202  CZ        12.0230   -7.4950    0.8080 C.cat 178  ARG178      0.5346
    203  NH1       12.4060   -7.2860    2.0630 N.pl3 178  ARG178      0.1354
    204  NH2       12.8990   -7.9450   -0.0850 N.pl3 178  ARG178      0.1354
    205  N         11.7640    0.4120    4.1900 N.3   180  GLN180     -0.1245
    206  CA        12.1960    1.7600    4.4180 C.3   180  GLN180      0.1566
    207  C         11.1050    2.7680    4.2160 C.2   180  GLN180      0.2260
    208  O         10.6650    3.3590    5.1400 O.2   180  GLN180     -0.2867
    209  CB        13.4180    2.0850    3.6170 C.3   180  GLN180      0.0367
    210  CG        14.4750    1.1350    3.8880 C.3   180  GLN180      0.0905
    211  CD        15.7720    1.5920    3.4300 C.2   180  GLN180      0.2608
    212  OE1       16.0670    1.5960    2.2570 O.2   180  GLN180     -0.2717
    213  NE2       16.6000    1.9910    4.3790 N.am  180  GLN180     -0.0878
@<TRIPOS>BOND
     1    35    34    2
     2    37    36    1
     3    37    38    1
     4    36    33    1
     5    34    33    1
     6    33    32    1
     7    39    38    1
     8    39    40    1
     9    29    28    2
    10    32    28   am
    11    41    42    1
    12    28    27    1
    13   103   101    1
    14    43    42    1
    15    43    44    2
    16   100   101    2
    17   100    99    1
    18   101   102    1
    19    99    98    1
    20    42    45    1
    21    45    46    1
    22    27    30    1
    23    27    26    1
    24    30    31    1
    25    26    14   am
    26    98    97    1
    27    46    47    1
    28    97    94    1
    29    22    24   ar
    30    22    19   ar
    31    24    25   ar
    32   173   174    1
    33   173   170    1
    34    47    48    1
    35    16    13    1
    36    16    17    1
    37    14    13    1
    38    14    15    2
    39    90    92   ar
    40    90    88   ar
    41    92    91   ar
    42   169   170    1
    43    13    12    1
    44    19    17   ar
    45    19    21   ar
    46   170   171    1
    47    94    95    1
    48    94    93    1
    49    95    96    2
    50    25    23   ar
    51    17    18   ar
    52   192   190   ar
    53   192   193   ar
    54   190   188   ar
    55    88    87   ar
    56    88    86   ar
    57    48    49    1
    58     4     3    2
    59    87    85   ar
    60    91    89   ar
    61    93    81   am
    62    21    23   ar
    63    21    20   ar
    64    12     3   am
    65   193   191   ar
    66   188   187    1
    67   188   189   ar
    68     3     2    1
    69    18    20   ar
    70   187   184    1
    71    86    89   ar
    72    86    84   ar
    73   171   175   am
    74   171   172    2
    75   113   112    1
    76    85    84   ar
    77   114   112    1
    78   175   176    1
    79   191   189   ar
    80   204   202    1
    81    84    83    1
    82    81    82    2
    83    81    80    1
    84   112   111    2
    85   183   184    1
    86   183   177   am
    87   184   185    1
    88   185   186    2
    89    79    80    1
    90   201   202    2
    91   201   200    1
    92     2     1    1
    93     2     5    1
    94     5     6    1
    95   202   203    1
    96    80    83    1
    97    78    77    2
    98   199   200    1
    99   199   198    1
   100    76    77    1
   101    76    75    1
   102   176   177    1
   103   176   179    1
   104    74    72   ar
   105   194   195    1
   106   177   178    2
   107   111   110    1
   108    73    72   ar
   109   179   180    1
   110   179   181    1
   111    65    64   ar
   112   180   182    1
   113    72    71    1
   114   110   109    1
   115    75    69   am
   116     6     8   ar
   117     6     7   ar
   118    64    63    1
   119    64    66   ar
   120   212   211    2
   121   195   198    1
   122   195   196    1
   123    63    62    1
   124     8    10   ar
   125    69    70    2
   126    69    68    1
   127    62    59    1
   128   122   120    1
   129     7     9   ar
   130   109   108    1
   131    71    68    1
   132   211   210    1
   133   211   213   am
   134   128   127    1
   135   209   210    1
   136   209   206    1
   137    68    67    1
   138   196   197    2
   139    10    11   ar
   140   120   121    1
   141   120   119    1
   142   205   206    1
   143   104   105    1
   144   207   206    1
   145   207   208    2
   146   108   105    1
   147    50    51    1
   148   105   106    1
   149    58    59    1
   150    58    52   am
   151    59    60    1
   152     9    11   ar
   153   137   135   ar
   154   137   138   ar
   155   127   124    1
   156   135   134   ar
   157   138   140   ar
   158   138   136   ar
   159   140   142   ar
   160    60    61    2
   161   151   149   ar
   162   134   136   ar
   163   134   133    1
   164    54    51    1
   165    54    55    1
   166   136   139   ar
   167   142   141   ar
   168   119   116    1
   169   133   130    1
   170   157   156    1
   171    51    52    1
   172   124   123    1
   173   124   125    1
   174   139   141   ar
   175    52    53    2
   176   167   168   ar
   177   167   165   ar
   178   106   107    2
   179    57    55    1
   180   123   117   am
   181   168   166   ar
   182   148   149    1
   183   148   147    1
   184   156   153    1
   185   149   150   ar
   186    55    56    1
   187   117   118    2
   188   117   116    1
   189   165   163   ar
   190   126   125    2
   191   116   115    1
   192   130   131    1
   193   130   129    1
   194   132   131    2
   195   131   143   am
   196   143   144    1
   197   153   154    1
   198   153   152    1
   199   166   164   ar
   200   144   147    1
   201   144   145    1
   202   163   164   ar
   203   163   162    1
   204   155   154    2
   205   162   159    1
   206   145   146    2
   207   161   160    2
   208   160   159    1
   209   159   158    1
