@<TRIPOS>MOLECULE
tmp/3gi2A00.pdb
 200 193 0 0 0
SMALL
GASTEIGER

@<TRIPOS>ATOM
      1  N        -21.7200  -13.0850   -1.6500 N.3     7  ILE7       -0.1231
      2  CA       -20.6180  -12.9880   -2.6030 C.3     7  ILE7        0.1692
      3  C        -19.4110  -13.7690   -2.0300 C.2     7  ILE7        0.2592
      4  O        -19.1580  -13.7110   -0.8280 O.2     7  ILE7       -0.2718
      5  CB       -20.2800  -11.5310   -2.9370 C.3     7  ILE7        0.0266
      6  CG1      -19.1800  -11.5190   -4.0010 C.3     7  ILE7        0.0019
      7  CG2      -19.8510  -10.6910   -1.6430 C.3     7  ILE7        0.0020
      8  CD1      -19.0840  -10.0810   -4.6460 C.3     7  ILE7        0.0001
      9  N        -18.7210  -14.4940   -2.9040 N.am    8  VAL8       -0.1966
     10  CA       -17.6100  -15.3630   -2.4860 C.3     8  VAL8        0.1727
     11  C        -16.7180  -15.5980   -3.7130 C.2     8  VAL8        0.2616
     12  O        -17.2010  -15.5350   -4.8690 O.2     8  VAL8       -0.2715
     13  CB       -18.1620  -16.7580   -2.0070 C.3     8  VAL8        0.0290
     14  CG1      -18.7900  -17.5390   -3.2020 C.3     8  VAL8        0.0023
     15  CG2      -17.0510  -17.5200   -1.3080 C.3     8  VAL8        0.0023
     16  N        -15.4690  -15.9240   -3.4420 N.am    9  ALA9       -0.1977
     17  CA       -14.5900  -16.4800   -4.4500 C.3     9  ALA9        0.1597
     18  C        -14.1320  -17.8320   -3.9110 C.2     9  ALA9        0.2287
     19  O        -13.7770  -17.9950   -2.7250 O.2     9  ALA9       -0.2864
     20  CB       -13.3890  -15.5100   -4.6470 C.3     9  ALA9        0.0319
     21  N         -6.5650  -16.3020    5.8040 N.3    21  ASP21      -0.1225
     22  CA        -6.4380  -15.4550    4.6040 C.3    21  ASP21       0.1805
     23  C         -6.9890  -16.2980    3.4550 C.2    21  ASP21       0.2597
     24  O         -7.6140  -17.3520    3.7060 O.2    21  ASP21      -0.2718
     25  CB        -4.9930  -14.9890    4.3920 C.3    21  ASP21       0.1424
     26  CG        -4.9080  -13.6860    3.5760 C.2    21  ASP21       0.3668
     27  OD1       -5.7340  -13.3010    2.6950 O.co2  21  ASP21      -0.2456
     28  OD2       -3.9300  -12.9600    3.8530 O.co2  21  ASP21      -0.2456
     29  N         -6.8690  -15.7700    2.2510 N.am   22  LEU22      -0.1979
     30  CA        -7.3310  -16.5270    1.0430 C.3    22  LEU22       0.1596
     31  C         -6.3860  -17.6610    0.6840 C.2    22  LEU22       0.2287
     32  O         -5.1930  -17.5780    1.0250 O.2    22  LEU22      -0.2864
     33  CB        -7.5790  -15.5640   -0.1350 C.3    22  LEU22       0.0297
     34  CG        -8.7440  -14.5320    0.1140 C.3    22  LEU22       0.0022
     35  CD1       -9.0830  -13.8840   -1.1040 C.3    22  LEU22       0.0001
     36  CD2       -9.9960  -15.1770    0.6850 C.3    22  LEU22       0.0001
     37  N         -5.7850   -8.7850   -7.7390 N.3    28  ARG28      -0.1245
     38  CA        -6.1820   -7.3730   -7.5020 C.3    28  ARG28       0.1563
     39  C         -7.5260   -7.0490   -8.1670 C.2    28  ARG28       0.2260
     40  O         -8.3580   -6.4250   -7.5480 O.2    28  ARG28      -0.2867
     41  CB        -5.0450   -6.3980   -7.9680 C.3    28  ARG28       0.0307
     42  CG        -3.7530   -6.5780   -7.1110 C.3    28  ARG28       0.0489
     43  CD        -2.4130   -6.2440   -7.8220 C.3    28  ARG28       0.2205
     44  NE        -1.2500   -6.9610   -7.2540 N.pl3  28  ARG28      -0.0865
     45  CZ        -0.0430   -7.0220   -7.8420 C.cat  28  ARG28       0.5346
     46  NH1        0.9720   -7.6900   -7.2760 N.pl3  28  ARG28       0.1354
     47  NH2        0.1600   -6.4110   -9.0060 N.pl3  28  ARG28       0.1354
     48  N         -9.8860   -9.1200   -8.9520 N.3    30  GLU30      -0.1231
     49  CA       -10.9760   -9.9090   -8.3150 C.3    30  GLU30       0.1699
     50  C        -11.3950   -9.1740   -7.0560 C.2    30  GLU30       0.2592
     51  O        -12.5750   -9.0520   -6.7770 O.2    30  GLU30      -0.2718
     52  CB       -10.4710  -11.3320   -8.0650 C.3    30  GLU30       0.0402
     53  CG       -11.6190  -12.3740   -8.1150 C.3    30  GLU30       0.1161
     54  CD       -12.5360  -12.2710   -6.8770 C.2    30  GLU30       0.3649
     55  OE1      -13.7590  -12.2870   -7.0640 O.co2  30  GLU30      -0.2457
     56  OE2      -12.0350  -12.1990   -5.7360 O.co2  30  GLU30      -0.2457
     57  N        -10.4130   -8.6510   -6.2770 N.am   31  PHE31      -0.1962
     58  CA       -10.8060   -7.8240   -5.1400 C.3    31  PHE31       0.1771
     59  C        -11.5640   -6.5690   -5.5400 C.2    31  PHE31       0.2619
     60  O        -12.5190   -6.1200   -4.8590 O.2    31  PHE31      -0.2715
     61  CB        -9.5890   -7.3400   -4.3350 C.3    31  PHE31       0.0574
     62  CG        -8.9740   -8.3910   -3.3910 C.ar   31  PHE31      -0.0200
     63  CD1       -9.7670   -9.2870   -2.6610 C.ar   31  PHE31      -0.0042
     64  CD2       -7.5810   -8.4150   -3.2110 C.ar   31  PHE31      -0.0042
     65  CE1       -9.2030  -10.1800   -1.7300 C.ar   31  PHE31      -0.0003
     66  CE2       -6.9870   -9.3640   -2.2900 C.ar   31  PHE31      -0.0003
     67  CZ        -7.7930  -10.1990   -1.5190 C.ar   31  PHE31      -0.0000
     68  N        -11.1190   -5.9550   -6.6390 N.am   32  ARG32      -0.1963
     69  CA       -11.8530   -4.8040   -7.1730 C.3    32  ARG32       0.1729
     70  C        -13.3180   -5.1030   -7.5780 C.2    32  ARG32       0.2616
     71  O        -14.2020   -4.2840   -7.4190 O.2    32  ARG32      -0.2715
     72  CB       -11.0510   -4.1790   -8.3340 C.3    32  ARG32       0.0348
     73  CG        -9.8260   -3.3920   -7.8460 C.3    32  ARG32       0.0492
     74  CD        -8.9960   -3.0030   -9.0660 C.3    32  ARG32       0.2205
     75  NE        -7.8050   -2.1740   -8.7460 N.pl3  32  ARG32      -0.0865
     76  CZ        -6.6000   -2.3640   -9.2870 C.cat  32  ARG32       0.5346
     77  NH1       -5.5850   -1.5610   -8.9550 N.pl3  32  ARG32       0.1354
     78  NH2       -6.3790   -3.3890  -10.1120 N.pl3  32  ARG32       0.1354
     79  N        -13.5250   -6.3200   -8.0850 N.am   33  TYR33      -0.1960
     80  CA       -14.8640   -6.8010   -8.4120 C.3    33  TYR33       0.1771
     81  C        -15.6780   -6.9160   -7.0940 C.2    33  TYR33       0.2620
     82  O        -16.8350   -6.4600   -7.0110 O.2    33  TYR33      -0.2715
     83  CB       -14.7660   -8.1560   -9.1070 C.3    33  TYR33       0.0574
     84  CG       -16.1340   -8.7840   -9.2900 C.ar   33  TYR33      -0.0198
     85  CD1      -16.5620   -9.8190   -8.5120 C.ar   33  TYR33      -0.0009
     86  CD2      -16.9230   -8.4050  -10.4040 C.ar   33  TYR33      -0.0009
     87  CE1      -17.8300  -10.4210   -8.7400 C.ar   33  TYR33       0.0417
     88  CE2      -18.1410   -8.9860  -10.6490 C.ar   33  TYR33       0.0417
     89  CZ       -18.6060   -9.9940   -9.7970 C.ar   33  TYR33       0.1957
     90  OH       -19.7900  -10.6040  -10.0600 O.3    33  TYR33      -0.2866
     91  N        -15.0750   -7.5420   -6.0690 N.am   34  PHE34      -0.1960
     92  CA       -15.7740   -7.5690   -4.7590 C.3    34  PHE34       0.1771
     93  C        -16.2140   -6.1480   -4.3270 C.2    34  PHE34       0.2619
     94  O        -17.3780   -5.9210   -3.8950 O.2    34  PHE34      -0.2715
     95  CB       -14.8630   -8.2190   -3.7270 C.3    34  PHE34       0.0574
     96  CG       -15.3390   -8.0370   -2.2840 C.ar   34  PHE34      -0.0200
     97  CD1      -16.2330   -8.9660   -1.7420 C.ar   34  PHE34      -0.0042
     98  CD2      -14.9900   -6.8890   -1.5430 C.ar   34  PHE34      -0.0042
     99  CE1      -16.7070   -8.8260   -0.4630 C.ar   34  PHE34      -0.0003
    100  CE2      -15.4880   -6.7180   -0.2730 C.ar   34  PHE34      -0.0003
    101  CZ       -16.3320   -7.7160    0.3000 C.ar   34  PHE34      -0.0000
    102  N        -15.2800   -5.2100   -4.4540 N.am   35  LYS35      -0.1977
    103  CA       -15.5600   -3.8380   -3.9420 C.3    35  LYS35       0.1596
    104  C        -16.6670   -3.2210   -4.7530 C.2    35  LYS35       0.2287
    105  O        -17.5910   -2.6510   -4.1710 O.2    35  LYS35      -0.2864
    106  CB       -14.2800   -3.0440   -4.0460 C.3    35  LYS35       0.0298
    107  CG       -14.5000   -1.5620   -3.7000 C.3    35  LYS35       0.0038
    108  CD       -13.0890   -0.8480   -3.8010 C.3    35  LYS35       0.0206
    109  CE       -13.1190    0.5950   -3.3010 C.3    35  LYS35       0.1093
    110  NZ       -11.6920    1.0480   -3.5700 N.3    35  LYS35      -0.1314
    111  N        -13.9780  -13.4580    9.4970 N.3    56  THR56      -0.1218
    112  CA       -13.8730  -12.7370    8.2410 C.3    56  THR56       0.1862
    113  C        -13.5490  -11.2460    8.4560 C.2    56  THR56       0.2287
    114  O        -12.7060  -10.6940    7.7450 O.2    56  THR56      -0.2866
    115  CB       -15.1920  -12.9500    7.4420 C.3    56  THR56       0.1770
    116  OG1      -15.2290  -14.3740    7.0720 O.3    56  THR56      -0.2211
    117  CG2      -15.1310  -12.1490    6.1510 C.3    56  THR56       0.0375
    118  N        -10.0070  -10.9470    9.0890 N.3    59  SER59      -0.1202
    119  CA        -9.2340  -11.3250    7.8920 C.3    59  SER59       0.2020
    120  C         -9.0260  -10.2240    6.8780 C.2    59  SER59       0.2619
    121  O         -8.1670  -10.3750    5.9440 O.2    59  SER59      -0.2717
    122  CB        -9.8480  -12.5720    7.2400 C.3    59  SER59       0.2103
    123  OG       -10.9680  -12.2100    6.3810 O.3    59  SER59      -0.2182
    124  N         -9.8340   -9.1540    6.9880 N.am   60  ILE60      -0.1966
    125  CA        -9.6690   -7.9980    6.0990 C.3    60  ILE60       0.1712
    126  C         -8.5560   -7.1020    6.6120 C.2    60  ILE60       0.2458
    127  O         -8.5560   -6.8190    7.7710 O.2    60  ILE60      -0.2730
    128  CB       -11.0300   -7.2210    6.0190 C.3    60  ILE60       0.0289
    129  CG1      -12.1330   -8.1060    5.4580 C.3    60  ILE60       0.0022
    130  CG2      -10.8480   -5.9540    5.0880 C.3    60  ILE60       0.0023
    131  CD1      -13.5530   -7.5750    5.6180 C.3    60  ILE60       0.0001
    132  N         -7.5930   -6.7350    5.7410 N.am   61  PRO61      -0.2727
    133  CA        -6.4840   -5.9070    6.2030 C.3    61  PRO61       0.1402
    134  C         -7.0670   -4.7430    6.9660 C.2    61  PRO61       0.2269
    135  O         -8.0040   -4.0870    6.4690 O.2    61  PRO61      -0.2865
    136  CB        -5.8720   -5.4160    4.8730 C.3    61  PRO61       0.0296
    137  CG        -6.0840   -6.6400    3.9060 C.3    61  PRO61       0.0237
    138  CD        -7.4670   -7.1680    4.3350 C.3    61  PRO61       0.0939
    139  N         -8.1430   -1.4850    5.4080 N.3    64  ASN64      -0.1240
    140  CA        -9.2890   -1.5210    4.5180 C.3    64  ASN64       0.1653
    141  C        -10.5710   -1.7140    5.3240 C.2    64  ASN64       0.2266
    142  O        -11.6760   -1.9180    4.7310 O.2    64  ASN64      -0.2867
    143  CB        -9.1640   -2.6500    3.4830 C.3    64  ASN64       0.1155
    144  CG        -8.1440   -2.3260    2.3950 C.2    64  ASN64       0.2627
    145  OD1       -7.6600   -1.1530    2.2190 O.2    64  ASN64      -0.2716
    146  ND2       -7.8200   -3.3340    1.6220 N.am   64  ASN64      -0.0877
    147  N        -15.0470   -1.6780    5.5420 N.3    67  LEU67      -0.1231
    148  CA       -15.1530   -1.6550    4.0230 C.3    67  LEU67       0.1693
    149  C        -15.7800   -0.3020    3.6580 C.2    67  LEU67       0.2591
    150  O        -16.9010   -0.0270    4.0780 O.2    67  LEU67      -0.2718
    151  CB       -15.9940   -2.8690    3.5360 C.3    67  LEU67       0.0284
    152  CG       -15.1920   -4.1500    3.8220 C.3    67  LEU67       0.0019
    153  CD1      -16.0640   -5.2890    3.4000 C.3    67  LEU67       0.0001
    154  CD2      -13.9330   -4.2740    2.9730 C.3    67  LEU67       0.0001
    155  N        -15.0240    0.5490    2.9690 N.am   68  LYS68      -0.1980
    156  CA       -15.4650    1.9330    2.8570 C.3    68  LYS68       0.1596
    157  C        -16.7230    2.0660    1.9930 C.2    68  LYS68       0.2287
    158  O        -16.9340    1.3330    1.0110 O.2    68  LYS68      -0.2864
    159  CB       -14.3880    2.8330    2.3010 C.3    68  LYS68       0.0298
    160  CG       -13.9120    2.5060    0.9380 C.3    68  LYS68       0.0038
    161  CD       -12.7730    3.5020    0.4940 C.3    68  LYS68       0.0206
    162  CE       -12.4710    3.4140   -1.0260 C.3    68  LYS68       0.1093
    163  NZ       -11.6390    4.5890   -1.5580 N.3    68  LYS68      -0.1314
    164  N        -19.7210    1.2690    2.6700 N.3    70  ARG70      -0.1245
    165  CA       -20.6950    0.2420    3.0620 C.3    70  ARG70       0.1563
    166  C        -20.8880    0.2380    4.5720 C.2    70  ARG70       0.2260
    167  O        -19.9360    0.6160    5.3210 O.2    70  ARG70      -0.2867
    168  CB       -20.1180   -1.1110    2.6310 C.3    70  ARG70       0.0307
    169  CG       -20.1930   -1.3320    1.0990 C.3    70  ARG70       0.0489
    170  CD       -19.0120   -2.1890    0.5860 C.3    70  ARG70       0.2205
    171  NE       -17.7370   -1.4400    0.5920 N.pl3  70  ARG70      -0.0865
    172  CZ       -16.5750   -1.9170    0.1700 C.cat  70  ARG70       0.5346
    173  NH1      -16.4680   -3.1840   -0.2830 N.pl3  70  ARG70       0.1354
    174  NH2      -15.4970   -1.0890    0.1950 N.pl3  70  ARG70       0.1354
    175  N        -20.9180  -11.7460    3.2540 N.3   115  VAL115     -0.1245
    176  CA       -19.5640  -11.9850    2.7620 C.3   115  VAL115      0.1561
    177  C        -18.8300  -13.0380    3.5700 C.2   115  VAL115      0.2260
    178  O        -17.6120  -13.1230    3.4720 O.2   115  VAL115     -0.2867
    179  CB       -18.7450  -10.6340    2.6270 C.3   115  VAL115      0.0252
    180  CG1      -19.5260   -9.5860    1.8000 C.3   115  VAL115      0.0019
    181  CG2      -18.4150  -10.0480    4.0350 C.3   115  VAL115      0.0019
    182  N        -22.6270  -18.2710    5.2540 N.3   121  TYR121     -0.1241
    183  CA       -23.0510  -18.6630    3.8630 C.3   121  TYR121      0.1605
    184  C        -24.0270  -19.8030    3.9190 C.2   121  TYR121      0.2264
    185  O        -25.0710  -19.7340    3.2180 O.2   121  TYR121     -0.2867
    186  CB       -21.8450  -19.1080    3.0700 C.3   121  TYR121      0.0534
    187  CG       -20.8900  -18.0460    2.6060 C.ar  121  TYR121     -0.0201
    188  CD1      -19.4880  -18.2550    2.6600 C.ar  121  TYR121     -0.0009
    189  CD2      -21.3320  -16.8570    1.9940 C.ar  121  TYR121     -0.0009
    190  CE1      -18.6080  -17.2910    2.1880 C.ar  121  TYR121      0.0417
    191  CE2      -20.4470  -15.8790    1.4810 C.ar  121  TYR121      0.0417
    192  CZ       -19.0850  -16.1230    1.5830 C.ar  121  TYR121      0.1957
    193  OH       -18.1450  -15.2480    1.0600 O.3   121  TYR121     -0.2866
    194  N        -17.2490  -16.2420   -7.6620 N.3   136  THR136     -0.1218
    195  CA       -16.1220  -16.2150   -8.5580 C.3   136  THR136      0.1862
    196  C        -15.5120  -17.6190   -8.4670 C.2   136  THR136      0.2287
    197  O        -15.1070  -18.0820   -7.3800 O.2   136  THR136     -0.2866
    198  CB       -15.1010  -15.1940   -8.0980 C.3   136  THR136      0.1770
    199  OG1      -15.7120  -13.9000   -8.1640 O.3   136  THR136     -0.2211
    200  CG2      -13.8300  -15.2480   -9.0660 C.3   136  THR136      0.0375
@<TRIPOS>BOND
     1    88    86   ar
     2    88    89   ar
     3    86    84   ar
     4    78    76    1
     5    90    89    1
     6    89    87   ar
     7    84    83    1
     8    84    85   ar
     9    76    77    1
    10    76    75    2
    11    83    80    1
    12   200   198    1
    13    74    75    1
    14    74    73    1
    15    47    45    1
    16    48    49    1
    17    87    85   ar
    18   195   196    1
    19   195   198    1
    20   195   194    1
    21   196   197    2
    22    80    79    1
    23    80    81    1
    24    72    73    1
    25    72    69    1
    26    49    52    1
    27    49    50    1
    28    39    40    2
    29    39    38    1
    30   199   198    1
    31    53    52    1
    32    53    54    1
    33    79    70   am
    34    41    38    1
    35    41    42    1
    36    45    46    1
    37    45    44    2
    38    43    44    1
    39    43    42    1
    40    37    38    1
    41    70    71    2
    42    70    69    1
    43    69    68    1
    44    81    82    2
    45    81    91   am
    46    55    54   ar
    47    50    51    2
    48    50    57   am
    49    54    56   ar
    50    68    59   am
    51    57    58    1
    52    91    92    1
    53    59    58    1
    54    59    60    2
    55    58    61    1
    56    12    11    2
    57    92    93    1
    58    92    95    1
    59   104   105    2
    60   104   103    1
    61    20    17    1
    62     8     6    1
    63   102    93   am
    64   102   103    1
    65    17    18    1
    66    17    16    1
    67    61    62    1
    68    93    94    2
    69   106   103    1
    70   106   107    1
    71     6     5    1
    72    18    19    2
    73   108   107    1
    74   108   109    1
    75    95    96    1
    76    11    16   am
    77    11    10    1
    78   110   109    1
    79    62    64   ar
    80    62    63   ar
    81    64    66   ar
    82    14    13    1
    83     5     2    1
    84     5     7    1
    85     9    10    1
    86     9     3   am
    87    63    65   ar
    88     2     3    1
    89     2     1    1
    90    10    13    1
    91    66    67   ar
    92    96    97   ar
    93    96    98   ar
    94     3     4    2
    95    13    15    1
    96    97    99   ar
    97    65    67   ar
    98   163   162    1
    99    98   100   ar
   100    35    34    1
   101   162   161    1
   102    99   101   ar
   103   173   172    1
   104   100   101   ar
   105    33    34    1
   106    33    30    1
   107    34    36    1
   108   172   174    1
   109   172   171    2
   110   161   160    1
   111   170   171    1
   112   170   169    1
   113    31    32    2
   114    31    30    1
   115   160   159    1
   116   158   157    2
   117    30    29    1
   118   193   192    1
   119   169   168    1
   120   191   192   ar
   121   191   189   ar
   122   192   190   ar
   123   146   144   am
   124   180   179    1
   125   157   156    1
   126   189   187   ar
   127   190   188   ar
   128   145   144    2
   129    29    23   am
   130   159   156    1
   131   144   143    1
   132   187   188   ar
   133   187   186    1
   134   179   176    1
   135   179   181    1
   136   168   165    1
   137   164   165    1
   138    27    26   ar
   139   176   175    1
   140   176   177    1
   141   156   155    1
   142   155   149   am
   143   154   152    1
   144   165   166    1
   145   186   183    1
   146   185   184    2
   147   153   152    1
   148    23    24    2
   149    23    22    1
   150   178   177    2
   151   143   140    1
   152   151   152    1
   153   151   148    1
   154    26    28   ar
   155    26    25    1
   156   149   148    1
   157   149   150    2
   158   183   184    1
   159   183   182    1
   160   137   138    1
   161   137   136    1
   162   148   147    1
   163   138   132    1
   164    25    22    1
   165   140   141    1
   166   140   139    1
   167   166   167    2
   168    22    21    1
   169   142   141    2
   170   136   133    1
   171   130   128    1
   172   129   131    1
   173   129   128    1
   174   132   133    1
   175   132   126   am
   176   121   120    2
   177   128   125    1
   178   125   126    1
   179   125   124    1
   180   117   115    1
   181   133   134    1
   182   123   122    1
   183   135   134    2
   184   126   127    2
   185   120   124   am
   186   120   119    1
   187   116   115    1
   188   122   119    1
   189   115   112    1
   190   114   113    2
   191   119   118    1
   192   112   113    1
   193   112   111    1
