@<TRIPOS>MOLECULE
tmp/3gi4A00.pdb
 123 116 0 0 0
SMALL
GASTEIGER

@<TRIPOS>ATOM
      1  N         20.8680   33.9670   28.0910 N.3     8  ARG8       -0.1245
      2  CA        21.5730   33.3290   26.9810 C.3     8  ARG8        0.1563
      3  C         22.6870   32.4500   27.5280 C.2     8  ARG8        0.2260
      4  O         23.4370   32.8940   28.4050 O.2     8  ARG8       -0.2867
      5  CB        22.2040   34.3660   26.0610 C.3     8  ARG8        0.0307
      6  CG        21.2330   35.1200   25.2080 C.3     8  ARG8        0.0489
      7  CD        21.9700   36.2010   24.4720 C.3     8  ARG8        0.2205
      8  NE        21.0970   37.2730   23.9980 N.pl3   8  ARG8       -0.0865
      9  CZ        20.9710   37.6730   22.7300 C.cat   8  ARG8        0.5346
     10  NH1       21.6340   37.0660   21.7340 N.pl3   8  ARG8        0.1354
     11  NH2       20.1520   38.6810   22.4490 N.pl3   8  ARG8        0.1354
     12  N         27.8970   31.3370   22.1440 N.3    23  LEU23      -0.1245
     13  CA        26.5650   30.9210   22.4980 C.3    23  LEU23       0.1561
     14  C         26.4020   29.4360   22.2210 C.2    23  LEU23       0.2260
     15  O         26.6090   28.9790   21.0880 O.2    23  LEU23      -0.2867
     16  CB        25.5610   31.7210   21.6650 C.3    23  LEU23       0.0270
     17  CG        24.0700   31.5270   21.9150 C.3    23  LEU23       0.0019
     18  CD1       23.6580   32.1610   23.2080 C.3    23  LEU23       0.0001
     19  CD2       23.2760   32.1110   20.7330 C.3    23  LEU23       0.0001
     20  N         24.3590   26.7040   21.1470 N.3    25  ASP25      -0.1239
     21  CA        23.2740   26.8510   20.1980 C.3    25  ASP25       0.1674
     22  C         22.8020   25.4840   19.6520 C.2    25  ASP25       0.2266
     23  O         23.2700   24.9980   18.6230 O.2    25  ASP25      -0.2867
     24  CB        23.7610   27.7720   19.0750 C.3    25  ASP25       0.1410
     25  CG        22.6420   28.2260   18.1630 C.2    25  ASP25       0.3668
     26  OD1       21.5230   27.6620   18.2570 O.co2  25  ASP25      -0.2456
     27  OD2       22.8960   29.1460   17.3590 O.co2  25  ASP25      -0.2456
     28  N         20.1090   24.7600   18.1880 N.3    27  GLY27      -0.1210
     29  CA        19.4980   24.9450   16.8620 C.3    27  GLY27       0.1956
     30  C         20.4630   25.1190   15.6880 C.2    27  GLY27       0.2612
     31  O         20.0280   25.3270   14.5530 O.2    27  GLY27      -0.2717
     32  N         21.7640   25.0560   15.9610 N.am   28  ALA28      -0.1965
     33  CA        22.7920   25.2270   14.9400 C.3    28  ALA28       0.1728
     34  C         23.4780   23.8880   14.6860 C.2    28  ALA28       0.2616
     35  O         24.0370   23.2990   15.6050 O.2    28  ALA28      -0.2715
     36  CB        23.8050   26.2720   15.3770 C.3    28  ALA28       0.0334
     37  N         23.4160   23.4030   13.4450 N.am   29  ASP29      -0.1957
     38  CA        24.1340   22.1770   13.0670 C.3    29  ASP29       0.1840
     39  C         25.6390   22.3770   13.2630 C.2    29  ASP29       0.2622
     40  O         26.3460   21.4660   13.6980 O.2    29  ASP29      -0.2715
     41  CB        23.9500   21.8460   11.5800 C.3    29  ASP29       0.1450
     42  CG        22.5320   21.4580   11.2040 C.2    29  ASP29       0.3671
     43  OD1       21.6660   21.2530   12.0840 O.co2  29  ASP29      -0.2456
     44  OD2       22.3010   21.3500    9.9800 O.co2  29  ASP29      -0.2456
     45  N         26.1040   23.5730   12.9060 N.am   30  ASP30      -0.1971
     46  CA        27.5270   23.8810   12.7770 C.3    30  ASP30       0.1709
     47  C         27.9720   25.0290   13.6780 C.2    30  ASP30       0.2293
     48  O         27.2210   25.9870   13.9110 O.2    30  ASP30      -0.2864
     49  CB        27.8500   24.2800   11.3290 C.3    30  ASP30       0.1436
     50  CG        27.4600   23.2270   10.3180 C.2    30  ASP30       0.3671
     51  OD1       27.7680   22.0450   10.5460 O.co2  30  ASP30      -0.2456
     52  OD2       26.8680   23.5890    9.2650 O.co2  30  ASP30      -0.2456
     53  N         29.9670   28.3020   14.1890 N.3    32  VAL32      -0.1245
     54  CA        30.2890   29.4340   13.3360 C.3    32  VAL32       0.1561
     55  C         30.7890   30.5640   14.2290 C.2    32  VAL32       0.2260
     56  O         30.0900   30.9890   15.1620 O.2    32  VAL32      -0.2867
     57  CB        29.0670   29.9230   12.5260 C.3    32  VAL32       0.0252
     58  CG1       29.5320   30.8640   11.4030 C.3    32  VAL32       0.0019
     59  CG2       28.2910   28.7420   11.9350 C.3    32  VAL32       0.0019
     60  N         26.7800   28.7660    3.8200 N.3    47  ILE47      -0.1231
     61  CA        25.7930   28.2170    4.7510 C.3    47  ILE47       0.1692
     62  C         24.5670   29.1170    4.8480 C.2    47  ILE47       0.2593
     63  O         24.6520   30.3170    4.5860 O.2    47  ILE47      -0.2718
     64  CB        26.3850   27.9490    6.1530 C.3    47  ILE47       0.0266
     65  CG1       26.8460   29.2360    6.8560 C.3    47  ILE47       0.0019
     66  CG2       27.5480   26.9660    6.0510 C.3    47  ILE47       0.0020
     67  CD1       27.2080   29.0280    8.3110 C.3    47  ILE47       0.0001
     68  N         23.4390   28.5170    5.2320 N.am   48  GLY48      -0.1942
     69  CA        22.1690   29.2290    5.3330 C.3    48  GLY48       0.2014
     70  C         21.8160   29.5220    6.7780 C.2    48  GLY48       0.2639
     71  O         22.3610   28.9160    7.6940 O.2    48  GLY48      -0.2714
     72  N         20.9040   30.4610    6.9610 N.am   49  GLY49      -0.1939
     73  CA        20.4230   30.8740    8.2690 C.3    49  GLY49       0.2014
     74  C         19.0420   31.4770    8.0890 C.2    49  GLY49       0.2638
     75  O         18.4710   31.4190    6.9890 O.2    49  GLY49      -0.2714
     76  N         18.5150   32.0760    9.1510 N.am   50  ILE50      -0.1977
     77  CA        17.1520   32.5870    9.1270 C.3    50  ILE50       0.1596
     78  C         16.9890   33.7260    8.1160 C.2    50  ILE50       0.2287
     79  O         15.8940   33.9490    7.5830 O.2    50  ILE50      -0.2864
     80  CB        16.6840   33.0270   10.5390 C.3    50  ILE50       0.0276
     81  CG1       15.1620   32.9100   10.6370 C.3    50  ILE50       0.0022
     82  CG2       17.1880   34.4190   10.8840 C.3    50  ILE50       0.0022
     83  CD1       14.6290   33.1180   12.0390 C.3    50  ILE50       0.0001
     84  N         21.7130   33.3000    3.0420 N.3    53  PHE53      -0.1241
     85  CA        22.9430   32.5320    2.9720 C.3    53  PHE53       0.1605
     86  C         24.1600   33.4390    3.0410 C.2    53  PHE53       0.2264
     87  O         24.1270   34.5690    2.5640 O.2    53  PHE53      -0.2867
     88  CB        22.9630   31.6920    1.6940 C.3    53  PHE53       0.0534
     89  CG        22.1870   30.4100    1.8200 C.ar   53  PHE53      -0.0203
     90  CD1       20.8100   30.4360    1.9940 C.ar   53  PHE53      -0.0042
     91  CD2       22.8400   29.1850    1.8220 C.ar   53  PHE53      -0.0042
     92  CE1       20.1010   29.2570    2.1350 C.ar   53  PHE53      -0.0003
     93  CE2       22.1290   28.0080    1.9540 C.ar   53  PHE53      -0.0003
     94  CZ        20.7690   28.0450    2.1150 C.ar   53  PHE53      -0.0000
     95  N         28.5700   35.6060   10.9680 N.3    80  THR80      -0.1204
     96  CA        27.5360   35.2590   11.9330 C.3    80  THR80       0.1979
     97  C         27.3120   36.4450   12.8760 C.2    80  THR80       0.2460
     98  O         28.2700   37.1240   13.2490 O.2    80  THR80      -0.2732
     99  CB        27.9250   33.9830   12.7350 C.3    80  THR80       0.1783
    100  OG1       26.9530   33.7280   13.7500 O.3    80  THR80      -0.2211
    101  CG2       29.3050   34.1100   13.3720 C.3    80  THR80       0.0376
    102  N         26.0580   36.6780   13.2980 N.am   81  PRO81      -0.2717
    103  CA        25.7990   37.7790   14.2350 C.3    81  PRO81       0.1535
    104  C         26.4770   37.6230   15.6010 C.2    81  PRO81       0.2598
    105  O         26.7510   38.6170   16.2730 O.2    81  PRO81      -0.2715
    106  CB        24.2710   37.7660   14.3850 C.3    81  PRO81       0.0310
    107  CG        23.8630   36.3800   14.0260 C.3    81  PRO81       0.0237
    108  CD        24.8220   35.9400   12.9670 C.3    81  PRO81       0.0939
    109  N         26.7380   36.3840   16.0060 N.am   82  VAL82      -0.1978
    110  CA        27.4460   36.1090   17.2550 C.3    82  VAL82       0.1596
    111  C         28.1620   34.7760   17.1300 C.2    82  VAL82       0.2287
    112  O         27.7700   33.9260   16.3180 O.2    82  VAL82      -0.2864
    113  CB        26.5120   36.0670   18.4920 C.3    82  VAL82       0.0276
    114  CG1       25.8610   37.4260   18.7590 C.3    82  VAL82       0.0022
    115  CG2       25.4600   34.9860   18.3620 C.3    82  VAL82       0.0022
    116  N         28.7660   31.1450   17.6900 N.3    84  ILE84      -0.1245
    117  CA        27.8710   30.0720   18.0730 C.3    84  ILE84       0.1561
    118  C         28.5920   28.7330   18.0830 C.2    84  ILE84       0.2260
    119  O         29.3630   28.4150   17.1700 O.2    84  ILE84      -0.2867
    120  CB        26.5840   29.9840   17.1880 C.3    84  ILE84       0.0252
    121  CG1       26.8880   29.5890   15.7340 C.3    84  ILE84       0.0019
    122  CG2       25.8070   31.2700   17.2500 C.3    84  ILE84       0.0019
    123  CD1       25.6410   29.5420   14.8560 C.3    84  ILE84       0.0001
@<TRIPOS>BOND
     1    88    89    1
     2    88    85    1
     3    89    91   ar
     4    89    90   ar
     5    91    93   ar
     6    93    94   ar
     7    90    92   ar
     8    94    92   ar
     9    87    86    2
    10    85    86    1
    11    85    84    1
    12    60    61    1
    13    63    62    2
    14    61    62    1
    15    61    64    1
    16    62    68   am
    17    68    69    1
    18    69    70    1
    19    66    64    1
    20    64    65    1
    21    70    72   am
    22    70    71    2
    23    65    67    1
    24    72    73    1
    25    75    74    2
    26    79    78    2
    27    74    73    1
    28    74    76   am
    29    78    77    1
    30    77    76    1
    31    77    80    1
    32    52    50   ar
    33    44    42   ar
    34    50    51   ar
    35    50    49    1
    36    80    81    1
    37    80    82    1
    38    81    83    1
    39    95    96    1
    40    42    41    1
    41    42    43   ar
    42    49    46    1
    43    58    57    1
    44    41    38    1
    45    96    99    1
    46    96    97    1
    47    59    57    1
    48    57    54    1
    49    99   101    1
    50    99   100    1
    51    46    45    1
    52    46    47    1
    53    97    98    2
    54    97   102   am
    55    45    39   am
    56   108   102    1
    57   108   107    1
    58    38    39    1
    59    38    37    1
    60    39    40    2
    61   102   103    1
    62    54    53    1
    63    54    55    1
    64    37    34   am
    65    47    48    2
    66   107   106    1
    67    55    56    2
    68   103   106    1
    69   103   104    1
    70    31    30    2
    71    34    33    1
    72    34    35    2
    73   123   121    1
    74    33    36    1
    75    33    32    1
    76   104   109   am
    77   104   105    2
    78    30    32   am
    79    30    29    1
    80   121   120    1
    81   109   110    1
    82   112   111    2
    83    29    28    1
    84   111   110    1
    85   119   118    2
    86   120   122    1
    87   120   117    1
    88   110   113    1
    89    27    25   ar
    90   116   117    1
    91   117   118    1
    92    25    26   ar
    93    25    24    1
    94   115   113    1
    95   113   114    1
    96    23    22    2
    97    24    21    1
    98    22    21    1
    99    21    20    1
   100    19    17    1
   101    15    14    2
   102    16    17    1
   103    16    13    1
   104    10     9    1
   105    17    18    1
   106    12    13    1
   107    14    13    1
   108    11     9    1
   109     9     8    2
   110     8     7    1
   111     7     6    1
   112     6     5    1
   113     5     2    1
   114     2     3    1
   115     2     1    1
   116     3     4    2
