@<TRIPOS>MOLECULE
tmp/3gi5B00.pdb
 121 113 0 0 0
SMALL
GASTEIGER

@<TRIPOS>ATOM
      1  N         19.2810   16.9550   14.8430 N.3     8  ARG8       -0.1245
      2  CA        18.6160   18.1860   15.2520 C.3     8  ARG8        0.1563
      3  C         17.5800   17.8510   16.3240 C.2     8  ARG8        0.2260
      4  O         16.9030   16.8390   16.2210 O.2     8  ARG8       -0.2867
      5  CB        17.9430   18.8710   14.0760 C.3     8  ARG8        0.0307
      6  CG        18.9180   19.3410   13.0150 C.3     8  ARG8        0.0489
      7  CD        18.1980   19.7470   11.7600 C.3     8  ARG8        0.2205
      8  NE        19.1020   20.4070   10.8110 N.pl3   8  ARG8       -0.0865
      9  CZ        18.9920   20.3440    9.4840 C.cat   8  ARG8        0.5346
     10  NH1       18.0000   19.6740    8.9020 N.pl3   8  ARG8        0.1354
     11  NH2       19.8740   20.9750    8.7180 N.pl3   8  ARG8        0.1354
     12  N         12.3750   22.9730   16.4860 N.3    23  LEU23      -0.1245
     13  CA        13.6850   22.8550   17.1230 C.3    23  LEU23       0.1561
     14  C         13.6270   23.3720   18.5380 C.2    23  LEU23       0.2260
     15  O         13.1740   24.4910   18.7610 O.2    23  LEU23      -0.2867
     16  CB        14.7300   23.6960   16.4010 C.3    23  LEU23       0.0270
     17  CG        15.2420   23.2490   15.0490 C.3    23  LEU23       0.0019
     18  CD1       16.1230   24.3350   14.4210 C.3    23  LEU23       0.0001
     19  CD2       16.0040   21.9540   15.2040 C.3    23  LEU23       0.0001
     20  N         15.6450   25.1880   20.7080 N.3    25  ASP25      -0.1239
     21  CA        16.7760   26.0090   20.2940 C.3    25  ASP25       0.1674
     22  C         17.2740   26.9630   21.3920 C.2    25  ASP25       0.2266
     23  O         16.7140   28.0520   21.6070 O.2    25  ASP25      -0.2867
     24  CB        16.3940   26.8070   19.0420 C.3    25  ASP25       0.1410
     25  CG        17.5890   27.4630   18.3790 C.2    25  ASP25       0.3668
     26  OD1       17.3990   28.0350   17.2970 O.co2  25  ASP25      -0.2456
     27  OD2       18.7230   27.3820   18.9280 O.co2  25  ASP25      -0.2456
     28  N         19.8730   28.7090   21.2800 N.3    27  GLY27      -0.1210
     29  CA        20.4320   29.9090   20.6620 C.3    27  GLY27       0.1956
     30  C         19.4040   30.9480   20.2390 C.2    27  GLY27       0.2612
     31  O         19.7690   31.9800   19.6880 O.2    27  GLY27      -0.2717
     32  N         18.1260   30.6610   20.4860 N.am   28  ALA28      -0.1965
     33  CA        17.0170   31.5340   20.0990 C.3    28  ALA28       0.1728
     34  C         16.4320   32.2020   21.3400 C.2    28  ALA28       0.2616
     35  O         15.8900   31.5230   22.2000 O.2    28  ALA28      -0.2715
     36  CB        15.9410   30.7160   19.3880 C.3    28  ALA28       0.0334
     37  N         16.5280   33.5320   21.4350 N.am   29  ASP29      -0.1957
     38  CA        15.8950   34.2520   22.5610 C.3    29  ASP29       0.1840
     39  C         14.3810   34.0340   22.5730 C.2    29  ASP29       0.2622
     40  O         13.7690   33.8330   23.6290 O.2    29  ASP29      -0.2715
     41  CB        16.1280   35.7600   22.4740 C.3    29  ASP29       0.1450
     42  CG        17.5800   36.1460   22.5060 C.2    29  ASP29       0.3671
     43  OD1       18.4210   35.3730   23.0100 O.co2  29  ASP29      -0.2456
     44  OD2       17.8710   37.2640   22.0350 O.co2  29  ASP29      -0.2456
     45  N         13.8120   34.0820   21.3720 N.am   30  ASP30      -0.1971
     46  CA        12.3890   34.1210   21.1380 C.3    30  ASP30       0.1709
     47  C         11.9700   32.9220   20.3100 C.2    30  ASP30       0.2293
     48  O         12.7940   32.2940   19.6400 O.2    30  ASP30      -0.2864
     49  CB        12.0290   35.3740   20.3360 C.3    30  ASP30       0.1436
     50  CG        12.5350   36.6520   20.9730 C.2    30  ASP30       0.3671
     51  OD1       12.4190   36.7940   22.2080 O.co2  30  ASP30      -0.2456
     52  OD2       13.0180   37.5300   20.2220 O.co2  30  ASP30      -0.2456
     53  N         10.0570   31.4090   17.1980 N.3    32  VAL32      -0.1245
     54  CA         9.7710   31.8380   15.8290 C.3    32  VAL32       0.1561
     55  C          9.1230   30.6830   15.0790 C.2    32  VAL32       0.2260
     56  O          9.7230   29.6260   14.9170 O.2    32  VAL32      -0.2867
     57  CB        11.0370   32.2820   15.0600 C.3    32  VAL32       0.0252
     58  CG1       10.6420   32.9910   13.7560 C.3    32  VAL32       0.0019
     59  CG2       11.9050   33.2030   15.9150 C.3    32  VAL32       0.0019
     60  N          7.8500   43.2000   13.9800 N.3    45  LYS45      -0.1245
     61  CA         9.1730   43.1740   14.5740 C.3    45  LYS45       0.1561
     62  C         10.1570   42.6330   13.5420 C.2    45  LYS45       0.2260
     63  O          9.7600   41.9300   12.6200 O.2    45  LYS45      -0.2867
     64  CB         9.1410   42.2610   15.8100 C.3    45  LYS45       0.0271
     65  CG        10.4320   42.1570   16.5750 C.3    45  LYS45       0.0035
     66  CD        10.2410   41.4280   17.8990 C.3    45  LYS45       0.0206
     67  CE        11.5630   41.3560   18.6610 C.3    45  LYS45       0.1093
     68  NZ        11.3820   41.2520   20.1290 N.3    45  LYS45      -0.1314
     69  N         13.7870   40.4130   13.4080 N.3    47  ILE47      -0.1231
     70  CA        14.7520   39.6060   14.1500 C.3    47  ILE47       0.1692
     71  C         15.8930   39.2230   13.2290 C.2    47  ILE47       0.2593
     72  O         15.6880   38.9810   12.0340 O.2    47  ILE47      -0.2718
     73  CB        14.1350   38.3460   14.8060 C.3    47  ILE47       0.0266
     74  CG1       13.5420   37.3970   13.7680 C.3    47  ILE47       0.0019
     75  CG2       13.0950   38.7440   15.8570 C.3    47  ILE47       0.0020
     76  CD1       13.0990   36.0710   14.3620 C.3    47  ILE47       0.0001
     77  N         17.0890   39.1830   13.8080 N.am   48  GLY48      -0.1942
     78  CA        18.3120   38.9820   13.0570 C.3    48  GLY48       0.2014
     79  C         18.9880   37.6580   13.3590 C.2    48  GLY48       0.2639
     80  O         18.9770   37.1710   14.4900 O.2    48  GLY48      -0.2714
     81  N         19.5880   37.0800   12.3310 N.am   49  GLY49      -0.1939
     82  CA        20.4010   35.8850   12.4810 C.3    49  GLY49       0.2014
     83  C         21.4430   35.8250   11.3820 C.2    49  GLY49       0.2638
     84  O         21.8080   36.8520   10.8020 O.2    49  GLY49      -0.2714
     85  N         21.8960   34.6170   11.0750 N.am   50  ILE50      -0.1977
     86  CA        22.7920   34.3930    9.9480 C.3    50  ILE50       0.1596
     87  C         22.0710   34.8090    8.6550 C.2    50  ILE50       0.2287
     88  O         20.9250   34.4240    8.4250 O.2    50  ILE50      -0.2864
     89  CB        23.2780   32.9240    9.8900 C.3    50  ILE50       0.0276
     90  CG1       24.2430   32.6360   11.0520 C.3    50  ILE50       0.0022
     91  CG2       23.9710   32.6110    8.5460 C.3    50  ILE50       0.0022
     92  CD1       24.5560   31.1720   11.2400 C.3    50  ILE50       0.0001
     93  N         10.3190   31.8380    8.3280 N.3    80  THR80      -0.1204
     94  CA        11.4140   30.9790    8.7480 C.3    80  THR80       0.1979
     95  C         11.2600   29.6090    8.0750 C.2    80  THR80       0.2460
     96  O         10.1370   29.1430    7.8880 O.2    80  THR80      -0.2732
     97  CB        11.4590   30.8180   10.2880 C.3    80  THR80       0.1783
     98  OG1       12.4690   29.8700   10.6420 O.3    80  THR80      -0.2211
     99  CG2       10.1190   30.3530   10.8640 C.3    80  THR80       0.0376
    100  N         12.3840   28.9670    7.6970 N.am   81  PRO81      -0.2717
    101  CA        12.3330   27.6170    7.1320 C.3    81  PRO81       0.1535
    102  C         11.9980   26.5500    8.1600 C.2    81  PRO81       0.2598
    103  O         11.5770   25.4580    7.7940 O.2    81  PRO81      -0.2715
    104  CB        13.7580   27.3930    6.6080 C.3    81  PRO81       0.0310
    105  CG        14.6040   28.2850    7.4100 C.3    81  PRO81       0.0237
    106  CD        13.7630   29.4830    7.7530 C.3    81  PRO81       0.0939
    107  N         12.1880   26.8680    9.4330 N.am   82  VAL82      -0.1978
    108  CA        11.9920   25.9050   10.5050 C.3    82  VAL82       0.1596
    109  C         11.2800   26.5460   11.6840 C.2    82  VAL82       0.2287
    110  O         11.4490   27.7470   11.9560 O.2    82  VAL82      -0.2864
    111  CB        13.3460   25.3090   10.9510 C.3    82  VAL82       0.0276
    112  CG1       14.0100   24.5750    9.7920 C.3    82  VAL82       0.0022
    113  CG2       14.2690   26.3830   11.4900 C.3    82  VAL82       0.0022
    114  N         10.9730   27.2570   15.4980 N.3    84  ILE84      -0.1245
    115  CA        12.0280   27.4380   16.5010 C.3    84  ILE84       0.1561
    116  C         11.3920   27.7100   17.8530 C.2    84  ILE84       0.2260
    117  O         10.7300   28.7380   18.0340 O.2    84  ILE84      -0.2867
    118  CB        12.9460   28.6200   16.1090 C.3    84  ILE84       0.0252
    119  CG1       13.6870   28.2990   14.8090 C.3    84  ILE84       0.0019
    120  CG2       13.9490   28.9600   17.2220 C.3    84  ILE84       0.0019
    121  CD1       14.2980   29.4930   14.1490 C.3    84  ILE84       0.0001
@<TRIPOS>BOND
     1   104   101    1
     2   104   105    1
     3   101   100    1
     4   101   102    1
     5   105   106    1
     6   100   106    1
     7   100    95   am
     8   103   102    2
     9    96    95    2
    10    95    94    1
    11   102   107   am
    12    93    94    1
    13    88    87    2
    14    91    89    1
    15    87    86    1
    16    11     9    1
    17    94    97    1
    18    10     9    1
    19   107   108    1
    20     9     8    2
    21   112   111    1
    22    89    86    1
    23    89    90    1
    24    86    85    1
    25    97    98    1
    26    97    99    1
    27   108   111    1
    28   108   109    1
    29    84    83    2
    30     8     7    1
    31   111   113    1
    32    90    92    1
    33    85    83   am
    34    83    82    1
    35   109   110    2
    36     7     6    1
    37    72    71    2
    38    81    82    1
    39    81    79   am
    40    63    62    2
    41     6     5    1
    42    78    79    1
    43    78    77    1
    44    71    77   am
    45    71    70    1
    46    79    80    2
    47    69    70    1
    48    62    61    1
    49    58    57    1
    50    74    76    1
    51    74    73    1
    52    60    61    1
    53     5     2    1
    54   121   119    1
    55    70    73    1
    56    18    17    1
    57    61    64    1
    58    73    75    1
    59   119   118    1
    60     1     2    1
    61    56    55    2
    62    17    19    1
    63    17    16    1
    64    57    54    1
    65    57    59    1
    66    55    54    1
    67     2     3    1
    68   114   115    1
    69    64    65    1
    70    54    53    1
    71   118   115    1
    72   118   120    1
    73     4     3    2
    74    16    13    1
    75    12    13    1
    76   115   116    1
    77    65    66    1
    78    13    14    1
    79    26    25   ar
    80   116   117    2
    81    66    67    1
    82    25    27   ar
    83    25    24    1
    84    14    15    2
    85    67    68    1
    86    24    21    1
    87    36    33    1
    88    48    47    2
    89    31    30    2
    90    33    32    1
    91    33    34    1
    92    52    50   ar
    93    30    32   am
    94    30    29    1
    95    21    20    1
    96    21    22    1
    97    47    46    1
    98    49    50    1
    99    49    46    1
   100    29    28    1
   101    50    51   ar
   102    46    45    1
   103    34    37   am
   104    34    35    2
   105    45    39   am
   106    22    23    2
   107    37    38    1
   108    44    42   ar
   109    41    42    1
   110    41    38    1
   111    42    43   ar
   112    38    39    1
   113    39    40    2
