@<TRIPOS>MOLECULE
tmp/3gi6A00.pdb
 123 116 0 0 0
SMALL
GASTEIGER

@<TRIPOS>ATOM
      1  N         20.9650   33.9840   28.0790 N.3     8  ARG8       -0.1245
      2  CA        21.6630   33.3270   26.9660 C.3     8  ARG8        0.1563
      3  C         22.7730   32.4340   27.5120 C.2     8  ARG8        0.2260
      4  O         23.5450   32.8730   28.3670 O.2     8  ARG8       -0.2867
      5  CB        22.2880   34.3450   26.0100 C.3     8  ARG8        0.0307
      6  CG        21.2850   35.1510   25.2260 C.3     8  ARG8        0.0489
      7  CD        21.9520   35.9250   24.1130 C.3     8  ARG8        0.2205
      8  NE        21.1430   37.0770   23.7020 N.pl3   8  ARG8       -0.0865
      9  CZ        21.0430   37.5580   22.4590 C.cat   8  ARG8        0.5346
     10  NH1       21.6690   36.9780   21.4250 N.pl3   8  ARG8        0.1354
     11  NH2       20.2750   38.6220   22.2410 N.pl3   8  ARG8        0.1354
     12  N         27.9580   31.2920   22.1250 N.3    23  LEU23      -0.1245
     13  CA        26.6250   30.8690   22.4770 C.3    23  LEU23       0.1561
     14  C         26.4610   29.3750   22.2130 C.2    23  LEU23       0.2260
     15  O         26.6820   28.9050   21.0830 O.2    23  LEU23      -0.2867
     16  CB        25.6190   31.6640   21.6440 C.3    23  LEU23       0.0270
     17  CG        24.1250   31.4740   21.8920 C.3    23  LEU23       0.0019
     18  CD1       23.7050   32.0490   23.2130 C.3    23  LEU23       0.0001
     19  CD2       23.3330   32.1250   20.7390 C.3    23  LEU23       0.0001
     20  N         24.3910   26.6120   21.1770 N.3    25  ASP25      -0.1239
     21  CA        23.3020   26.7890   20.2420 C.3    25  ASP25       0.1674
     22  C         22.8090   25.4440   19.7040 C.2    25  ASP25       0.2266
     23  O         23.2890   24.9460   18.6840 O.2    25  ASP25      -0.2867
     24  CB        23.7900   27.7090   19.1120 C.3    25  ASP25       0.1410
     25  CG        22.6730   28.1440   18.1860 C.2    25  ASP25       0.3668
     26  OD1       21.5400   27.6020   18.3110 O.co2  25  ASP25      -0.2456
     27  OD2       22.9340   29.0330   17.3420 O.co2  25  ASP25      -0.2456
     28  N         20.1110   24.6850   18.2160 N.3    27  GLY27      -0.1210
     29  CA        19.4870   24.8390   16.8990 C.3    27  GLY27       0.1956
     30  C         20.4490   25.0470   15.7370 C.2    27  GLY27       0.2612
     31  O         20.0100   25.2460   14.5990 O.2    27  GLY27      -0.2717
     32  N         21.7530   25.0200   16.0170 N.am   28  ALA28      -0.1965
     33  CA        22.7820   25.1670   14.9920 C.3    28  ALA28       0.1728
     34  C         23.4710   23.8330   14.7340 C.2    28  ALA28       0.2616
     35  O         24.0590   23.2600   15.6470 O.2    28  ALA28      -0.2715
     36  CB        23.8040   26.1920   15.4190 C.3    28  ALA28       0.0334
     37  N         23.4020   23.3500   13.4940 N.am   29  ASP29      -0.1957
     38  CA        24.1210   22.1250   13.1000 C.3    29  ASP29       0.1840
     39  C         25.6290   22.3090   13.2950 C.2    29  ASP29       0.2622
     40  O         26.3340   21.3900   13.7320 O.2    29  ASP29      -0.2715
     41  CB        23.9140   21.8040   11.6120 C.3    29  ASP29       0.1450
     42  CG        22.4950   21.3800   11.2600 C.2    29  ASP29       0.3671
     43  OD1       21.6380   21.1650   12.1520 O.co2  29  ASP29      -0.2456
     44  OD2       22.2500   21.2530   10.0380 O.co2  29  ASP29      -0.2456
     45  N         26.0990   23.4960   12.9280 N.am   30  ASP30      -0.1971
     46  CA        27.5170   23.8050   12.7720 C.3    30  ASP30       0.1709
     47  C         27.9790   24.9280   13.6900 C.2    30  ASP30       0.2293
     48  O         27.2350   25.8880   13.9660 O.2    30  ASP30      -0.2864
     49  CB        27.8020   24.2440   11.3280 C.3    30  ASP30       0.1436
     50  CG        27.4150   23.1950   10.3020 C.2    30  ASP30       0.3671
     51  OD1       27.7500   22.0130   10.5130 O.co2  30  ASP30      -0.2456
     52  OD2       26.7960   23.5650    9.2690 O.co2  30  ASP30      -0.2456
     53  N         29.9720   28.1990   14.1810 N.3    32  VAL32      -0.1245
     54  CA        30.2970   29.3400   13.3250 C.3    32  VAL32       0.1561
     55  C         30.8170   30.4590   14.2070 C.2    32  VAL32       0.2260
     56  O         30.1230   30.8820   15.1390 O.2    32  VAL32      -0.2867
     57  CB        29.0680   29.8400   12.5340 C.3    32  VAL32       0.0252
     58  CG1       29.5140   30.7650   11.3960 C.3    32  VAL32       0.0019
     59  CG2       28.2710   28.6620   11.9580 C.3    32  VAL32       0.0019
     60  N         26.7230   28.6520    3.8470 N.3    47  ILE47      -0.1231
     61  CA        25.7330   28.1010    4.7760 C.3    47  ILE47       0.1692
     62  C         24.5060   29.0040    4.8570 C.2    47  ILE47       0.2593
     63  O         24.6070   30.2000    4.6270 O.2    47  ILE47      -0.2718
     64  CB        26.3060   27.8830    6.1930 C.3    47  ILE47       0.0266
     65  CG1       26.8080   29.1960    6.8170 C.3    47  ILE47       0.0019
     66  CG2       27.4250   26.8570    6.1680 C.3    47  ILE47       0.0020
     67  CD1       27.2090   29.0460    8.2600 C.3    47  ILE47       0.0001
     68  N         23.3640   28.4060    5.1960 N.am   48  GLY48      -0.1942
     69  CA        22.1000   29.1220    5.3080 C.3    48  GLY48       0.2014
     70  C         21.7590   29.4110    6.7520 C.2    48  GLY48       0.2639
     71  O         22.2980   28.7840    7.6630 O.2    48  GLY48      -0.2714
     72  N         20.8760   30.3790    6.9530 N.am   49  GLY49      -0.1939
     73  CA        20.3800   30.7370    8.2680 C.3    49  GLY49       0.2014
     74  C         19.0000   31.3450    8.0980 C.2    49  GLY49       0.2638
     75  O         18.4300   31.3050    7.0040 O.2    49  GLY49      -0.2714
     76  N         18.4820   31.9370    9.1650 N.am   50  ILE50      -0.1977
     77  CA        17.1340   32.4700    9.1430 C.3    50  ILE50       0.1596
     78  C         16.9700   33.6110    8.1170 C.2    50  ILE50       0.2287
     79  O         15.8870   33.8000    7.5560 O.2    50  ILE50      -0.2864
     80  CB        16.6800   32.9180   10.5540 C.3    50  ILE50       0.0276
     81  CG1       15.1530   32.8620   10.6570 C.3    50  ILE50       0.0022
     82  CG2       17.2270   34.2970   10.8980 C.3    50  ILE50       0.0022
     83  CD1       14.6440   33.0050   12.0830 C.3    50  ILE50       0.0001
     84  N         21.6600   33.1820    3.0470 N.3    53  PHE53      -0.1241
     85  CA        22.8920   32.4110    2.9690 C.3    53  PHE53       0.1605
     86  C         24.1130   33.3290    3.0180 C.2    53  PHE53       0.2264
     87  O         24.0570   34.4600    2.5390 O.2    53  PHE53      -0.2867
     88  CB        22.8980   31.5670    1.6880 C.3    53  PHE53       0.0534
     89  CG        22.1280   30.2840    1.8260 C.ar   53  PHE53      -0.0203
     90  CD1       20.7410   30.3060    1.9670 C.ar   53  PHE53      -0.0042
     91  CD2       22.7870   29.0660    1.8830 C.ar   53  PHE53      -0.0042
     92  CE1       20.0320   29.1280    2.1340 C.ar   53  PHE53      -0.0003
     93  CE2       22.0750   27.8850    2.0340 C.ar   53  PHE53      -0.0003
     94  CZ        20.7100   27.9140    2.1620 C.ar   53  PHE53      -0.0000
     95  N         28.5910   35.4880   10.9220 N.3    80  THR80      -0.1204
     96  CA        27.5640   35.1200   11.8910 C.3    80  THR80       0.1979
     97  C         27.3190   36.3110   12.8230 C.2    80  THR80       0.2460
     98  O         28.2640   37.0280   13.1590 O.2    80  THR80      -0.2732
     99  CB        27.9730   33.8680   12.7020 C.3    80  THR80       0.1783
    100  OG1       26.9770   33.5760   13.6830 O.3    80  THR80      -0.2211
    101  CG2       29.3250   34.0440   13.3890 C.3    80  THR80       0.0376
    102  N         26.0640   36.5290   13.2480 N.am   81  PRO81      -0.2717
    103  CA        25.8140   37.6510   14.1740 C.3    81  PRO81       0.1535
    104  C         26.4650   37.5070   15.5580 C.2    81  PRO81       0.2598
    105  O         26.7100   38.5030   16.2370 O.2    81  PRO81      -0.2715
    106  CB        24.2840   37.6640   14.3080 C.3    81  PRO81       0.0310
    107  CG        23.8660   36.2590   14.0180 C.3    81  PRO81       0.0237
    108  CD        24.8180   35.7880   12.9420 C.3    81  PRO81       0.0939
    109  N         26.7450   36.2750   15.9610 N.am   82  VAL82      -0.1978
    110  CA        27.4170   35.9950   17.2280 C.3    82  VAL82       0.1596
    111  C         28.1740   34.6790   17.0790 C.2    82  VAL82       0.2287
    112  O         27.8170   33.8430   16.2350 O.2    82  VAL82      -0.2864
    113  CB        26.4020   35.8970   18.3890 C.3    82  VAL82       0.0276
    114  CG1       25.4520   34.7430   18.1760 C.3    82  VAL82       0.0022
    115  CG2       27.0990   35.7520   19.7380 C.3    82  VAL82       0.0022
    116  N         28.7930   31.0690   17.6590 N.3    84  ILE84      -0.1245
    117  CA        27.9060   29.9790   18.0530 C.3    84  ILE84       0.1561
    118  C         28.6190   28.6340   18.0570 C.2    84  ILE84       0.2260
    119  O         29.3840   28.3020   17.1420 O.2    84  ILE84      -0.2867
    120  CB        26.6020   29.9100   17.1950 C.3    84  ILE84       0.0252
    121  CG1       26.8820   29.5520   15.7280 C.3    84  ILE84       0.0019
    122  CG2       25.8190   31.2180   17.3050 C.3    84  ILE84       0.0019
    123  CD1       25.6170   29.5040   14.8710 C.3    84  ILE84       0.0001
@<TRIPOS>BOND
     1    88    89    1
     2    88    85    1
     3    89    91   ar
     4    89    90   ar
     5    91    93   ar
     6    90    92   ar
     7    93    94   ar
     8    92    94   ar
     9    87    86    2
    10    85    86    1
    11    85    84    1
    12    60    61    1
    13    63    62    2
    14    61    62    1
    15    61    64    1
    16    62    68   am
    17    68    69    1
    18    69    70    1
    19    66    64    1
    20    64    65    1
    21    70    72   am
    22    70    71    2
    23    65    67    1
    24    72    73    1
    25    75    74    2
    26    79    78    2
    27    74    73    1
    28    74    76   am
    29    78    77    1
    30    77    76    1
    31    77    80    1
    32    52    50   ar
    33    44    42   ar
    34    50    51   ar
    35    50    49    1
    36    80    81    1
    37    80    82    1
    38    81    83    1
    39    95    96    1
    40    42    41    1
    41    42    43   ar
    42    49    46    1
    43    58    57    1
    44    41    38    1
    45    96    99    1
    46    96    97    1
    47    59    57    1
    48    57    54    1
    49    99   101    1
    50    99   100    1
    51    46    45    1
    52    46    47    1
    53    97    98    2
    54    97   102   am
    55    45    39   am
    56   108   102    1
    57   108   107    1
    58    38    39    1
    59    38    37    1
    60   102   103    1
    61    39    40    2
    62    54    53    1
    63    54    55    1
    64    37    34   am
    65    47    48    2
    66   107   106    1
    67   103   106    1
    68   103   104    1
    69    55    56    2
    70    31    30    2
    71    34    33    1
    72    34    35    2
    73   123   121    1
    74    33    36    1
    75    33    32    1
    76   104   109   am
    77   104   105    2
    78   121   120    1
    79    30    32   am
    80    30    29    1
    81   109   110    1
    82   112   111    2
    83    29    28    1
    84   111   110    1
    85   119   118    2
    86   120   122    1
    87   120   117    1
    88   110   113    1
    89    27    25   ar
    90   116   117    1
    91   117   118    1
    92   114   113    1
    93    25    26   ar
    94    25    24    1
    95   113   115    1
    96    23    22    2
    97    24    21    1
    98    22    21    1
    99    21    20    1
   100    19    17    1
   101    15    14    2
   102    10     9    1
   103    16    17    1
   104    16    13    1
   105    17    18    1
   106    12    13    1
   107    14    13    1
   108    11     9    1
   109     9     8    2
   110     8     7    1
   111     7     6    1
   112     6     5    1
   113     5     2    1
   114     2     3    1
   115     2     1    1
   116     3     4    2
