@<TRIPOS>MOLECULE
tmp/3giaA02.pdb
 96 94 0 0 0
SMALL
GASTEIGER

@<TRIPOS>ATOM
      1  N         24.3600   17.1860  -10.2080 N.3   106  PHE106     -0.1241
      2  CA        24.6280   18.1370  -11.2960 C.3   106  PHE106      0.1605
      3  C         23.7150   17.8600  -12.4980 C.2   106  PHE106      0.2264
      4  O         23.0780   18.7790  -13.0090 O.2   106  PHE106     -0.2867
      5  CB        26.0980   18.0690  -11.7180 C.3   106  PHE106      0.0534
      6  CG        26.4940   19.1070  -12.7410 C.ar  106  PHE106     -0.0203
      7  CD1       27.0730   20.3120  -12.3410 C.ar  106  PHE106     -0.0042
      8  CD2       26.3050   18.8740  -14.1050 C.ar  106  PHE106     -0.0042
      9  CE1       27.4490   21.2690  -13.2810 C.ar  106  PHE106     -0.0003
     10  CE2       26.6750   19.8270  -15.0530 C.ar  106  PHE106     -0.0003
     11  CZ        27.2550   21.0270  -14.6390 C.ar  106  PHE106     -0.0000
     12  N         20.9300   20.2820  -14.2550 N.3   110  PHE110     -0.1241
     13  CA        21.4690   20.7270  -15.5400 C.3   110  PHE110      0.1605
     14  C         20.5180   20.4900  -16.7120 C.2   110  PHE110      0.2264
     15  O         20.2710   21.3970  -17.5060 O.2   110  PHE110     -0.2867
     16  CB        22.8280   20.0610  -15.8130 C.3   110  PHE110      0.0534
     17  CG        23.4360   20.4320  -17.1330 C.ar  110  PHE110     -0.0203
     18  CD1       23.9940   21.6920  -17.3310 C.ar  110  PHE110     -0.0042
     19  CD2       23.4570   19.5190  -18.1830 C.ar  110  PHE110     -0.0042
     20  CE1       24.5560   22.0430  -18.5650 C.ar  110  PHE110     -0.0003
     21  CE2       24.0200   19.8570  -19.4120 C.ar  110  PHE110     -0.0003
     22  CZ        24.5700   21.1210  -19.6020 C.ar  110  PHE110     -0.0000
     23  N         25.2570   10.4560  -19.7330 N.3   125  ILE125     -0.1231
     24  CA        26.1540   11.3320  -20.4970 C.3   125  ILE125      0.1692
     25  C         26.6360   12.5460  -19.6860 C.2   125  ILE125      0.2592
     26  O         27.8190   12.9060  -19.7270 O.2   125  ILE125     -0.2718
     27  CB        25.4860   11.7740  -21.8480 C.3   125  ILE125      0.0266
     28  CG1       25.8260   10.7860  -22.9670 C.3   125  ILE125      0.0019
     29  CG2       25.8970   13.2010  -22.2760 C.3   125  ILE125      0.0020
     30  CD1       27.2930   10.8220  -23.4270 C.3   125  ILE125      0.0001
     31  N         25.7120   13.1540  -18.9490 N.am  126  THR126     -0.1953
     32  CA        25.9720   14.3680  -18.1960 C.3   126  THR126      0.1897
     33  C         26.8630   14.0770  -16.9870 C.2   126  THR126      0.2313
     34  O         27.7370   14.8750  -16.6530 O.2   126  THR126     -0.2863
     35  CB        24.6500   15.0340  -17.7720 C.3   126  THR126      0.1794
     36  OG1       23.8060   15.1770  -18.9220 O.3   126  THR126     -0.2208
     37  CG2       24.8870   16.4140  -17.1490 C.3   126  THR126      0.0378
     38  N         30.2900   13.2720  -18.4480 N.3   129  GLY129     -0.1210
     39  CA        30.8050   14.5640  -18.8900 C.3   129  GLY129      0.1956
     40  C         31.3340   15.4600  -17.7830 C.2   129  GLY129      0.2611
     41  O         32.4270   16.0240  -17.9150 O.2   129  GLY129     -0.2717
     42  N         30.5690   15.5960  -16.6960 N.am  130  ILE130     -0.1979
     43  CA        30.9770   16.4610  -15.5860 C.3   130  ILE130      0.1595
     44  C         32.1760   15.8860  -14.8250 C.2   130  ILE130      0.2287
     45  O         33.0650   16.6360  -14.4080 O.2   130  ILE130     -0.2864
     46  CB        29.7900   16.8670  -14.6330 C.3   130  ILE130      0.0276
     47  CG1       30.1940   18.0090  -13.6800 C.3   130  ILE130      0.0022
     48  CG2       29.2560   15.6780  -13.8280 C.3   130  ILE130      0.0022
     49  CD1       30.6200   19.3170  -14.3650 C.3   130  ILE130      0.0001
     50  N         35.2130   16.3170  -17.0010 N.3   133  PHE133     -0.1227
     51  CA        35.6100   17.7220  -16.9220 C.3   133  PHE133      0.1736
     52  C         36.4840   18.0080  -15.6940 C.2   133  PHE133      0.2595
     53  O         37.5220   18.6730  -15.8040 O.2   133  PHE133     -0.2718
     54  CB        34.4000   18.6660  -16.9320 C.3   133  PHE133      0.0547
     55  CG        34.7740   20.1100  -16.6950 C.ar  133  PHE133     -0.0202
     56  CD1       35.2310   20.9050  -17.7430 C.ar  133  PHE133     -0.0042
     57  CD2       34.7110   20.6600  -15.4180 C.ar  133  PHE133     -0.0042
     58  CE1       35.6010   22.2230  -17.5260 C.ar  133  PHE133     -0.0003
     59  CE2       35.0760   21.9910  -15.1900 C.ar  133  PHE133     -0.0003
     60  CZ        35.5220   22.7710  -16.2460 C.ar  133  PHE133     -0.0000
     61  N         36.0530   17.5170  -14.5310 N.am  134  PHE134     -0.1976
     62  CA        36.8040   17.7190  -13.2980 C.3   134  PHE134      0.1639
     63  C         38.0800   16.8940  -13.2540 C.2   134  PHE134      0.2290
     64  O         39.0400   17.2790  -12.5930 O.2   134  PHE134     -0.2864
     65  CB        35.9290   17.4890  -12.0620 C.3   134  PHE134      0.0560
     66  CG        35.1450   18.6940  -11.6680 C.ar  134  PHE134     -0.0200
     67  CD1       35.7120   19.6640  -10.8520 C.ar  134  PHE134     -0.0042
     68  CD2       33.8460   18.8780  -12.1320 C.ar  134  PHE134     -0.0042
     69  CE1       34.9980   20.8020  -10.5050 C.ar  134  PHE134     -0.0003
     70  CE2       33.1200   20.0070  -11.7870 C.ar  134  PHE134     -0.0003
     71  CZ        33.6990   20.9750  -10.9700 C.ar  134  PHE134     -0.0000
     72  N         24.3530   24.4970   -9.8980 N.3   279  LEU279     -0.1231
     73  CA        25.4460   24.0140  -10.7310 C.3   279  LEU279      0.1693
     74  C         26.7990   24.4770  -10.2090 C.2   279  LEU279      0.2592
     75  O         27.7440   23.6950  -10.1740 O.2   279  LEU279     -0.2718
     76  CB        25.2350   24.3820  -12.2020 C.3   279  LEU279      0.0284
     77  CG        23.9940   23.7330  -12.8370 C.3   279  LEU279      0.0019
     78  CD1       23.8930   24.0750  -14.3030 C.3   279  LEU279      0.0001
     79  CD2       23.9530   22.2080  -12.6330 C.3   279  LEU279      0.0001
     80  N         26.8710   25.7320   -9.7780 N.am  280  PHE280     -0.1976
     81  CA        28.0720   26.2640   -9.1470 C.3   280  PHE280      0.1639
     82  C         28.3410   25.6410   -7.7760 C.2   280  PHE280      0.2290
     83  O         29.4960   25.3590   -7.4400 O.2   280  PHE280     -0.2864
     84  CB        28.0090   27.7910   -9.0420 C.3   280  PHE280      0.0560
     85  CG        28.3800   28.4950  -10.3150 C.ar  280  PHE280     -0.0200
     86  CD1       29.7090   28.7990  -10.5930 C.ar  280  PHE280     -0.0042
     87  CD2       27.4070   28.8420  -11.2430 C.ar  280  PHE280     -0.0042
     88  CE1       30.0660   29.4460  -11.7750 C.ar  280  PHE280     -0.0003
     89  CE2       27.7460   29.4860  -12.4380 C.ar  280  PHE280     -0.0003
     90  CZ        29.0770   29.7900  -12.7040 C.ar  280  PHE280     -0.0000
     91  N         29.5260   21.9870   -8.5050 N.3   283  SER283     -0.1217
     92  CA        30.8540   22.1420   -9.1030 C.3   283  SER283      0.1889
     93  C         31.9370   22.4270   -8.0570 C.2   283  SER283      0.2288
     94  O         32.9670   21.7470   -8.0310 O.2   283  SER283     -0.2866
     95  CB        30.8510   23.2360  -10.1790 C.3   283  SER283      0.2089
     96  OG        30.0980   22.8220  -11.3060 O.3   283  SER283     -0.2183
@<TRIPOS>BOND
     1    30    28    1
     2    28    27    1
     3    29    27    1
     4    27    24    1
     5    24    23    1
     6    24    25    1
     7    26    25    2
     8    25    31   am
     9    22    21   ar
    10    22    20   ar
    11    21    19   ar
    12    31    32    1
    13    36    35    1
    14    39    38    1
    15    39    40    1
    16    20    18   ar
    17    32    35    1
    18    32    33    1
    19    19    17   ar
    20    41    40    2
    21    40    42   am
    22    35    37    1
    23    56    58   ar
    24    56    55   ar
    25    58    60   ar
    26    15    14    2
    27    18    17   ar
    28    17    16    1
    29    50    51    1
    30    33    34    2
    31    54    51    1
    32    54    55    1
    33    51    52    1
    34    14    13    1
    35    42    43    1
    36    55    57   ar
    37    60    59   ar
    38    16    13    1
    39    53    52    2
    40    52    61   am
    41    43    44    1
    42    43    46    1
    43    13    12    1
    44    57    59   ar
    45    10    11   ar
    46    10     8   ar
    47    44    45    2
    48    11     9   ar
    49    46    48    1
    50    46    47    1
    51    61    62    1
    52    49    47    1
    53    78    77    1
    54     8     6   ar
    55    62    63    1
    56    62    65    1
    57     9     7   ar
    58    63    64    2
    59     4     3    2
    60    77    79    1
    61    77    76    1
    62     6     7   ar
    63     6     5    1
    64    90    89   ar
    65    90    88   ar
    66     3     2    1
    67    89    87   ar
    68    76    73    1
    69    68    70   ar
    70    68    66   ar
    71    65    66    1
    72    70    71   ar
    73    88    86   ar
    74     5     2    1
    75    66    67   ar
    76    96    95    1
    77     2     1    1
    78    87    85   ar
    79    71    69   ar
    80    67    69   ar
    81    73    74    1
    82    73    72    1
    83    86    85   ar
    84    85    84    1
    85    74    75    2
    86    74    80   am
    87    95    92    1
    88    80    81    1
    89    81    84    1
    90    81    82    1
    91    92    91    1
    92    92    93    1
    93    93    94    2
    94    82    83    2
