@<TRIPOS>MOLECULE
tmp/3gidB00.pdb
 192 185 0 0 0
SMALL
GASTEIGER

@<TRIPOS>ATOM
      1  N        -62.4160  -43.2320  -12.3390 N.3    30  ILE30      -0.1245
      2  CA       -60.9930  -43.3700  -12.0930 C.3    30  ILE30       0.1561
      3  C        -60.7900  -43.9440  -10.6930 C.2    30  ILE30       0.2260
      4  O        -59.8190  -44.6360  -10.4270 O.2    30  ILE30      -0.2867
      5  CB       -60.2610  -41.9970  -12.2240 C.3    30  ILE30       0.0252
      6  CG1      -58.7430  -42.2170  -12.1700 C.3    30  ILE30       0.0019
      7  CG2      -60.7440  -41.0410  -11.1510 C.3    30  ILE30       0.0019
      8  CD1      -58.2500  -43.0810  -13.3240 C.3    30  ILE30       0.0001
      9  N        -61.1110  -47.6870  -11.0590 N.3    33  VAL33      -0.1231
     10  CA       -59.9760  -48.1440  -11.8560 C.3    33  VAL33       0.1692
     11  C        -58.6560  -48.0490  -11.0750 C.2    33  VAL33       0.2591
     12  O        -57.8330  -48.9680  -11.1160 O.2    33  VAL33      -0.2718
     13  CB       -59.8420  -47.3170  -13.1560 C.3    33  VAL33       0.0266
     14  CG1      -58.5990  -47.7690  -13.9390 C.3    33  VAL33       0.0020
     15  CG2      -61.1090  -47.4740  -14.0220 C.3    33  VAL33       0.0020
     16  N        -58.4560  -46.9480  -10.3520 N.am   34  LYS34      -0.1980
     17  CA       -57.2130  -46.7610   -9.6040 C.3    34  LYS34       0.1596
     18  C        -57.0770  -47.7430   -8.4400 C.2    34  LYS34       0.2287
     19  O        -56.0020  -48.2990   -8.2090 O.2    34  LYS34      -0.2864
     20  CB       -57.1150  -45.3140   -9.0920 C.3    34  LYS34       0.0298
     21  CG       -55.8900  -45.0260   -8.2490 C.3    34  LYS34       0.0038
     22  CD       -54.6050  -45.3900   -8.9520 C.3    34  LYS34       0.0206
     23  CE       -53.3880  -44.7120   -8.2660 C.3    34  LYS34       0.1093
     24  NZ       -53.3380  -44.9540   -6.7910 N.3    34  LYS34      -0.1314
     25  N        -56.1910  -51.1940  -10.0130 N.3    37  ARG37      -0.1231
     26  CA       -54.8400  -51.2840  -10.5440 C.3    37  ARG37       0.1694
     27  C        -53.7850  -51.2730   -9.4420 C.2    37  ARG37       0.2592
     28  O        -52.8340  -52.0260   -9.4890 O.2    37  ARG37      -0.2718
     29  CB       -54.5680  -50.1340  -11.5140 C.3    37  ARG37       0.0321
     30  CG       -55.3430  -50.2550  -12.8090 C.3    37  ARG37       0.0489
     31  CD       -54.4530  -49.9730  -13.9870 C.3    37  ARG37       0.2205
     32  NE       -55.2290  -49.8780  -15.2040 N.pl3  37  ARG37      -0.0865
     33  CZ       -55.1780  -48.8530  -16.0450 C.cat  37  ARG37       0.5346
     34  NH1      -54.3780  -47.8230  -15.8070 N.pl3  37  ARG37       0.1354
     35  NH2      -55.9380  -48.8570  -17.1230 N.pl3  37  ARG37       0.1354
     36  N        -53.9520  -50.4040   -8.4580 N.am   38  SER38      -0.1952
     37  CA       -52.9990  -50.3230   -7.3650 C.3    38  SER38       0.1924
     38  C        -52.9760  -51.6330   -6.5640 C.2    38  SER38       0.2314
     39  O        -51.9050  -52.2040   -6.3220 O.2    38  SER38      -0.2863
     40  CB       -53.3530  -49.1450   -6.4530 C.3    38  SER38       0.2116
     41  OG       -53.0660  -47.9000   -7.0880 O.3    38  SER38      -0.2180
     42  N        -51.6250  -54.6540   -8.5740 N.3    41  ARG41      -0.1245
     43  CA       -50.1800  -54.5860   -8.7330 C.3    41  ARG41       0.1563
     44  C        -49.4860  -55.0910   -7.4670 C.2    41  ARG41       0.2260
     45  O        -48.4910  -55.8200   -7.5480 O.2    41  ARG41      -0.2867
     46  CB       -49.7310  -53.1580   -9.0330 C.3    41  ARG41       0.0307
     47  CG       -48.2080  -52.9320   -8.8880 C.3    41  ARG41       0.0489
     48  CD       -47.4630  -53.4020  -10.1190 C.3    41  ARG41       0.2205
     49  NE       -47.9320  -52.6500  -11.2740 N.pl3  41  ARG41      -0.0865
     50  CZ       -47.4550  -51.4580  -11.6330 C.cat  41  ARG41       0.5346
     51  NH1      -46.4780  -50.8840  -10.9220 N.pl3  41  ARG41       0.1354
     52  NH2      -47.9780  -50.8280  -12.6890 N.pl3  41  ARG41       0.1354
     53  N        -47.2040  -58.5340   -6.7310 N.3    45  GLU45      -0.1245
     54  CA       -45.8730  -58.4960   -6.1280 C.3    45  GLU45       0.1567
     55  C        -45.7550  -59.4890   -4.9770 C.2    45  GLU45       0.2260
     56  O        -44.7210  -60.1330   -4.8060 O.2    45  GLU45      -0.2867
     57  CB       -45.5430  -57.0730   -5.6540 C.3    45  GLU45       0.0388
     58  CG       -45.1810  -56.1620   -6.8380 C.3    45  GLU45       0.1160
     59  CD       -45.3260  -54.6670   -6.5640 C.2    45  GLU45       0.3649
     60  OE1      -45.9730  -54.2650   -5.5630 O.co2  45  GLU45      -0.2457
     61  OE2      -44.7850  -53.8910   -7.3820 O.co2  45  GLU45      -0.2457
     62  N        -52.1230  -39.7430   -5.8250 N.3   324  PRO324     -0.2116
     63  CA       -50.8880  -40.2830   -6.4030 C.3   324  PRO324      0.1372
     64  C        -49.6530  -39.3370   -6.4010 C.2   324  PRO324      0.2244
     65  O        -48.5280  -39.8040   -6.6070 O.2   324  PRO324     -0.2868
     66  CB       -51.3100  -40.7120   -7.8110 C.3   324  PRO324      0.0268
     67  CG       -52.8140  -40.8770   -7.7280 C.3   324  PRO324      0.0207
     68  CD       -53.2580  -39.8200   -6.7670 C.3   324  PRO324      0.0892
     69  N        -48.1390  -40.7350   -3.3690 N.3   327  GLU327     -0.1231
     70  CA       -47.6430  -42.0770   -3.6180 C.3   327  GLU327      0.1699
     71  C        -46.3000  -42.0230   -4.3120 C.2   327  GLU327      0.2592
     72  O        -45.4000  -42.8170   -4.0320 O.2   327  GLU327     -0.2718
     73  CB       -48.5720  -42.8460   -4.5320 C.3   327  GLU327      0.0402
     74  CG       -49.9210  -43.1410   -3.9950 C.3   327  GLU327      0.1161
     75  CD       -50.6150  -44.1360   -4.8870 C.2   327  GLU327      0.3649
     76  OE1      -50.8540  -43.7690   -6.0660 O.co2 327  GLU327     -0.2457
     77  OE2      -50.8840  -45.2780   -4.4220 O.co2 327  GLU327     -0.2457
     78  N        -46.1830  -41.0990   -5.2510 N.am  328  MET328     -0.1979
     79  CA       -44.9910  -41.0230   -6.0710 C.3   328  MET328      0.1605
     80  C        -43.7680  -40.5380   -5.2740 C.2   328  MET328      0.2287
     81  O        -42.6790  -41.0970   -5.4230 O.2   328  MET328     -0.2864
     82  CB       -45.2520  -40.1070   -7.2770 C.3   328  MET328      0.0413
     83  CG       -44.0920  -40.0220   -8.2660 C.3   328  MET328      0.0598
     84  SD       -43.6730  -41.6110   -8.9850 S.3   328  MET328     -0.1393
     85  CE       -44.5900  -41.6110  -10.4870 C.3   328  MET328      0.0692
     86  N        -43.1070  -43.1660   -2.4700 N.3   331  ASP331     -0.1225
     87  CA       -43.1060  -44.5640   -2.8850 C.3   331  ASP331      0.1805
     88  C        -44.0020  -45.4900   -2.0520 C.2   331  ASP331      0.2598
     89  O        -43.5860  -46.5730   -1.6390 O.2   331  ASP331     -0.2718
     90  CB       -41.6850  -45.1010   -2.8680 C.3   331  ASP331      0.1424
     91  CG       -41.2280  -45.4930   -4.2410 C.2   331  ASP331      0.3668
     92  OD1      -41.7030  -46.5560   -4.7360 O.co2 331  ASP331     -0.2456
     93  OD2      -40.4140  -44.7260   -4.8270 O.co2 331  ASP331     -0.2456
     94  N        -45.2330  -45.0640   -1.8160 N.am  332  VAL332     -0.1966
     95  CA       -46.1860  -45.8820   -1.0920 C.3   332  VAL332      0.1727
     96  C        -47.3960  -46.1370   -1.9770 C.2   332  VAL332      0.2616
     97  O        -47.9450  -45.2110   -2.5810 O.2   332  VAL332     -0.2715
     98  CB       -46.6450  -45.1780    0.2220 C.3   332  VAL332      0.0290
     99  CG1      -47.7280  -46.0220    0.9360 C.3   332  VAL332      0.0023
    100  CG2      -45.4400  -44.9620    1.1390 C.3   332  VAL332      0.0023
    101  N        -47.8070  -47.3980   -2.0560 N.am  333  ASN333     -0.1972
    102  CA       -49.0150  -47.7690   -2.7970 C.3   333  ASN333      0.1688
    103  C        -50.1490  -47.6290   -1.7910 C.2   333  ASN333      0.2292
    104  O        -50.3360  -48.4950   -0.9290 O.2   333  ASN333     -0.2864
    105  CB       -48.8850  -49.2210   -3.2920 C.3   333  ASN333      0.1181
    106  CG       -50.0930  -49.6950   -4.1010 C.2   333  ASN333      0.2629
    107  OD1      -51.2240  -49.2650   -3.8800 O.2   333  ASN333     -0.2716
    108  ND2      -49.8500  -50.5960   -5.0370 N.am  333  ASN333     -0.0877
    109  N        -43.7010  -50.7310    2.0930 N.3   352  ASP352     -0.1239
    110  CA       -43.4230  -49.4020    1.5410 C.3   352  ASP352      0.1674
    111  C        -43.0670  -48.4160    2.6460 C.2   352  ASP352      0.2266
    112  O        -42.2580  -47.5230    2.4480 O.2   352  ASP352     -0.2867
    113  CB       -44.6290  -48.8650    0.7740 C.3   352  ASP352      0.1410
    114  CG       -44.8570  -49.5880   -0.5360 C.2   352  ASP352      0.3668
    115  OD1      -43.8950  -50.1860   -1.0690 O.co2 352  ASP352     -0.2456
    116  OD2      -46.0000  -49.5600   -1.0370 O.co2 352  ASP352     -0.2456
    117  N        -43.6740  -33.4560   -7.5260 N.3   382  VAL382     -0.1245
    118  CA       -44.7840  -33.6890   -8.4430 C.3   382  VAL382      0.1561
    119  C        -45.7150  -32.5150   -8.5840 C.2   382  VAL382      0.2260
    120  O        -46.0430  -31.8470   -7.5940 O.2   382  VAL382     -0.2867
    121  CB       -45.7010  -34.8610   -7.9930 C.3   382  VAL382      0.0252
    122  CG1      -46.9290  -34.9690   -8.8920 C.3   382  VAL382      0.0019
    123  CG2      -44.9310  -36.1710   -7.9810 C.3   382  VAL382      0.0019
    124  N        -57.3210  -42.5630  -20.5830 N.3   394  GLU394     -0.1245
    125  CA       -55.9600  -42.3000  -20.1730 C.3   394  GLU394      0.1567
    126  C        -55.1680  -41.4820  -21.1880 C.2   394  GLU394      0.2260
    127  O        -55.3210  -41.6480  -22.3910 O.2   394  GLU394     -0.2867
    128  CB       -55.2690  -43.6160  -19.8410 C.3   394  GLU394      0.0388
    129  CG       -55.7600  -44.1250  -18.5160 C.3   394  GLU394      0.1160
    130  CD       -55.7350  -45.6210  -18.3930 C.2   394  GLU394      0.3649
    131  OE1      -54.6110  -46.1640  -18.3410 O.co2 394  GLU394     -0.2457
    132  OE2      -56.8350  -46.2460  -18.3370 O.co2 394  GLU394     -0.2457
    133  N        -42.6210  -39.0960  -17.5960 N.3   402  ASN402     -0.1225
    134  CA       -42.8210  -38.8100  -16.1870 C.3   402  ASN402      0.1785
    135  C        -44.1610  -38.1370  -15.9910 C.2   402  ASN402      0.2597
    136  O        -44.4420  -37.5750  -14.9360 O.2   402  ASN402     -0.2718
    137  CB       -41.6850  -37.9260  -15.6700 C.3   402  ASN402      0.1169
    138  CG       -40.3470  -38.6600  -15.6360 C.2   402  ASN402      0.2627
    139  OD1      -40.2970  -39.8900  -15.5030 O.2   402  ASN402     -0.2716
    140  ND2      -39.2600  -37.9110  -15.7550 N.am  402  ASN402     -0.0877
    141  N        -44.9890  -38.1930  -17.0250 N.am  403  VAL403     -0.1966
    142  CA       -46.2990  -37.5850  -16.9690 C.3   403  VAL403      0.1727
    143  C        -47.4090  -38.5690  -17.3240 C.2   403  VAL403      0.2616
    144  O        -47.3220  -39.2760  -18.3200 O.2   403  VAL403     -0.2715
    145  CB       -46.4020  -36.4040  -17.9250 C.3   403  VAL403      0.0290
    146  CG1      -47.7720  -35.7540  -17.7740 C.3   403  VAL403      0.0023
    147  CG2      -45.2910  -35.3990  -17.6380 C.3   403  VAL403      0.0023
    148  N        -48.4570  -38.6020  -16.5100 N.am  404  TRP404     -0.1974
    149  CA       -49.6270  -39.3980  -16.8210 C.3   404  TRP404      0.1640
    150  C        -50.8830  -38.6150  -16.4960 C.2   404  TRP404      0.2290
    151  O        -50.8830  -37.7730  -15.6020 O.2   404  TRP404     -0.2864
    152  CB       -49.6110  -40.7010  -16.0190 C.3   404  TRP404      0.0576
    153  CG       -50.8140  -41.5820  -16.2380 C.ar  404  TRP404      0.0006
    154  CD1      -50.9270  -42.6150  -17.1290 C.ar  404  TRP404      0.0946
    155  CD2      -52.0360  -41.5580  -15.4970 C.ar  404  TRP404      0.0152
    156  NE1      -52.1440  -43.2440  -16.9760 N.ar  404  TRP404     -0.2442
    157  CE2      -52.8440  -42.6120  -15.9810 C.ar  404  TRP404      0.0810
    158  CE3      -52.5270  -40.7500  -14.4720 C.ar  404  TRP404      0.0012
    159  CZ2      -54.1190  -42.8760  -15.4690 C.ar  404  TRP404      0.0191
    160  CZ3      -53.8020  -41.0160  -13.9600 C.ar  404  TRP404      0.0001
    161  CH2      -54.5780  -42.0680  -14.4620 C.ar  404  TRP404      0.0015
    162  N        -50.5040  -35.7620  -13.9900 N.3   415  PHE415     -0.1227
    163  CA       -49.5420  -35.7970  -12.9010 C.3   415  PHE415      0.1736
    164  C        -48.1540  -35.8280  -13.5330 C.2   415  PHE415      0.2596
    165  O        -47.8800  -36.6350  -14.4350 O.2   415  PHE415     -0.2718
    166  CB       -49.7390  -37.0480  -12.0290 C.3   415  PHE415      0.0547
    167  CG       -51.0940  -37.1390  -11.3630 C.ar  415  PHE415     -0.0202
    168  CD1      -52.1920  -37.6250  -12.0550 C.ar  415  PHE415     -0.0042
    169  CD2      -51.2550  -36.7910  -10.0280 C.ar  415  PHE415     -0.0042
    170  CE1      -53.4230  -37.7650  -11.4300 C.ar  415  PHE415     -0.0003
    171  CE2      -52.4890  -36.9280   -9.3960 C.ar  415  PHE415     -0.0003
    172  CZ       -53.5730  -37.4160  -10.1010 C.ar  415  PHE415     -0.0000
    173  N        -47.2860  -34.9450  -13.0520 N.am  416  SER416     -0.1938
    174  CA       -45.9390  -34.8340  -13.5690 C.3   416  SER416      0.2055
    175  C        -44.9040  -35.0080  -12.4560 C.2   416  SER416      0.2643
    176  O        -44.9600  -34.3490  -11.4150 O.2   416  SER416     -0.2714
    177  CB       -45.7680  -33.4660  -14.2350 C.3   416  SER416      0.2130
    178  OG       -44.4580  -33.3060  -14.7310 O.3   416  SER416     -0.2179
    179  N        -43.9540  -35.9050  -12.7020 N.am  417  TRP417     -0.1973
    180  CA       -42.8750  -36.0910  -11.7440 C.3   417  TRP417      0.1640
    181  C        -41.5570  -35.6790  -12.3040 C.2   417  TRP417      0.2290
    182  O        -41.3130  -35.7750  -13.5010 O.2   417  TRP417     -0.2864
    183  CB       -42.7100  -37.5230  -11.2970 C.3   417  TRP417      0.0576
    184  CG       -41.6000  -37.7010  -10.2910 C.ar  417  TRP417      0.0006
    185  CD1      -41.7370  -37.5850   -8.9370 C.ar  417  TRP417      0.0946
    186  CD2      -40.2180  -38.0180  -10.5250 C.ar  417  TRP417      0.0152
    187  NE1      -40.5350  -37.8100   -8.3170 N.ar  417  TRP417     -0.2442
    188  CE2      -39.5860  -38.0790   -9.2680 C.ar  417  TRP417      0.0810
    189  CE3      -39.4570  -38.2520  -11.6760 C.ar  417  TRP417      0.0012
    190  CZ2      -38.2230  -38.3670   -9.1240 C.ar  417  TRP417      0.0191
    191  CZ3      -38.0950  -38.5380  -11.5300 C.ar  417  TRP417      0.0001
    192  CH2      -37.5000  -38.5930  -10.2660 C.ar  417  TRP417      0.0015
@<TRIPOS>BOND
     1   127   126    2
     2   126   125    1
     3   124   125    1
     4   125   128    1
     5   128   129    1
     6   129   130    1
     7   130   131   ar
     8   130   132   ar
     9   144   143    2
    10   145   146    1
    11   145   147    1
    12   145   142    1
    13   133   134    1
    14   143   142    1
    15   143   148   am
    16   154   156   ar
    17   154   153   ar
    18    35    33    1
    19   141   142    1
    20   141   135   am
    21   156   157   ar
    22   149   148    1
    23   149   150    1
    24   149   152    1
    25   150   151    2
    26   153   152    1
    27   153   155   ar
    28   134   135    1
    29   134   137    1
    30    33    34    1
    31    33    32    2
    32   135   136    2
    33   157   155   ar
    34   157   159   ar
    35   140   138   am
    36   137   138    1
    37   138   139    2
    38   155   158   ar
    39   159   161   ar
    40    32    31    1
    41   178   177    1
    42   158   160   ar
    43   161   160   ar
    44   165   164    2
    45   177   174    1
    46    15    13    1
    47   162   163    1
    48    31    30    1
    49    14    13    1
    50   174   173    1
    51   174   175    1
    52   164   173   am
    53   164   163    1
    54   182   181    2
    55     8     6    1
    56    13    10    1
    57   163   166    1
    58    30    29    1
    59   179   175   am
    60   179   180    1
    61    52    50    1
    62   175   176    2
    63     1     2    1
    64   181   180    1
    65     5     6    1
    66     5     2    1
    67     5     7    1
    68     2     3    1
    69   168   170   ar
    70   168   167   ar
    71   166   167    1
    72    10    11    1
    73    10     9    1
    74   180   183    1
    75   189   191   ar
    76   189   186   ar
    77    50    49    2
    78    50    51    1
    79   191   192   ar
    80    29    26    1
    81   170   172   ar
    82   167   169   ar
    83   183   184    1
    84    49    48    1
    85    12    11    2
    86    11    16   am
    87     3     4    2
    88    26    25    1
    89    26    27    1
    90   186   184   ar
    91   186   188   ar
    92    85    84    1
    93    16    17    1
    94   184   185   ar
    95   192   190   ar
    96    48    47    1
    97   172   171   ar
    98   169   171   ar
    99    17    20    1
   100    17    18    1
   101    28    27    2
   102    27    36   am
   103   188   190   ar
   104   188   187   ar
   105    20    21    1
   106    46    47    1
   107    46    43    1
   108    84    83    1
   109    22    23    1
   110    22    21    1
   111   185   187   ar
   112   122   121    1
   113    43    42    1
   114    43    44    1
   115   119   118    1
   116   119   120    2
   117    36    37    1
   118   118   121    1
   119   118   117    1
   120    18    19    2
   121    83    82    1
   122    23    24    1
   123   121   123    1
   124    66    67    1
   125    66    63    1
   126    67    68    1
   127    45    44    2
   128    61    59   ar
   129    37    38    1
   130    37    40    1
   131    82    79    1
   132    41    40    1
   133    58    59    1
   134    58    57    1
   135    68    62    1
   136    53    54    1
   137    65    64    2
   138    59    60   ar
   139    38    39    2
   140    63    64    1
   141    63    62    1
   142    54    57    1
   143    54    55    1
   144    79    80    1
   145    79    78    1
   146    76    75   ar
   147    81    80    2
   148    78    71   am
   149   108   106   am
   150    55    56    2
   151    75    77   ar
   152    75    74    1
   153    93    91   ar
   154    92    91   ar
   155    73    74    1
   156    73    70    1
   157    71    72    2
   158    71    70    1
   159    91    90    1
   160   106   107    2
   161   106   105    1
   162    70    69    1
   163   105   102    1
   164    87    90    1
   165    87    86    1
   166    87    88    1
   167   102   101    1
   168   102   103    1
   169    97    96    2
   170   101    96   am
   171    88    94   am
   172    88    89    2
   173    96    95    1
   174    94    95    1
   175   103   104    2
   176    95    98    1
   177   115   114   ar
   178   116   114   ar
   179   114   113    1
   180    98    99    1
   181    98   100    1
   182   113   110    1
   183   110   109    1
   184   110   111    1
   185   112   111    2
