@<TRIPOS>MOLECULE
tmp/3giqA00.pdb
 181 169 0 0 0
SMALL
GASTEIGER

@<TRIPOS>ATOM
      1  N         25.6990   47.4360   19.7370 N.3    64  HIS64      -0.1241
      2  CA        26.8800   46.8210   20.3400 C.3    64  HIS64       0.1621
      3  C         26.3650   45.9330   21.4690 C.2    64  HIS64       0.2264
      4  O         27.0420   45.7190   22.4750 O.2    64  HIS64      -0.2867
      5  CB        27.8320   47.8890   20.9010 C.3    64  HIS64       0.0745
      6  CG        28.6760   48.5540   19.8580 C.ar   64  HIS64       0.0817
      7  ND1       29.5620   47.8580   19.0630 N.ar   64  HIS64      -0.2268
      8  CD2       28.7580   49.8490   19.4690 C.ar   64  HIS64       0.1154
      9  CE1       30.1520   48.6960   18.2280 C.ar   64  HIS64       0.1986
     10  NE2       29.6820   49.9100   18.4540 N.ar   64  HIS64      -0.2212
     11  N         31.7930   48.2220   14.2690 N.3    91  CYS91      -0.1235
     12  CA        33.0920   48.8400   14.5120 C.3    91  CYS91       0.1677
     13  C         34.2700   47.8920   14.7190 C.2    91  CYS91       0.2270
     14  O         35.1960   48.1970   15.4720 O.2    91  CYS91      -0.2867
     15  CB        32.9720   49.7930   15.7020 C.3    91  CYS91       0.0956
     16  SG        31.6700   51.0180   15.4350 S.3    91  CYS91      -0.0801
     17  N         38.6860   48.0740   22.5690 N.3   107  ALA107     -0.1245
     18  CA        37.3220   48.2000   22.0600 C.3   107  ALA107      0.1562
     19  C         36.4290   46.9940   22.3620 C.2   107  ALA107      0.2260
     20  O         35.2100   47.1300   22.4590 O.2   107  ALA107     -0.2867
     21  CB        37.3550   48.4620   20.5540 C.3   107  ALA107      0.0290
     22  N         34.0120   46.9490   25.4870 N.3   110  LEU110     -0.1245
     23  CA        32.7210   47.6260   25.4070 C.3   110  LEU110      0.1561
     24  C         31.5400   46.6790   25.2210 C.2   110  LEU110      0.2260
     25  O         30.3990   47.0350   25.5220 O.2   110  LEU110     -0.2867
     26  CB        32.7290   48.6470   24.2680 C.3   110  LEU110      0.0270
     27  CG        33.6760   49.8390   24.4160 C.3   110  LEU110      0.0019
     28  CD1       33.5200   50.7550   23.2050 C.3   110  LEU110      0.0001
     29  CD2       33.3620   50.5900   25.6980 C.3   110  LEU110      0.0001
     30  N         39.9090   53.0680   13.1590 N.3   185  ALA185     -0.1231
     31  CA        40.4530   54.0970   14.0400 C.3   185  ALA185      0.1694
     32  C         40.9780   53.4570   15.3250 C.2   185  ALA185      0.2592
     33  O         41.5220   54.1450   16.1940 O.2   185  ALA185     -0.2718
     34  CB        39.3720   55.1260   14.3720 C.3   185  ALA185      0.0304
     35  N         40.8140   52.1390   15.4310 N.am  186  TYR186     -0.1976
     36  CA        41.2310   51.3790   16.6120 C.3   186  TYR186      0.1639
     37  C         42.2390   50.2770   16.2880 C.2   186  TYR186      0.2290
     38  O         42.3590   49.8440   15.1460 O.2   186  TYR186     -0.2864
     39  CB        40.0280   50.6730   17.2490 C.3   186  TYR186      0.0560
     40  CG        38.8580   51.5410   17.6370 C.ar  186  TYR186     -0.0198
     41  CD1       38.9920   52.5360   18.6030 C.ar  186  TYR186     -0.0009
     42  CD2       37.5900   51.3090   17.0980 C.ar  186  TYR186     -0.0009
     43  CE1       37.8910   53.2760   19.0320 C.ar  186  TYR186      0.0417
     44  CE2       36.4830   52.0430   17.5220 C.ar  186  TYR186      0.0417
     45  CZ        36.6420   53.0230   18.4920 C.ar  186  TYR186      0.1957
     46  OH        35.5500   53.7340   18.9360 O.3   186  TYR186     -0.2866
     47  N         33.7880   51.7690   10.6110 N.3   214  HIS214     -0.1241
     48  CA        34.0680   52.8770   11.4960 C.3   214  HIS214      0.1621
     49  C         35.3660   53.2500   10.7860 C.2   214  HIS214      0.2264
     50  O         36.3780   52.5510   10.9160 O.2   214  HIS214     -0.2867
     51  CB        34.3560   52.4020   12.9150 C.3   214  HIS214      0.0745
     52  CG        34.8470   53.4880   13.8190 C.ar  214  HIS214      0.0817
     53  ND1       34.4690   53.5880   15.1410 N.ar  214  HIS214     -0.2268
     54  CD2       35.6930   54.5190   13.5910 C.ar  214  HIS214      0.1154
     55  CE1       35.0610   54.6360   15.6870 C.ar  214  HIS214      0.1986
     56  NE2       35.8100   55.2180   14.7680 N.ar  214  HIS214     -0.2212
     57  N         37.8790   60.3370   11.9680 N.3   218  GLU218     -0.1245
     58  CA        36.6680   61.1330   11.8190 C.3   218  GLU218      0.1567
     59  C         36.8730   62.5980   12.1800 C.2   218  GLU218      0.2260
     60  O         35.9170   63.3190   12.4600 O.2   218  GLU218     -0.2867
     61  CB        35.5430   60.5180   12.6570 C.3   218  GLU218      0.0388
     62  CG        35.2440   59.0800   12.2550 C.3   218  GLU218      0.1160
     63  CD        34.0210   58.5110   12.9410 C.2   218  GLU218      0.3649
     64  OE1       34.0440   58.3590   14.1800 O.co2 218  GLU218     -0.2457
     65  OE2       33.0340   58.2180   12.2350 O.co2 218  GLU218     -0.2457
     66  N         28.1400   55.5400   11.9830 N.3   244  HIS244     -0.1241
     67  CA        28.0810   56.7970   12.7290 C.3   244  HIS244      0.1621
     68  C         28.8680   57.9200   12.0660 C.2   244  HIS244      0.2264
     69  O         29.8060   58.4690   12.6460 O.2   244  HIS244     -0.2867
     70  CB        28.5730   56.5830   14.1720 C.3   244  HIS244      0.0745
     71  CG        29.8820   55.8580   14.2770 C.ar  244  HIS244      0.0817
     72  ND1       31.0260   56.2790   13.6330 N.ar  244  HIS244     -0.2268
     73  CD2       30.2390   54.7660   14.9970 C.ar  244  HIS244      0.1154
     74  CE1       32.0310   55.4820   13.9530 C.ar  244  HIS244      0.1986
     75  NE2       31.5790   54.5550   14.7790 N.ar  244  HIS244     -0.2212
     76  N         30.2530   61.3040   10.9380 N.3   246  LYS246     -0.1245
     77  CA        30.3540   62.5570   11.6720 C.3   246  LYS246      0.1561
     78  C         31.6330   63.2920   11.3010 C.2   246  LYS246      0.2260
     79  O         32.4790   62.7630   10.5820 O.2   246  LYS246     -0.2867
     80  CB        30.4200   62.2500   13.1660 C.3   246  LYS246      0.0271
     81  CG        31.7200   61.5210   13.5340 C.3   246  LYS246      0.0035
     82  CD        31.9110   61.3140   15.0340 C.3   246  LYS246      0.0206
     83  CE        31.0330   60.1990   15.5690 C.3   246  LYS246      0.1093
     84  NZ        31.3390   58.8840   14.9260 N.3   246  LYS246     -0.1314
     85  N         34.4050   65.3870   13.5790 N.3   248  MET248     -0.1245
     86  CA        34.8320   65.8030   14.9090 C.3   248  MET248      0.1570
     87  C         35.8400   66.9460   14.9100 C.2   248  MET248      0.2261
     88  O         36.7090   67.0240   14.0380 O.2   248  MET248     -0.2867
     89  CB        35.4270   64.6100   15.6600 C.3   248  MET248      0.0387
     90  CG        34.4350   63.4870   15.8950 C.3   248  MET248      0.0595
     91  SD        35.1920   62.1050   16.7700 S.3   248  MET248     -0.1393
     92  CE        35.2310   62.7610   18.4450 C.3   248  MET248      0.0692
     93  N         23.5580   58.7680   15.0470 N.3   278  TYR278     -0.1241
     94  CA        22.7690   58.7830   16.2680 C.3   278  TYR278      0.1605
     95  C         22.5670   60.2970   16.3780 C.2   278  TYR278      0.2264
     96  O         23.4560   61.0760   16.0240 O.2   278  TYR278     -0.2867
     97  CB        23.5310   58.1930   17.4620 C.3   278  TYR278      0.0534
     98  CG        24.9760   58.5980   17.5780 C.ar  278  TYR278     -0.0201
     99  CD1       25.3390   59.8120   18.1670 C.ar  278  TYR278     -0.0009
    100  CD2       25.9870   57.7530   17.1240 C.ar  278  TYR278     -0.0009
    101  CE1       26.6760   60.1690   18.3050 C.ar  278  TYR278      0.0417
    102  CE2       27.3280   58.1000   17.2540 C.ar  278  TYR278      0.0417
    103  CZ        27.6640   59.3080   17.8470 C.ar  278  TYR278      0.1957
    104  OH        28.9850   59.6510   17.9860 O.3   278  TYR278     -0.2866
    105  N         30.2000   61.9560   21.0200 N.3   283  SER283     -0.1202
    106  CA        30.4270   60.5430   20.7280 C.3   283  SER283      0.2020
    107  C         30.7290   59.8160   22.0350 C.2   283  SER283      0.2619
    108  O         30.7240   60.4230   23.1040 O.2   283  SER283     -0.2717
    109  CB        31.6050   60.3820   19.7640 C.3   283  SER283      0.2103
    110  OG        32.8220   60.7960   20.3650 O.3   283  SER283     -0.2182
    111  N         30.9800   58.5160   21.9520 N.am  284  SER284     -0.1937
    112  CA        31.3040   57.7420   23.1470 C.3   284  SER284      0.2055
    113  C         31.9940   56.4360   22.7800 C.2   284  SER284      0.2643
    114  O         31.5070   55.6710   21.9480 O.2   284  SER284     -0.2714
    115  CB        30.0430   57.4470   23.9600 C.3   284  SER284      0.2130
    116  OG        30.3680   56.7800   25.1740 O.3   284  SER284     -0.2179
    117  N         33.1380   56.1950   23.4060 N.am  285  THR285     -0.1950
    118  CA        33.9090   54.9860   23.1680 C.3   285  THR285      0.1897
    119  C         34.9150   54.8740   24.3070 C.2   285  THR285      0.2313
    120  O         34.6840   55.4090   25.3940 O.2   285  THR285     -0.2863
    121  CB        34.6380   55.0510   21.7980 C.3   285  THR285      0.1794
    122  OG1       35.2870   53.7980   21.5420 O.3   285  THR285     -0.2208
    123  CG2       35.6700   56.1720   21.7810 C.3   285  THR285      0.0378
    124  N         40.5200   57.8690   25.5170 N.3   288  ILE288     -0.1245
    125  CA        41.7620   58.0170   24.7660 C.3   288  ILE288      0.1561
    126  C         42.5450   59.1930   25.3450 C.2   288  ILE288      0.2260
    127  O         42.2140   60.3480   25.0970 O.2   288  ILE288     -0.2867
    128  CB        41.4510   58.2800   23.2780 C.3   288  ILE288      0.0252
    129  CG1       40.6550   57.1020   22.7060 C.3   288  ILE288      0.0019
    130  CG2       42.7430   58.4950   22.4980 C.3   288  ILE288      0.0019
    131  CD1       40.0290   57.3750   21.3440 C.3   288  ILE288      0.0001
    132  N         43.4860   62.5540   23.7190 N.3   291  ARG291     -0.1245
    133  CA        42.4500   63.5620   23.5030 C.3   291  ARG291      0.1563
    134  C         42.2510   64.4910   24.6980 C.2   291  ARG291      0.2260
    135  O         41.5190   65.4730   24.6060 O.2   291  ARG291     -0.2867
    136  CB        41.1140   62.8820   23.1910 C.3   291  ARG291      0.0307
    137  CG        41.0880   62.1070   21.8860 C.3   291  ARG291      0.0489
    138  CD        39.7110   61.5050   21.6590 C.3   291  ARG291      0.2205
    139  NE        39.6030   60.8600   20.3540 N.pl3 291  ARG291     -0.0865
    140  CZ        38.4860   60.3170   19.8830 C.cat 291  ARG291      0.5346
    141  NH1       37.3800   60.3340   20.6130 N.pl3 291  ARG291      0.1354
    142  NH2       38.4690   59.7800   18.6710 N.pl3 291  ARG291      0.1354
    143  N         32.6600   62.2790   24.2620 N.3   339  TYR339     -0.1241
    144  CA        33.4020   63.3880   23.6720 C.3   339  TYR339      0.1605
    145  C         32.4620   64.3400   22.9350 C.2   339  TYR339      0.2264
    146  O         31.8780   63.9700   21.9230 O.2   339  TYR339     -0.2867
    147  CB        34.4320   62.8320   22.6810 C.3   339  TYR339      0.0534
    148  CG        35.3680   61.7880   23.2670 C.ar  339  TYR339     -0.0201
    149  CD1       36.5260   62.1640   23.9450 C.ar  339  TYR339     -0.0009
    150  CD2       35.1010   60.4210   23.1250 C.ar  339  TYR339     -0.0009
    151  CE1       37.4060   61.2100   24.4630 C.ar  339  TYR339      0.0417
    152  CE2       35.9760   59.4530   23.6440 C.ar  339  TYR339      0.0417
    153  CZ        37.1270   59.8600   24.3070 C.ar  339  TYR339      0.1957
    154  OH        38.0150   58.9260   24.7910 O.3   339  TYR339     -0.2866
    155  N         23.9620   53.1980   18.5590 N.3   361  ASP361     -0.1239
    156  CA        25.3360   53.0460   19.0250 C.3   361  ASP361      0.1674
    157  C         25.3750   53.0280   20.5530 C.2   361  ASP361      0.2266
    158  O         26.3180   53.5170   21.1790 O.2   361  ASP361     -0.2867
    159  CB        26.2240   54.1730   18.4850 C.3   361  ASP361      0.1410
    160  CG        27.7000   53.8030   18.4850 C.2   361  ASP361      0.3668
    161  OD1       28.0260   52.6410   18.8140 O.co2 361  ASP361     -0.2456
    162  OD2       28.5360   54.6680   18.1480 O.co2 361  ASP361     -0.2456
    163  N         25.9550   51.8120   24.2690 N.3   363  LEU363     -0.1245
    164  CA        26.9960   51.0010   24.9030 C.3   363  LEU363      0.1561
    165  C         26.3640   50.5380   26.2110 C.2   363  LEU363      0.2260
    166  O         26.5590   51.1440   27.2690 O.2   363  LEU363     -0.2867
    167  CB        28.2450   51.8520   25.1500 C.3   363  LEU363      0.0270
    168  CG        28.8380   52.4430   23.8640 C.3   363  LEU363      0.0019
    169  CD1       30.0850   53.2480   24.1760 C.3   363  LEU363      0.0001
    170  CD2       29.1670   51.3160   22.8910 C.3   363  LEU363      0.0001
    171  N         22.1620   58.0960   24.1810 N.3   372  ARG372     -0.1245
    172  CA        21.7250   57.5240   22.9090 C.3   372  ARG372      0.1563
    173  C         21.3030   56.0710   23.1010 C.2   372  ARG372      0.2260
    174  O         20.5440   55.5230   22.3030 O.2   372  ARG372     -0.2867
    175  CB        22.8530   57.6020   21.8780 C.3   372  ARG372      0.0307
    176  CG        24.0530   56.7320   22.2050 C.3   372  ARG372      0.0489
    177  CD        25.2450   57.1180   21.3500 C.3   372  ARG372      0.2205
    178  NE        26.3750   56.2150   21.5380 N.pl3 372  ARG372     -0.0865
    179  CZ        27.6110   56.4810   21.1300 C.cat 372  ARG372      0.5346
    180  NH1       27.8790   57.6280   20.5160 N.pl3 372  ARG372      0.1354
    181  NH2       28.5750   55.5950   21.3170 N.pl3 372  ARG372      0.1354
@<TRIPOS>BOND
     1    79    78    2
     2    47    48    1
     3    49    50    2
     4    49    48    1
     5    76    77    1
     6    78    77    1
     7    48    51    1
     8    77    80    1
     9    58    57    1
    10    58    59    1
    11    58    61    1
    12    66    67    1
    13    68    69    2
    14    68    67    1
    15    59    60    2
    16    65    63   ar
    17    62    61    1
    18    62    63    1
    19    67    70    1
    20    51    52    1
    21    63    64   ar
    22    30    31    1
    23    80    81    1
    24    81    82    1
    25    85    86    1
    26    54    52   ar
    27    54    56   ar
    28    72    74   ar
    29    72    71   ar
    30    52    53   ar
    31    74    75   ar
    32    88    87    2
    33    31    34    1
    34    31    32    1
    35    70    71    1
    36    11    12    1
    37    71    73   ar
    38    12    13    1
    39    12    15    1
    40    13    14    2
    41    56    55   ar
    42    75    73   ar
    43    86    87    1
    44    86    89    1
    45    84    83    1
    46    82    83    1
    47    93    94    1
    48    53    55   ar
    49    38    37    2
    50    32    35   am
    51    32    33    2
    52    35    36    1
    53    16    15    1
    54    89    90    1
    55    90    91    1
    56    96    95    2
    57    94    95    1
    58    94    97    1
    59    37    36    1
    60    36    39    1
    61    91    92    1
    62    42    44   ar
    63    42    40   ar
    64   100   102   ar
    65   100    98   ar
    66    39    40    1
    67   102   103   ar
    68    97    98    1
    69    44    45   ar
    70    98    99   ar
    71    40    41   ar
    72   103   104    1
    73   103   101   ar
    74   162   160   ar
    75    99   101   ar
    76     9    10   ar
    77     9     7   ar
    78    10     8   ar
    79   160   159    1
    80   160   161   ar
    81   159   156    1
    82    45    46    1
    83    45    43   ar
    84   155   156    1
    85    41    43   ar
    86   142   140    1
    87   156   157    1
    88     7     6   ar
    89     8     6   ar
    90     1     2    1
    91   109   110    1
    92   109   106    1
    93     6     5    1
    94   140   139    2
    95   140   141    1
    96     2     5    1
    97     2     3    1
    98   139   138    1
    99   180   179    1
   100   157   158    2
   101    21    18    1
   102   106   105    1
   103   106   107    1
   104   179   181    1
   105   179   178    2
   106   131   129    1
   107   177   178    1
   108   177   176    1
   109     3     4    2
   110   122   121    1
   111   138   137    1
   112   123   121    1
   113   121   118    1
   114   175   176    1
   115   175   172    1
   116   137   136    1
   117   146   145    2
   118   114   113    2
   119   111   107   am
   120   111   112    1
   121   107   108    2
   122    18    19    1
   123    18    17    1
   124   174   173    2
   125    19    20    2
   126   130   128    1
   127   147   148    1
   128   147   144    1
   129   129   128    1
   130   113   112    1
   131   113   117   am
   132   170   168    1
   133   172   173    1
   134   172   171    1
   135   145   144    1
   136   150   148   ar
   137   150   152   ar
   138   112   115    1
   139   118   117    1
   140   118   119    1
   141   136   133    1
   142    28    27    1
   143   148   149   ar
   144   128   125    1
   145   133   132    1
   146   133   134    1
   147   152   153   ar
   148   144   143    1
   149   168   169    1
   150   168   167    1
   151   149   151   ar
   152   115   116    1
   153    26    27    1
   154    26    23    1
   155   163   164    1
   156   153   151   ar
   157   153   154    1
   158   119   120    2
   159    27    29    1
   160   135   134    2
   161   125   126    1
   162   125   124    1
   163   164   167    1
   164   164   165    1
   165   127   126    2
   166    24    23    1
   167    24    25    2
   168    23    22    1
   169   165   166    2
