@<TRIPOS>MOLECULE
tmp/3giuB00.pdb
 135 134 0 0 0
SMALL
GASTEIGER

@<TRIPOS>ATOM
      1  N         30.8410    3.4210   -5.8440 N.3    79  ARG79      -0.1245
      2  CA        31.3860    4.7310   -6.1880 C.3    79  ARG79       0.1563
      3  C         30.4750    5.8860   -5.8440 C.2    79  ARG79       0.2260
      4  O         30.9550    6.9520   -5.4520 O.2    79  ARG79      -0.2867
      5  CB        31.7110    4.7680   -7.6790 C.3    79  ARG79       0.0307
      6  CG        32.5890    5.9380   -8.0460 C.3    79  ARG79       0.0489
      7  CD        32.7550    6.1610   -9.5220 C.3    79  ARG79       0.2205
      8  NE        33.2550    5.0330  -10.3020 N.pl3  79  ARG79      -0.0865
      9  CZ        34.4650    4.9070  -10.8470 C.cat  79  ARG79       0.5346
     10  NH1       35.4360    5.7850  -10.6270 N.pl3  79  ARG79       0.1354
     11  NH2       34.7080    3.8510  -11.5960 N.pl3  79  ARG79       0.1354
     12  N         29.4460   11.2190   -4.6480 N.3   111  PHE111     -0.1227
     13  CA        30.5120   10.2310   -4.7470 C.3   111  PHE111      0.1736
     14  C         31.0550    9.9360   -3.3610 C.2   111  PHE111      0.2596
     15  O         31.3360   10.8240   -2.5600 O.2   111  PHE111     -0.2718
     16  CB        31.6640   10.7470   -5.6130 C.3   111  PHE111      0.0547
     17  CG        31.3400   10.8700   -7.0820 C.ar  111  PHE111     -0.0202
     18  CD1       31.8110    9.9370   -7.9820 C.ar  111  PHE111     -0.0042
     19  CD2       30.5870   11.9170   -7.5930 C.ar  111  PHE111     -0.0042
     20  CE1       31.5430   10.0180   -9.3390 C.ar  111  PHE111     -0.0003
     21  CE2       30.2990   11.9820   -8.9570 C.ar  111  PHE111     -0.0003
     22  CZ        30.7850   11.0160   -9.8180 C.ar  111  PHE111     -0.0000
     23  N         31.2180    8.6510   -3.0760 N.am  112  SER112     -0.1938
     24  CA        31.8830    8.2220   -1.8450 C.3   112  SER112      0.2055
     25  C         33.2740    8.8600   -1.7710 C.2   112  SER112      0.2643
     26  O         33.9780    8.9250   -2.7700 O.2   112  SER112     -0.2714
     27  CB        32.0150    6.6980   -1.8170 C.3   112  SER112      0.2130
     28  OG        32.8400    6.2580   -0.7410 O.3   112  SER112     -0.2179
     29  N         33.6440    9.3520   -0.5990 N.am  113  ASN113     -0.1957
     30  CA        34.9550    9.9340   -0.3860 C.3   113  ASN113      0.1819
     31  C         35.8920    9.0130    0.3730 C.2   113  ASN113      0.2621
     32  O         36.9030    9.4620    0.9260 O.2   113  ASN113     -0.2715
     33  CB        34.8470   11.3150    0.2570 C.3   113  ASN113      0.1195
     34  CG        34.2610   11.2600    1.6520 C.2   113  ASN113      0.2630
     35  OD1       33.8470   10.2060    2.1330 O.2   113  ASN113     -0.2716
     36  ND2       34.2450   12.4150    2.3170 N.am  113  ASN113     -0.0877
     37  N         35.5830    7.7210    0.3830 N.am  114  LEU114     -0.1964
     38  CA        36.5380    6.7070    0.8210 C.3   114  LEU114      0.1713
     39  C         37.3440    6.2540   -0.4050 C.2   114  LEU114      0.2458
     40  O         36.9370    6.4880   -1.5470 O.2   114  LEU114     -0.2730
     41  CB        35.8190    5.5120    1.4110 C.3   114  LEU114      0.0310
     42  CG        35.2850    5.6760    2.8380 C.3   114  LEU114      0.0022
     43  CD1       34.4210    4.4860    3.2610 C.3   114  LEU114      0.0001
     44  CD2       36.4540    5.8530    3.8240 C.3   114  LEU114      0.0001
     45  N         38.5020    5.6070   -0.1870 N.am  115  PRO115     -0.2716
     46  CA        39.3470    5.1610   -1.2940 C.3   115  PRO115      0.1536
     47  C         38.7860    3.8680   -1.8730 C.2   115  PRO115      0.2598
     48  O         39.2490    2.7770   -1.5670 O.2   115  PRO115     -0.2715
     49  CB        40.7180    5.0180   -0.6460 C.3   115  PRO115      0.0310
     50  CG        40.4020    4.6410    0.7730 C.3   115  PRO115      0.0237
     51  CD        39.1540    5.3640    1.1120 C.3   115  PRO115      0.0939
     52  N         37.7430    4.0190   -2.6770 N.am  116  VAL116     -0.1964
     53  CA        36.9700    2.9120   -3.1790 C.3   116  VAL116      0.1727
     54  C         37.7620    1.9510   -4.0450 C.2   116  VAL116      0.2616
     55  O         37.5180    0.7450   -4.0130 O.2   116  VAL116     -0.2715
     56  CB        35.6660    3.3680   -3.8880 C.3   116  VAL116      0.0290
     57  CG1       34.7340    3.9990   -2.8690 C.3   116  VAL116      0.0023
     58  CG2       35.9380    4.3240   -5.0710 C.3   116  VAL116      0.0023
     59  N         38.7250    2.4500   -4.8120 N.am  117  LYS117     -0.1977
     60  CA        39.5710    1.5750   -5.6020 C.3   117  LYS117      0.1596
     61  C         40.5780    0.8040   -4.7270 C.2   117  LYS117      0.2287
     62  O         40.8100   -0.3820   -4.9550 O.2   117  LYS117     -0.2864
     63  CB        40.2610    2.3100   -6.7210 C.3   117  LYS117      0.0298
     64  CG        39.3130    2.6580   -7.8510 C.3   117  LYS117      0.0038
     65  CD        40.0290    3.1780   -9.0600 C.3   117  LYS117      0.0206
     66  CE        39.0740    3.5200  -10.1950 C.3   117  LYS117      0.1093
     67  NZ        39.8370    4.0710  -11.3410 N.3   117  LYS117     -0.1314
     68  N         34.1230   10.7210    6.3740 N.3   159  ARG159     -0.1245
     69  CA        34.2700    9.8960    5.2010 C.3   159  ARG159      0.1563
     70  C         33.1850    8.8260    5.2490 C.2   159  ARG159      0.2260
     71  O         32.8140    8.3300    6.3040 O.2   159  ARG159     -0.2867
     72  CB        35.6630    9.2890    5.0640 C.3   159  ARG159      0.0307
     73  CG        36.7190   10.3570    4.7590 C.3   159  ARG159      0.0489
     74  CD        38.0210    9.7430    4.3340 C.3   159  ARG159      0.2205
     75  NE        39.0570   10.7600    4.2240 N.pl3 159  ARG159     -0.0865
     76  CZ        39.2730   11.5560    3.1730 C.cat 159  ARG159      0.5346
     77  NH1       38.5300   11.4830    2.0510 N.pl3 159  ARG159      0.1354
     78  NH2       40.2580   12.4430    3.2530 N.pl3 159  ARG159      0.1354
     79  N         42.0390    4.7470    4.5840 N.3   197  SER197     -0.1202
     80  CA        42.9030    5.7520    5.1270 C.3   197  SER197      0.2020
     81  C         42.4090    7.0880    4.6010 C.2   197  SER197      0.2619
     82  O         41.3910    7.1670    3.8810 O.2   197  SER197     -0.2717
     83  CB        44.3270    5.5090    4.6610 C.3   197  SER197      0.2103
     84  OG        44.4690    5.8000    3.2720 O.3   197  SER197     -0.2182
     85  N         43.1250    8.1340    4.9940 N.am  198  ASN198     -0.1960
     86  CA        42.8730    9.4930    4.5110 C.3   198  ASN198      0.1819
     87  C         43.6880    9.8440    3.2790 C.2   198  ASN198      0.2621
     88  O         43.6730   10.9890    2.8260 O.2   198  ASN198     -0.2715
     89  CB        43.1080   10.5020    5.6410 C.3   198  ASN198      0.1195
     90  CG        42.0480   10.4060    6.7100 C.2   198  ASN198      0.2630
     91  OD1       40.8480   10.3770    6.4050 O.2   198  ASN198     -0.2716
     92  ND2       42.4720   10.3560    7.9730 N.am  198  ASN198     -0.0877
     93  N         44.3900    8.8770    2.7150 N.am  199  ASP199     -0.1957
     94  CA        45.2310    9.1300    1.5600 C.3   199  ASP199      0.1840
     95  C         44.4210    9.0860    0.2790 C.2   199  ASP199      0.2622
     96  O         43.3020    8.5780    0.2240 O.2   199  ASP199     -0.2715
     97  CB        46.3280    8.0760    1.4950 C.3   199  ASP199      0.1450
     98  CG        47.2200    8.1110    2.6940 C.2   199  ASP199      0.3671
     99  OD1       48.0310    9.0550    2.8270 O.co2 199  ASP199     -0.2456
    100  OD2       47.1100    7.1830    3.5110 O.co2 199  ASP199     -0.2456
    101  N         45.0140    9.6350   -0.7630 N.am  200  GLU200     -0.1963
    102  CA        44.4000    9.6170   -2.0760 C.3   200  GLU200      0.1733
    103  C         44.1010    8.1910   -2.4940 C.2   200  GLU200      0.2616
    104  O         44.8790    7.2950   -2.2010 O.2   200  GLU200     -0.2715
    105  CB        45.3320   10.2520   -3.1100 C.3   200  GLU200      0.0429
    106  CG        44.6830   10.4530   -4.4780 C.3   200  GLU200      0.1163
    107  CD        45.5510   11.1660   -5.4850 C.2   200  GLU200      0.3649
    108  OE1       46.6430   11.6430   -5.1200 O.co2 200  GLU200     -0.2457
    109  OE2       45.1260   11.2630   -6.6630 O.co2 200  GLU200     -0.2457
    110  N         42.9790    7.9830   -3.1690 N.am  201  ASP201     -0.1957
    111  CA        42.6310    6.6810   -3.6880 C.3   201  ASP201      0.1840
    112  C         43.6090    6.2480   -4.7780 C.2   201  ASP201      0.2622
    113  O         44.2510    7.0740   -5.4230 O.2   201  ASP201     -0.2715
    114  CB        41.2170    6.7130   -4.2590 C.3   201  ASP201      0.1450
    115  CG        40.5980    5.3180   -4.4050 C.2   201  ASP201      0.3671
    116  OD1       41.1430    4.3510   -3.8400 O.co2 201  ASP201     -0.2456
    117  OD2       39.5100    5.2090   -5.0520 O.co2 201  ASP201     -0.2456
    118  N         43.6760    4.9480   -5.0130 N.am  202  LEU202     -0.1963
    119  CA        44.3550    4.4090   -6.1440 C.3   202  LEU202      0.1728
    120  C         43.5660    4.8150   -7.3870 C.2   202  LEU202      0.2616
    121  O         42.3390    5.1180   -7.3180 O.2   202  LEU202     -0.2715
    122  CB        44.4470    2.8860   -6.0530 C.3   202  LEU202      0.0311
    123  CG        45.0810    2.3240   -4.7980 C.3   202  LEU202      0.0022
    124  CD1       45.1790    0.7860   -4.8850 C.3   202  LEU202      0.0001
    125  CD2       46.4350    2.9990   -4.5170 C.3   202  LEU202      0.0001
    126  N         44.2680    4.8570   -8.5150 N.am  203  HIS203     -0.1973
    127  CA        43.6900    5.1150   -9.8310 C.3   203  HIS203      0.1656
    128  C         43.9890    3.9660  -10.7910 C.2   203  HIS203      0.2291
    129  O         44.4050    4.1530  -11.9250 O.2   203  HIS203     -0.2864
    130  CB        44.1460    6.4760  -10.3610 C.3   203  HIS203      0.0771
    131  CG        43.8140    7.5890   -9.4280 C.ar  203  HIS203      0.0820
    132  ND1       42.5140    7.9480   -9.1450 N.ar  203  HIS203     -0.2267
    133  CD2       44.6000    8.4160   -8.6990 C.ar  203  HIS203      0.1154
    134  CE1       42.5150    8.9640   -8.2940 C.ar  203  HIS203      0.1986
    135  NE2       43.7700    9.2720   -8.0170 N.ar  203  HIS203     -0.2212
@<TRIPOS>BOND
     1   129   128    2
     2    11     9    1
     3    67    66    1
     4     9    10    1
     5     9     8    2
     6   128   127    1
     7   130   127    1
     8   130   131    1
     9     8     7    1
    10    66    65    1
    11   127   126    1
    12    22    20   ar
    13    22    21   ar
    14     7     6    1
    15   131   132   ar
    16   131   133   ar
    17    20    18   ar
    18   132   134   ar
    19    65    64    1
    20    21    19   ar
    21   133   135   ar
    22   126   120   am
    23   134   135   ar
    24     6     5    1
    25    18    17   ar
    26    64    63    1
    27     5     2    1
    28    19    17   ar
    29   120   121    2
    30   120   119    1
    31    17    16    1
    32    63    60    1
    33   109   107   ar
    34     2     1    1
    35     2     3    1
    36   119   122    1
    37   119   118    1
    38   122   123    1
    39     3     4    2
    40    16    13    1
    41    60    59    1
    42    60    61    1
    43   107   108   ar
    44   107   106    1
    45   113   112    2
    46    58    56    1
    47   117   115   ar
    48   118   112   am
    49    62    61    2
    50   124   123    1
    51    59    54   am
    52   123   125    1
    53   112   111    1
    54    13    12    1
    55    13    14    1
    56   106   105    1
    57   115   114    1
    58   115   116   ar
    59   114   111    1
    60    54    55    2
    61    54    53    1
    62    56    53    1
    63    56    57    1
    64   111   110    1
    65    14    23   am
    66    14    15    2
    67    53    52    1
    68   110   103   am
    69   105   102    1
    70    23    24    1
    71    26    25    2
    72    52    47   am
    73   103   104    2
    74   103   102    1
    75   102   101    1
    76    47    48    2
    77    47    46    1
    78    24    27    1
    79    24    25    1
    80    27    28    1
    81    25    29   am
    82    40    39    2
    83    46    49    1
    84    46    45    1
    85   101    95   am
    86    49    50    1
    87    29    30    1
    88    39    45   am
    89    39    38    1
    90    30    33    1
    91    30    31    1
    92    45    51    1
    93    96    95    2
    94    33    34    1
    95    95    94    1
    96    31    37   am
    97    31    32    2
    98    37    38    1
    99    50    51    1
   100    38    41    1
   101    41    42    1
   102    97    94    1
   103    97    98    1
   104    94    93    1
   105    34    35    2
   106    34    36   am
   107    77    76    1
   108    98    99   ar
   109    98   100   ar
   110    93    87   am
   111    88    87    2
   112    42    43    1
   113    42    44    1
   114    76    78    1
   115    76    75    2
   116    84    83    1
   117    87    86    1
   118    82    81    2
   119    75    74    1
   120    74    73    1
   121    86    85    1
   122    86    89    1
   123    79    80    1
   124    81    85   am
   125    81    80    1
   126    83    80    1
   127    73    72    1
   128    72    69    1
   129    69    70    1
   130    69    68    1
   131    70    71    2
   132    89    90    1
   133    91    90    2
   134    90    92   am
