@<TRIPOS>MOLECULE
tmp/3gj9A00.pdb
 195 192 0 0 0
SMALL
GASTEIGER

@<TRIPOS>ATOM
      1  N         -6.5390   47.6750   20.8340 N.3    18  LEU18      -0.1231
      2  CA        -7.8910   47.6590   20.2980 C.3    18  LEU18       0.1693
      3  C         -8.2590   46.2070   20.0380 C.2    18  LEU18       0.2592
      4  O         -7.6670   45.5350   19.1970 O.2    18  LEU18      -0.2718
      5  CB        -7.9690   48.4910   19.0210 C.3    18  LEU18       0.0284
      6  CG        -7.7750   49.9880   19.2790 C.3    18  LEU18       0.0019
      7  CD1       -7.7460   50.7320   17.9610 C.3    18  LEU18       0.0001
      8  CD2       -8.9040   50.5110   20.1630 C.3    18  LEU18       0.0001
      9  N         -9.2460   45.7320   20.7800 N.am   19  ILE19      -0.1966
     10  CA        -9.6850   44.3520   20.7000 C.3    19  ILE19       0.1727
     11  C        -10.9860   44.1610   19.9370 C.2    19  ILE19       0.2616
     12  O        -11.9270   44.9370   20.0780 O.2    19  ILE19      -0.2715
     13  CB        -9.8500   43.8030   22.1350 C.3    19  ILE19       0.0290
     14  CG1       -8.5180   43.9710   22.8780 C.3    19  ILE19       0.0022
     15  CG2      -10.3530   42.3630   22.1160 C.3    19  ILE19       0.0023
     16  CD1       -8.6390   43.9380   24.3880 C.3    19  ILE19       0.0001
     17  N        -11.0300   43.1090   19.1280 N.am   20  LEU20      -0.1963
     18  CA       -12.2240   42.7760   18.3640 C.3    20  LEU20       0.1728
     19  C        -12.9700   41.5940   19.0020 C.2    20  LEU20       0.2617
     20  O        -14.1950   41.4870   18.9060 O.2    20  LEU20      -0.2715
     21  CB       -11.8370   42.4450   16.9280 C.3    20  LEU20       0.0311
     22  CG       -11.5620   43.6780   16.0740 C.3    20  LEU20       0.0022
     23  CD1      -11.0690   43.2680   14.6890 C.3    20  LEU20       0.0001
     24  CD2      -12.8540   44.5000   15.9770 C.3    20  LEU20       0.0001
     25  N        -12.2160   40.7040   19.6400 N.am   21  GLY21      -0.1940
     26  CA       -12.8170   39.5630   20.2930 C.3    21  GLY21       0.2014
     27  C        -13.0950   38.3400   19.4360 C.2    21  GLY21       0.2639
     28  O        -14.1230   37.6820   19.6240 O.2    21  GLY21      -0.2714
     29  N        -12.2020   38.0300   18.4990 N.am   22  PHE22      -0.1959
     30  CA       -12.3870   36.8510   17.6720 C.3    22  PHE22       0.1771
     31  C        -11.0760   36.4250   17.0090 C.2    22  PHE22       0.2620
     32  O        -10.1030   37.1730   17.0260 O.2    22  PHE22      -0.2715
     33  CB       -13.5220   37.0840   16.6510 C.3    22  PHE22       0.0574
     34  CG       -13.1340   37.9070   15.4420 C.ar   22  PHE22      -0.0200
     35  CD1      -12.7210   37.2830   14.2620 C.ar   22  PHE22      -0.0042
     36  CD2      -13.2400   39.2970   15.4600 C.ar   22  PHE22      -0.0042
     37  CE1      -12.4230   38.0260   13.1220 C.ar   22  PHE22      -0.0003
     38  CE2      -12.9410   40.0570   14.3160 C.ar   22  PHE22      -0.0003
     39  CZ       -12.5360   39.4170   13.1440 C.ar   22  PHE22      -0.0000
     40  N        -11.0320   35.2100   16.4650 N.am   23  SER23      -0.1936
     41  CA        -9.8110   34.7250   15.8210 C.3    23  SER23       0.2055
     42  C        -10.0380   34.2920   14.3930 C.2    23  SER23       0.2643
     43  O        -11.1330   33.9040   14.0120 O.2    23  SER23      -0.2714
     44  CB        -9.2070   33.5660   16.6050 C.3    23  SER23       0.2130
     45  OG        -8.8290   33.9970   17.8930 O.3    23  SER23      -0.2179
     46  N         -8.9830   34.3500   13.5990 N.am   24  ILE24      -0.1963
     47  CA        -9.1050   33.9730   12.2070 C.3    24  ILE24       0.1727
     48  C         -8.1180   32.9020   11.7730 C.2    24  ILE24       0.2617
     49  O         -7.0730   32.6940   12.3910 O.2    24  ILE24      -0.2715
     50  CB        -8.9260   35.2000   11.2690 C.3    24  ILE24       0.0290
     51  CG1       -7.5420   35.8140   11.4740 C.3    24  ILE24       0.0022
     52  CG2      -10.0100   36.2230   11.5280 C.3    24  ILE24       0.0023
     53  CD1       -7.1600   36.8270   10.4210 C.3    24  ILE24       0.0001
     54  N         -8.4920   32.2350   10.6870 N.am   25  GLY25      -0.1940
     55  CA        -7.6840   31.1930   10.0880 C.3    25  GLY25       0.2014
     56  C         -7.9280   31.2860    8.5950 C.2    25  GLY25       0.2639
     57  O         -8.9720   31.7810    8.1600 O.2    25  GLY25      -0.2714
     58  N         -6.9770   30.8330    7.7920 N.am   26  GLY26      -0.1954
     59  CA        -7.1710   30.9110    6.3570 C.3    26  GLY26       0.1869
     60  C         -6.1610   31.8110    5.6770 C.2    26  GLY26       0.2309
     61  O         -5.2140   32.3030    6.3030 O.2    26  GLY26      -0.2863
     62  N         -1.8140   31.8910    1.6260 N.3    29  ASP29      -0.1225
     63  CA        -0.5230   31.3720    2.0630 C.3    29  ASP29       0.1805
     64  C         -0.6920   30.2430    3.0760 C.2    29  ASP29       0.2598
     65  O          0.2570   29.8700    3.7700 O.2    29  ASP29      -0.2718
     66  CB         0.3180   32.5020    2.6760 C.3    29  ASP29       0.1424
     67  CG        -0.2970   33.0780    3.9430 C.2    29  ASP29       0.3668
     68  OD1       -1.5240   33.3090    3.9560 O.co2  29  ASP29      -0.2456
     69  OD2        0.4490   33.3100    4.9200 O.co2  29  ASP29      -0.2456
     70  N         -1.9000   29.6940    3.1520 N.am   30  GLN30      -0.1965
     71  CA        -2.1880   28.6170    4.0950 C.3    30  GLN30       0.1733
     72  C         -2.8430   27.4010    3.4270 C.2    30  GLN30       0.2616
     73  O         -3.4560   27.5160    2.3590 O.2    30  GLN30      -0.2715
     74  CB        -3.0980   29.1440    5.2100 C.3    30  GLN30       0.0408
     75  CG        -2.5750   30.3920    5.9230 C.3    30  GLN30       0.0908
     76  CD        -1.3400   30.1260    6.7650 C.2    30  GLN30       0.2608
     77  OE1       -1.3820   29.3420    7.7080 O.2    30  GLN30      -0.2717
     78  NE2       -0.2340   30.7820    6.4280 N.am   30  GLN30      -0.0878
     79  N         -2.7120   26.2420    4.0700 N.am   31  ASP31      -0.1971
     80  CA        -3.2840   24.9960    3.5660 C.3    31  ASP31       0.1709
     81  C         -4.7930   24.9710    3.8150 C.2    31  ASP31       0.2293
     82  O         -5.2370   24.6880    4.9250 O.2    31  ASP31      -0.2864
     83  CB        -2.6150   23.8110    4.2630 C.3    31  ASP31       0.1436
     84  CG        -3.0240   22.4760    3.6700 C.2    31  ASP31       0.3671
     85  OD1       -2.9350   22.3220    2.4340 O.co2  31  ASP31      -0.2456
     86  OD2       -3.4280   21.5790    4.4400 O.co2  31  ASP31      -0.2456
     87  N         -7.1040   22.1710    5.7360 N.3    34  GLN34      -0.1231
     88  CA        -7.2280   22.1030    7.1830 C.3    34  GLN34       0.1698
     89  C         -8.2990   23.0810    7.6630 C.2    34  GLN34       0.2592
     90  O         -8.1440   23.7340    8.6890 O.2    34  GLN34      -0.2718
     91  CB        -5.8820   22.4210    7.8510 C.3    34  GLN34       0.0381
     92  CG        -4.7240   21.5380    7.3910 C.3    34  GLN34       0.0905
     93  CD        -3.5040   21.6280    8.3060 C.2    34  GLN34       0.2608
     94  OE1       -3.5120   21.1140    9.4260 O.2    34  GLN34      -0.2717
     95  NE2       -2.4510   22.2880    7.8300 N.am   34  GLN34      -0.0878
     96  N         -9.3890   23.1760    6.9140 N.am   35  ASN35      -0.1961
     97  CA       -10.4670   24.0790    7.2760 C.3    35  ASN35       0.1804
     98  C        -11.7910   23.3420    7.3660 C.2    35  ASN35       0.2463
     99  O        -12.3950   22.9910    6.3520 O.2    35  ASN35      -0.2730
    100  CB       -10.5690   25.2100    6.2580 C.3    35  ASN35       0.1195
    101  CG       -11.5500   26.2840    6.6760 C.2    35  ASN35       0.2630
    102  OD1      -11.3310   27.4630    6.4110 O.2    35  ASN35      -0.2716
    103  ND2      -12.6420   25.8840    7.3210 N.am   35  ASN35      -0.0877
    104  N        -12.2670   23.1130    8.5990 N.am   36  PRO36      -0.2716
    105  CA       -13.5230   22.4180    8.8880 C.3    36  PRO36       0.1536
    106  C        -14.8120   23.1830    8.5830 C.2    36  PRO36       0.2598
    107  O        -15.8850   22.5830    8.5080 O.2    36  PRO36      -0.2715
    108  CB       -13.3920   22.1020   10.3710 C.3    36  PRO36       0.0310
    109  CG       -12.6090   23.2800   10.8830 C.3    36  PRO36       0.0237
    110  CD       -11.5410   23.4290    9.8430 C.3    36  PRO36       0.0939
    111  N        -14.7160   24.4950    8.3910 N.am   37  PHE37      -0.1974
    112  CA       -15.9130   25.3010    8.1460 C.3    37  PHE37       0.1639
    113  C        -16.2780   25.5230    6.6900 C.2    37  PHE37       0.2290
    114  O        -17.3830   25.9740    6.3880 O.2    37  PHE37      -0.2864
    115  CB       -15.7670   26.6490    8.8530 C.3    37  PHE37       0.0560
    116  CG       -15.3550   26.5240   10.2880 C.ar   37  PHE37      -0.0200
    117  CD1      -16.2200   25.9770   11.2260 C.ar   37  PHE37      -0.0042
    118  CD2      -14.0750   26.8800   10.6850 C.ar   37  PHE37      -0.0042
    119  CE1      -15.8170   25.7770   12.5360 C.ar   37  PHE37      -0.0003
    120  CE2      -13.6570   26.6860   11.9950 C.ar   37  PHE37      -0.0003
    121  CZ       -14.5310   26.1310   12.9250 C.ar   37  PHE37      -0.0000
    122  N        -11.5870   32.7500    7.5520 N.3    47  TYR47      -0.1241
    123  CA       -12.6850   32.2480    8.3670 C.3    47  TYR47       0.1605
    124  C        -12.5300   32.5900    9.8300 C.2    47  TYR47       0.2264
    125  O        -11.4070   32.6990   10.3390 O.2    47  TYR47      -0.2867
    126  CB       -12.7660   30.7300    8.2490 C.3    47  TYR47       0.0534
    127  CG       -13.3660   30.2340    6.9630 C.ar   47  TYR47      -0.0201
    128  CD1      -14.7340   29.9430    6.8810 C.ar   47  TYR47      -0.0009
    129  CD2      -12.5740   30.0550    5.8240 C.ar   47  TYR47      -0.0009
    130  CE1      -15.2990   29.4850    5.6990 C.ar   47  TYR47       0.0417
    131  CE2      -13.1320   29.5940    4.6290 C.ar   47  TYR47       0.0417
    132  CZ       -14.4960   29.3090    4.5750 C.ar   47  TYR47       0.1957
    133  OH       -15.0560   28.8420    3.4140 O.3    47  TYR47      -0.2866
    134  N        -12.4600   31.4880   13.3520 N.3    49  THR49      -0.1203
    135  CA       -12.2560   30.2370   14.0640 C.3    49  THR49       0.1994
    136  C        -12.6120   30.3180   15.5440 C.2    49  THR49       0.2617
    137  O        -12.7590   29.2990   16.2130 O.2    49  THR49      -0.2717
    138  CB       -10.8050   29.7790   13.9690 C.3    49  THR49       0.1784
    139  OG1       -9.9710   30.7230   14.6410 O.3    49  THR49      -0.2211
    140  CG2      -10.3720   29.6790   12.5390 C.3    49  THR49       0.0376
    141  N        -12.7540   31.5320   16.0540 N.am   50  ARG50      -0.1979
    142  CA       -13.0770   31.7300   17.4580 C.3    50  ARG50       0.1597
    143  C        -13.8050   33.0380   17.6870 C.2    50  ARG50       0.2287
    144  O        -13.5530   34.0270   17.0020 O.2    50  ARG50      -0.2864
    145  CB       -11.7950   31.7260   18.2900 C.3    50  ARG50       0.0334
    146  CG       -11.2220   30.3620   18.5700 C.3    50  ARG50       0.0492
    147  CD        -9.8060   30.4720   19.0700 C.3    50  ARG50       0.2205
    148  NE        -9.3390   29.2210   19.6600 N.pl3  50  ARG50      -0.0865
    149  CZ        -8.0560   28.8800   19.7710 C.cat  50  ARG50       0.5346
    150  NH1       -7.1020   29.6920   19.3240 N.pl3  50  ARG50       0.1354
    151  NH2       -7.7260   27.7290   20.3420 N.pl3  50  ARG50       0.1354
    152  N         -2.7380   35.4290    5.2330 N.3    81  HIS81      -0.1226
    153  CA        -3.1110   35.5050    6.6310 C.3    81  HIS81       0.1752
    154  C         -2.7360   36.8510    7.2320 C.2    81  HIS81       0.2596
    155  O         -3.5800   37.5220    7.8130 O.2    81  HIS81      -0.2718
    156  CB        -2.4380   34.3900    7.4220 C.3    81  HIS81       0.0759
    157  CG        -3.0240   34.1790    8.7830 C.ar   81  HIS81       0.0818
    158  ND1       -4.2170   33.5180    8.9850 N.ar   81  HIS81      -0.2268
    159  CD2       -2.5870   34.5490   10.0100 C.ar   81  HIS81       0.1154
    160  CE1       -4.4870   33.4890   10.2760 C.ar   81  HIS81       0.1986
    161  NE2       -3.5140   34.1080   10.9200 N.ar   81  HIS81      -0.2212
    162  N         -1.4710   37.2420    7.0950 N.am   82  ASP82      -0.1974
    163  CA        -1.0000   38.5160    7.6310 C.3    82  ASP82       0.1709
    164  C         -1.7580   39.7190    7.0910 C.2    82  ASP82       0.2293
    165  O         -1.9820   40.6900    7.8120 O.2    82  ASP82      -0.2864
    166  CB         0.4870   38.7070    7.3450 C.3    82  ASP82       0.1436
    167  CG         1.3650   38.1130    8.4190 C.2    82  ASP82       0.3671
    168  OD1        2.5970   38.3330    8.3690 O.co2  82  ASP82      -0.2456
    169  OD2        0.8240   37.4290    9.3140 O.co2  82  ASP82      -0.2456
    170  N         -4.9450   40.0230    8.7950 N.3    85  ARG85      -0.1245
    171  CA        -4.6310   40.3900   10.1680 C.3    85  ARG85       0.1563
    172  C         -4.4080   41.8980   10.2660 C.2    85  ARG85       0.2260
    173  O         -4.8530   42.5460   11.2080 O.2    85  ARG85      -0.2867
    174  CB        -3.3810   39.6270   10.6240 C.3    85  ARG85       0.0307
    175  CG        -3.2230   39.4750   12.1310 C.3    85  ARG85       0.0489
    176  CD        -2.3880   40.5830   12.7770 C.3    85  ARG85       0.2205
    177  NE        -0.9410   40.3500   12.6840 N.pl3  85  ARG85      -0.0865
    178  CZ        -0.1940   40.5910   11.6060 C.cat  85  ARG85       0.5346
    179  NH1       -0.7420   41.0820   10.5000 N.pl3  85  ARG85       0.1354
    180  NH2        1.1070   40.3390   11.6330 N.pl3  85  ARG85       0.1354
    181  N         -7.6280   44.1390    9.8190 N.3    88  LEU88      -0.1231
    182  CA        -8.5850   44.0770   10.9130 C.3    88  LEU88       0.1693
    183  C         -8.0140   44.7840   12.1200 C.2    88  LEU88       0.2592
    184  O         -8.7190   45.0600   13.0770 O.2    88  LEU88      -0.2718
    185  CB        -8.8880   42.6250   11.2710 C.3    88  LEU88       0.0284
    186  CG        -9.6170   41.7940   10.2190 C.3    88  LEU88       0.0019
    187  CD1       -9.4900   40.3230   10.5550 C.3    88  LEU88       0.0001
    188  CD2      -11.0630   42.2040   10.1510 C.3    88  LEU88       0.0001
    189  N         -6.7270   45.0850   12.0730 N.am   89  THR89      -0.1953
    190  CA        -6.0950   45.7470   13.1910 C.3    89  THR89       0.1897
    191  C         -5.5830   47.1570   12.9150 C.2    89  THR89       0.2313
    192  O         -4.6900   47.6330   13.6130 O.2    89  THR89      -0.2863
    193  CB        -4.9550   44.8940   13.7280 C.3    89  THR89       0.1794
    194  OG1       -4.0430   44.5920   12.6670 O.3    89  THR89      -0.2208
    195  CG2       -5.5030   43.6030   14.3010 C.3    89  THR89       0.0378
@<TRIPOS>BOND
     1    62    63    1
     2    63    66    1
     3    63    64    1
     4    73    72    2
     5    85    84   ar
     6    66    67    1
     7    64    70   am
     8    64    65    2
     9    70    71    1
    10   133   132    1
    11    72    79   am
    12    72    71    1
    13    80    81    1
    14    80    79    1
    15    80    83    1
    16    84    83    1
    17    84    86   ar
    18    81    82    2
    19    67    68   ar
    20    67    69   ar
    21    71    74    1
    22   132   131   ar
    23   132   130   ar
    24   131   129   ar
    25    74    75    1
    26   152   153    1
    27    60    61    2
    28    60    59    1
    29   130   128   ar
    30    87    88    1
    31   129   127   ar
    32    75    76    1
    33   100   101    1
    34   100    97    1
    35    99    98    2
    36    59    58    1
    37   114   113    2
    38   102   101    2
    39    78    76   am
    40   153   154    1
    41   153   156    1
    42   101   103   am
    43   113   112    1
    44    76    77    2
    45   128   127   ar
    46    96    97    1
    47    96    89   am
    48   127   126    1
    49   164   163    1
    50   164   165    2
    51   162   154   am
    52   162   163    1
    53    88    89    1
    54    88    91    1
    55   154   155    2
    56    97    98    1
    57   166   163    1
    58   166   167    1
    59    98   104   am
    60    92    91    1
    61    92    93    1
    62   156   157    1
    63   122   123    1
    64    89    90    2
    65    58    56   am
    66    95    93   am
    67   112   111    1
    68   112   115    1
    69    57    56    2
    70   126   123    1
    71    93    94    2
    72   123   124    1
    73   168   167   ar
    74   111   106   am
    75   167   169   ar
    76   107   106    2
    77   106   105    1
    78    56    55    1
    79   104   105    1
    80   104   110    1
    81   157   158   ar
    82   157   159   ar
    83   170   171    1
    84   115   116    1
    85   105   108    1
    86   158   160   ar
    87   181   182    1
    88   124   125    2
    89   110   109    1
    90   159   161   ar
    91    55    54    1
    92   188   186    1
    93   171   172    1
    94   171   174    1
    95   186   187    1
    96   186   185    1
    97   172   173    2
    98   160   161   ar
    99   116   118   ar
   100   116   117   ar
   101   108   109    1
   102    53    51    1
   103   179   178    1
   104   174   175    1
   105   118   120   ar
   106    54    48   am
   107   182   185    1
   108   182   183    1
   109   117   119   ar
   110    50    51    1
   111    50    52    1
   112    50    47    1
   113   178   180    1
   114   178   177    2
   115    48    47    1
   116    48    49    2
   117   120   121   ar
   118   189   183   am
   119   189   190    1
   120   183   184    2
   121   175   176    1
   122    47    46    1
   123   119   121   ar
   124   140   138    1
   125   194   193    1
   126   177   176    1
   127   191   190    1
   128   191   192    2
   129    37    39   ar
   130    37    35   ar
   131    39    38   ar
   132   190   193    1
   133   134   135    1
   134    46    42   am
   135   193   195    1
   136   138   135    1
   137   138   139    1
   138    43    42    2
   139   135   136    1
   140    35    34   ar
   141    38    36   ar
   142    42    41    1
   143    23    22    1
   144    34    36   ar
   145    34    33    1
   146   136   141   am
   147   136   137    2
   148    41    40    1
   149    41    44    1
   150    24    22    1
   151   141   142    1
   152    22    21    1
   153    40    31   am
   154    44    45    1
   155    33    30    1
   156    21    18    1
   157   144   143    2
   158    31    32    2
   159    31    30    1
   160   142   143    1
   161   142   145    1
   162    30    29    1
   163     7     6    1
   164   145   146    1
   165    18    19    1
   166    18    17    1
   167    29    27   am
   168   146   147    1
   169    20    19    2
   170    19    25   am
   171     5     6    1
   172     5     2    1
   173   147   148    1
   174    17    11   am
   175     4     3    2
   176     6     8    1
   177   150   149    1
   178    27    28    2
   179    27    26    1
   180    25    26    1
   181   148   149    2
   182   149   151    1
   183    11    12    2
   184    11    10    1
   185     3     2    1
   186     3     9   am
   187     2     1    1
   188    10     9    1
   189    10    13    1
   190    15    13    1
   191    13    14    1
   192    14    16    1
