@<TRIPOS>MOLECULE
tmp/3gjbA00.pdb
 118 114 0 0 0
SMALL
GASTEIGER

@<TRIPOS>ATOM
      1  N         14.7070  -14.5400  -45.0330 N.3    99  PHE99      -0.1228
      2  CA        13.6170  -14.3650  -45.9800 C.3    99  PHE99       0.1721
      3  C         13.7090  -12.9820  -46.5800 C.2    99  PHE99       0.2437
      4  O         13.0820  -12.0460  -46.1010 O.2    99  PHE99      -0.2733
      5  CB        12.2690  -14.5160  -45.2850 C.3    99  PHE99       0.0547
      6  CG        11.9140  -15.9310  -44.9610 C.ar   99  PHE99      -0.0202
      7  CD1       11.5650  -16.8200  -45.9710 C.ar   99  PHE99      -0.0042
      8  CD2       11.9230  -16.3800  -43.6460 C.ar   99  PHE99      -0.0042
      9  CE1       11.2260  -18.1410  -45.6710 C.ar   99  PHE99      -0.0003
     10  CE2       11.5850  -17.6990  -43.3420 C.ar   99  PHE99      -0.0003
     11  CZ        11.2380  -18.5740  -44.3510 C.ar   99  PHE99      -0.0000
     12  N         14.5120  -12.8280  -47.6320 N.am  100  PRO100     -0.2718
     13  CA        14.6250  -11.5020  -48.2410 C.3   100  PRO100      0.1535
     14  C         13.5300  -11.3230  -49.2790 C.2   100  PRO100      0.2598
     15  O         12.9350  -12.2940  -49.7330 O.2   100  PRO100     -0.2715
     16  CB        16.0030  -11.5440  -48.8850 C.3   100  PRO100      0.0310
     17  CG        16.0540  -12.9600  -49.3860 C.3   100  PRO100      0.0237
     18  CD        15.5130  -13.7520  -48.1960 C.3   100  PRO100      0.0939
     19  N         13.2480  -10.0790  -49.6320 N.am  101  LYS101     -0.1978
     20  CA        12.2580   -9.8060  -50.6580 C.3   101  LYS101      0.1596
     21  C         12.6990   -8.5420  -51.3700 C.2   101  LYS101      0.2287
     22  O         12.9830   -7.5270  -50.7420 O.2   101  LYS101     -0.2864
     23  CB        10.8590   -9.6480  -50.0680 C.3   101  LYS101      0.0298
     24  CG         9.7990   -9.8670  -51.1260 C.3   101  LYS101      0.0038
     25  CD         8.4890  -10.2670  -50.5260 C.3   101  LYS101      0.0206
     26  CE         7.5160  -10.6720  -51.6110 C.3   101  LYS101      0.1093
     27  NZ         6.2000  -11.0050  -51.0130 N.3   101  LYS101     -0.1314
     28  N          7.0260  -11.5090  -56.6480 N.3   106  GLU106     -0.1245
     29  CA         5.5870  -11.6640  -56.6040 C.3   106  GLU106      0.1567
     30  C          5.1140  -12.1220  -55.2370 C.2   106  GLU106      0.2260
     31  O          5.8990  -12.6110  -54.4220 O.2   106  GLU106     -0.2867
     32  CB         5.1400  -12.6480  -57.6800 C.3   106  GLU106      0.0388
     33  CG         5.4840  -12.1900  -59.0800 C.3   106  GLU106      0.1160
     34  CD         4.9250  -13.1120  -60.1460 C.2   106  GLU106      0.3649
     35  OE1        5.3710  -14.2810  -60.2170 O.co2 106  GLU106     -0.2457
     36  OE2        4.0340  -12.6670  -60.9080 O.co2 106  GLU106     -0.2457
     37  N          2.2430  -14.3920  -52.9080 N.3   108  THR108     -0.1218
     38  CA         1.8170  -15.7790  -52.9990 C.3   108  THR108      0.1862
     39  C          0.3750  -15.8140  -52.5470 C.2   108  THR108      0.2287
     40  O         -0.0730  -14.9220  -51.8350 O.2   108  THR108     -0.2866
     41  CB         2.6420  -16.7010  -52.0850 C.3   108  THR108      0.1770
     42  OG1        2.5150  -16.2600  -50.7300 O.3   108  THR108     -0.2211
     43  CG2        4.1040  -16.6770  -52.4760 C.3   108  THR108      0.0375
     44  N         -1.8170  -20.3660  -48.4580 N.3   111  HIS111     -0.1241
     45  CA        -1.2930  -21.7200  -48.3410 C.3   111  HIS111      0.1621
     46  C         -0.6650  -21.9270  -46.9740 C.2   111  HIS111      0.2264
     47  O         -0.5060  -20.9870  -46.1940 O.2   111  HIS111     -0.2867
     48  CB        -0.2050  -21.9460  -49.3820 C.3   111  HIS111      0.0745
     49  CG         0.9460  -20.9970  -49.2480 C.ar  111  HIS111      0.0817
     50  ND1        0.8780  -19.6610  -49.5710 N.ar  111  HIS111     -0.2268
     51  CD2        2.1980  -21.1930  -48.7620 C.ar  111  HIS111      0.1154
     52  CE1        2.0540  -19.1000  -49.2790 C.ar  111  HIS111      0.1986
     53  NE2        2.8910  -19.9860  -48.7840 N.ar  111  HIS111     -0.2212
     54  N          2.7190  -23.9990  -45.2590 N.3   113  ALA113     -0.1245
     55  CA         3.9440  -24.7410  -45.5020 C.3   113  ALA113      0.1562
     56  C          4.0580  -25.9870  -44.6380 C.2   113  ALA113      0.2260
     57  O          3.4820  -26.0560  -43.5560 O.2   113  ALA113     -0.2867
     58  CB         5.1440  -23.8360  -45.2660 C.3   113  ALA113      0.0290
     59  N          9.4500  -14.9290  -36.7080 N.3   141  TRP141     -0.1241
     60  CA         9.8760  -14.1500  -37.8560 C.3   141  TRP141      0.1605
     61  C         10.1990  -12.7100  -37.4390 C.2   141  TRP141      0.2264
     62  O          9.3020  -11.9070  -37.1880 O.2   141  TRP141     -0.2867
     63  CB         8.7480  -14.1790  -38.8870 C.3   141  TRP141      0.0550
     64  CG         9.1390  -13.9600  -40.3210 C.ar  141  TRP141      0.0003
     65  CD1        9.2870  -14.9190  -41.2840 C.ar  141  TRP141      0.0946
     66  CD2        9.2970  -12.6970  -40.9830 C.ar  141  TRP141      0.0152
     67  NE1        9.5090  -14.3320  -42.5120 N.ar  141  TRP141     -0.2442
     68  CE2        9.5230  -12.9700  -42.3550 C.ar  141  TRP141      0.0810
     69  CE3        9.2650  -11.3630  -40.5520 C.ar  141  TRP141      0.0012
     70  CZ2        9.7150  -11.9570  -43.2990 C.ar  141  TRP141      0.0191
     71  CZ3        9.4530  -10.3510  -41.4930 C.ar  141  TRP141      0.0001
     72  CH2        9.6740  -10.6560  -42.8520 C.ar  141  TRP141      0.0015
     73  N          4.1120  -10.3620  -45.2570 N.3   154  LEU154     -0.1245
     74  CA         3.2930  -11.5560  -45.1270 C.3   154  LEU154      0.1561
     75  C          1.8480  -11.1710  -44.8410 C.2   154  LEU154      0.2260
     76  O          1.5500  -10.0390  -44.4500 O.2   154  LEU154     -0.2867
     77  CB         3.8070  -12.4310  -43.9790 C.3   154  LEU154      0.0270
     78  CG         5.0350  -13.3390  -44.1520 C.3   154  LEU154      0.0019
     79  CD1        6.0030  -12.7730  -45.1780 C.3   154  LEU154      0.0001
     80  CD2        5.7170  -13.5060  -42.7880 C.3   154  LEU154      0.0001
     81  N          4.3190  -17.4940  -35.2540 N.3   177  PHE177     -0.1241
     82  CA         3.2820  -18.3540  -35.8020 C.3   177  PHE177      0.1605
     83  C          3.7320  -19.7990  -36.0030 C.2   177  PHE177      0.2264
     84  O          4.9300  -20.0940  -36.1030 O.2   177  PHE177     -0.2867
     85  CB         2.8240  -17.7900  -37.1440 C.3   177  PHE177      0.0534
     86  CG         3.9320  -17.6640  -38.1550 C.ar  177  PHE177     -0.0203
     87  CD1        4.2900  -18.7400  -38.9580 C.ar  177  PHE177     -0.0042
     88  CD2        4.6200  -16.4660  -38.3070 C.ar  177  PHE177     -0.0042
     89  CE1        5.3130  -18.6260  -39.9000 C.ar  177  PHE177     -0.0003
     90  CE2        5.6470  -16.3430  -39.2480 C.ar  177  PHE177     -0.0003
     91  CZ         5.9900  -17.4230  -40.0440 C.ar  177  PHE177     -0.0000
     92  N         -1.1910  -18.6190  -44.5710 N.3   183  HIS183     -0.1241
     93  CA        -0.6480  -17.3020  -44.8390 C.3   183  HIS183      0.1621
     94  C         -0.5430  -17.0550  -46.3290 C.2   183  HIS183      0.2264
     95  O         -0.6850  -17.9710  -47.1380 O.2   183  HIS183     -0.2867
     96  CB         0.7410  -17.1390  -44.2120 C.3   183  HIS183      0.0745
     97  CG         1.7870  -17.9940  -44.8490 C.ar  183  HIS183      0.0817
     98  ND1        1.9220  -19.3440  -44.6190 N.ar  183  HIS183     -0.2268
     99  CD2        2.7200  -17.6860  -45.7810 C.ar  183  HIS183      0.1154
    100  CE1        2.9040  -19.8010  -45.4040 C.ar  183  HIS183      0.1986
    101  NE2        3.4220  -18.8320  -46.1310 N.ar  183  HIS183     -0.2212
    102  N          1.1720  -13.6580  -49.1590 N.3   185  SER185     -0.1217
    103  CA         2.1200  -12.5630  -49.1750 C.3   185  SER185      0.1889
    104  C          1.8570  -11.6750  -50.3680 C.2   185  SER185      0.2288
    105  O          1.4070  -12.1310  -51.4210 O.2   185  SER185     -0.2866
    106  CB         3.5560  -13.0800  -49.2170 C.3   185  SER185      0.2089
    107  OG         3.8140  -13.7410  -50.4430 O.3   185  SER185     -0.2183
    108  N         13.2690   -6.0960  -48.1300 N.3   196  ARG196     -0.1245
    109  CA        12.7790   -6.5320  -46.8430 C.3   196  ARG196      0.1563
    110  C         13.6000   -7.7420  -46.4500 C.2   196  ARG196      0.2260
    111  O         13.8770   -8.6060  -47.2840 O.2   196  ARG196     -0.2867
    112  CB        11.3040   -6.9040  -46.9170 C.3   196  ARG196      0.0307
    113  CG        10.8320   -7.6520  -45.6890 C.3   196  ARG196      0.0489
    114  CD        10.8530   -9.1530  -45.9330 C.3   196  ARG196      0.2205
    115  NE         9.6140   -9.6030  -46.5610 N.pl3 196  ARG196     -0.0865
    116  CZ         9.3610  -10.8550  -46.9260 C.cat 196  ARG196      0.5346
    117  NH1       10.2660  -11.8120  -46.7380 N.pl3 196  ARG196      0.1354
    118  NH2        8.1860  -11.1540  -47.4590 N.pl3 196  ARG196      0.1354
@<TRIPOS>BOND
     1    36    34   ar
     2    35    34   ar
     3    34    33    1
     4    33    32    1
     5    32    29    1
     6    28    29    1
     7    29    30    1
     8    30    31    2
     9    38    37    1
    10    38    39    1
    11    38    41    1
    12    39    40    2
    13    43    41    1
    14    41    42    1
    15    26    27    1
    16    26    25    1
    17   105   104    2
    18    21    22    2
    19    21    20    1
    20    24    25    1
    21    24    23    1
    22    20    23    1
    23    20    19    1
    24   107   106    1
    25   104   103    1
    26    15    14    2
    27    19    14   am
    28    50    52   ar
    29    50    49   ar
    30    17    16    1
    31    17    18    1
    32    48    49    1
    33    48    45    1
    34    14    13    1
    35    52    53   ar
    36    49    51   ar
    37   106   103    1
    38   103   102    1
    39    16    13    1
    40    53    51   ar
    41    44    45    1
    42    45    46    1
    43    13    12    1
    44    18    12    1
    45   108   109    1
    46    12     3   am
    47   118   116    1
    48   111   110    2
    49    95    94    2
    50    46    47    2
    51   116   117    1
    52   116   115    2
    53   112   109    1
    54   112   113    1
    55   109   110    1
    56     3     4    2
    57     3     2    1
    58   115   114    1
    59    94    93    1
    60   101    99   ar
    61   101   100   ar
    62     2     5    1
    63     2     1    1
    64     7     9   ar
    65     7     6   ar
    66   114   113    1
    67    99    97   ar
    68     9    11   ar
    69    55    58    1
    70    55    54    1
    71    55    56    1
    72   100    98   ar
    73     5     6    1
    74    73    74    1
    75    79    78    1
    76    74    75    1
    77    74    77    1
    78     6     8   ar
    79    97    98   ar
    80    97    96    1
    81    75    76    2
    82    93    92    1
    83    93    96    1
    84    56    57    2
    85    11    10   ar
    86    78    77    1
    87    78    80    1
    88     8    10   ar
    89    70    72   ar
    90    70    68   ar
    91    72    71   ar
    92    67    68   ar
    93    67    65   ar
    94    68    66   ar
    95    71    69   ar
    96    65    64   ar
    97    66    69   ar
    98    66    64   ar
    99    64    63    1
   100    91    89   ar
   101    91    90   ar
   102    89    87   ar
   103    90    88   ar
   104    87    86   ar
   105    63    60    1
   106    88    86   ar
   107    86    85    1
   108    60    61    1
   109    60    59    1
   110    61    62    2
   111    85    82    1
   112    84    83    2
   113    83    82    1
   114    82    81    1
