@<TRIPOS>MOLECULE
tmp/3gjbB00.pdb
 140 135 0 0 0
SMALL
GASTEIGER

@<TRIPOS>ATOM
      1  N         -4.9930  -11.0270  -61.0950 N.3    55  LYS55      -0.1245
      2  CA        -4.5700  -12.3100  -61.6340 C.3    55  LYS55       0.1561
      3  C         -5.6400  -12.9980  -62.4700 C.2    55  LYS55       0.2260
      4  O         -5.3110  -13.7330  -63.4010 O.2    55  LYS55      -0.2867
      5  CB        -4.0990  -13.2380  -60.5130 C.3    55  LYS55       0.0271
      6  CG        -5.1080  -13.5030  -59.4410 C.3    55  LYS55       0.0035
      7  CD        -4.5280  -14.4490  -58.4060 C.3    55  LYS55       0.0206
      8  CE        -5.5560  -14.7950  -57.3550 C.3    55  LYS55       0.1093
      9  NZ        -5.0120  -15.7100  -56.3320 N.3    55  LYS55      -0.1314
     10  N         -8.2180  -16.4370  -66.0550 N.3    61  TYR61      -0.1241
     11  CA        -9.1960  -17.2550  -65.3460 C.3    61  TYR61       0.1605
     12  C        -10.4670  -17.4370  -66.1710 C.2    61  TYR61       0.2264
     13  O        -10.8810  -16.5480  -66.9160 O.2    61  TYR61      -0.2867
     14  CB        -9.5770  -16.5920  -64.0160 C.3    61  TYR61       0.0534
     15  CG        -8.6230  -16.8280  -62.8640 C.ar   61  TYR61      -0.0201
     16  CD1       -7.2760  -17.1320  -63.0860 C.ar   61  TYR61      -0.0009
     17  CD2       -9.0610  -16.6930  -61.5440 C.ar   61  TYR61      -0.0009
     18  CE1       -6.3850  -17.2960  -62.0180 C.ar   61  TYR61       0.0417
     19  CE2       -8.1860  -16.8480  -60.4710 C.ar   61  TYR61       0.0417
     20  CZ        -6.8470  -17.1490  -60.7110 C.ar   61  TYR61       0.1957
     21  OH        -5.9780  -17.2880  -59.6490 O.3    61  TYR61      -0.2866
     22  N        -16.2670  -24.7690  -61.5590 N.3    94  TRP94      -0.1227
     23  CA       -16.4230  -23.3880  -61.1200 C.3    94  TRP94       0.1737
     24  C        -15.2620  -22.4910  -61.4980 C.2    94  TRP94       0.2595
     25  O        -15.3590  -21.2650  -61.3850 O.2    94  TRP94      -0.2718
     26  CB       -16.6280  -23.3290  -59.6010 C.3    94  TRP94       0.0564
     27  CG       -15.4070  -23.7010  -58.7930 C.ar   94  TRP94       0.0003
     28  CD1      -14.9560  -24.9610  -58.4990 C.ar   94  TRP94       0.0946
     29  CD2      -14.4740  -22.7950  -58.2040 C.ar   94  TRP94       0.0152
     30  NE1      -13.7980  -24.8900  -57.7610 N.ar   94  TRP94      -0.2442
     31  CE2      -13.4780  -23.5720  -57.5670 C.ar   94  TRP94       0.0810
     32  CE3      -14.3790  -21.3960  -58.1530 C.ar   94  TRP94       0.0012
     33  CZ2      -12.4010  -22.9950  -56.8850 C.ar   94  TRP94       0.0191
     34  CZ3      -13.3060  -20.8220  -57.4750 C.ar   94  TRP94       0.0001
     35  CH2      -12.3330  -21.6230  -56.8510 C.ar   94  TRP94       0.0015
     36  N        -14.1660  -23.0920  -61.9540 N.am   95  ARG95      -0.1980
     37  CA       -12.9970  -22.3030  -62.3280 C.3    95  ARG95       0.1597
     38  C        -11.9890  -23.0360  -63.1980 C.2    95  ARG95       0.2287
     39  O        -11.8310  -24.2530  -63.1150 O.2    95  ARG95      -0.2864
     40  CB       -12.2790  -21.8030  -61.0650 C.3    95  ARG95       0.0334
     41  CG       -10.9920  -21.0160  -61.3460 C.3    95  ARG95       0.0492
     42  CD       -11.0510  -19.6240  -60.7500 C.3    95  ARG95       0.2205
     43  NE       -10.7050  -19.6320  -59.3380 N.pl3  95  ARG95      -0.0865
     44  CZ       -10.9260  -18.6270  -58.5000 C.cat  95  ARG95       0.5346
     45  NH1      -11.5080  -17.5130  -58.9090 N.pl3  95  ARG95       0.1354
     46  NH2      -10.5380  -18.7280  -57.2470 N.pl3  95  ARG95       0.1354
     47  N         -7.9440  -22.1050  -65.0200 N.3    97  GLU97      -0.1245
     48  CA        -6.8610  -21.1240  -65.0200 C.3    97  GLU97       0.1567
     49  C         -5.5840  -21.6920  -65.6250 C.2    97  GLU97       0.2260
     50  O         -5.3910  -22.9080  -65.6850 O.2    97  GLU97      -0.2867
     51  CB        -6.5940  -20.6290  -63.5890 C.3    97  GLU97       0.0388
     52  CG        -6.4590  -21.7350  -62.5380 C.3    97  GLU97       0.1160
     53  CD        -6.4330  -21.1990  -61.1050 C.2    97  GLU97       0.3649
     54  OE1       -5.4720  -20.4900  -60.7450 O.co2  97  GLU97      -0.2457
     55  OE2       -7.3780  -21.4810  -60.3340 O.co2  97  GLU97      -0.2457
     56  N         -2.2480  -25.5360  -50.7750 N.3   113  ALA113     -0.1231
     57  CA        -2.9560  -24.3270  -51.1800 C.3   113  ALA113      0.1694
     58  C         -4.3810  -24.3370  -50.6450 C.2   113  ALA113      0.2592
     59  O         -4.9800  -25.3990  -50.4630 O.2   113  ALA113     -0.2718
     60  CB        -2.9720  -24.2160  -52.7110 C.3   113  ALA113      0.0304
     61  N         -4.9150  -23.1480  -50.3900 N.am  114  ALA114     -0.1966
     62  CA        -6.2750  -23.0130  -49.8880 C.3   114  ALA114      0.1728
     63  C         -7.1140  -22.3310  -50.9600 C.2   114  ALA114      0.2617
     64  O         -6.5790  -21.6530  -51.8340 O.2   114  ALA114     -0.2715
     65  CB        -6.2870  -22.2010  -48.6110 C.3   114  ALA114      0.0334
     66  N         -8.4270  -22.5100  -50.8960 N.am  115  THR115     -0.1937
     67  CA        -9.3130  -21.9160  -51.8850 C.3   115  THR115      0.2028
     68  C         -9.8210  -20.5330  -51.5200 C.2   115  THR115      0.2642
     69  O        -10.7900  -20.0620  -52.1030 O.2   115  THR115     -0.2714
     70  CB       -10.5220  -22.8180  -52.1540 C.3   115  THR115      0.1808
     71  OG1      -11.1150  -23.1950  -50.9090 O.3   115  THR115     -0.2208
     72  CG2      -10.0980  -24.0590  -52.9020 C.3   115  THR115      0.0379
     73  N         -9.1660  -19.8840  -50.5650 N.am  116  PHE116     -0.1959
     74  CA        -9.5620  -18.5410  -50.1490 C.3   116  PHE116      0.1771
     75  C         -9.1460  -17.5310  -51.2000 C.2   116  PHE116      0.2619
     76  O         -8.1040  -17.6890  -51.8280 O.2   116  PHE116     -0.2715
     77  CB        -8.8790  -18.1590  -48.8390 C.3   116  PHE116      0.0574
     78  CG        -9.3840  -18.9070  -47.6480 C.ar  116  PHE116     -0.0200
     79  CD1      -10.6530  -18.6510  -47.1390 C.ar  116  PHE116     -0.0042
     80  CD2       -8.5870  -19.8590  -47.0230 C.ar  116  PHE116     -0.0042
     81  CE1      -11.1200  -19.3310  -46.0230 C.ar  116  PHE116     -0.0003
     82  CE2       -9.0430  -20.5410  -45.9100 C.ar  116  PHE116     -0.0003
     83  CZ       -10.3140  -20.2780  -45.4070 C.ar  116  PHE116     -0.0000
     84  N         -9.9500  -16.4900  -51.3910 N.am  117  ALA117     -0.1963
     85  CA        -9.6110  -15.4470  -52.3590 C.3   117  ALA117      0.1728
     86  C         -8.4120  -14.7250  -51.7630 C.2   117  ALA117      0.2616
     87  O         -8.3800  -14.4760  -50.5590 O.2   117  ALA117     -0.2715
     88  CB       -10.7740  -14.4810  -52.5300 C.3   117  ALA117      0.0334
     89  N         -7.4220  -14.3920  -52.5830 N.am  118  HIS118     -0.1973
     90  CA        -6.2510  -13.7160  -52.0450 C.3   118  HIS118      0.1656
     91  C         -6.5760  -12.3090  -51.5710 C.2   118  HIS118      0.2291
     92  O         -6.3670  -11.9770  -50.4030 O.2   118  HIS118     -0.2864
     93  CB        -5.1210  -13.6420  -53.0720 C.3   118  HIS118      0.0771
     94  CG        -3.8340  -13.1310  -52.5010 C.ar  118  HIS118      0.0820
     95  ND1       -2.6910  -12.9740  -53.2540 N.ar  118  HIS118     -0.2267
     96  CD2       -3.5100  -12.7440  -51.2430 C.ar  118  HIS118      0.1154
     97  CE1       -1.7190  -12.5120  -52.4870 C.ar  118  HIS118      0.1986
     98  NE2       -2.1900  -12.3630  -51.2620 N.ar  118  HIS118     -0.2212
     99  N        -13.9540  -19.1580  -51.1920 N.3   124  GLN124     -0.1245
    100  CA       -14.5830  -19.1830  -52.5080 C.3   124  GLN124      0.1566
    101  C        -15.3890  -20.4610  -52.6920 C.2   124  GLN124      0.2260
    102  O        -16.2190  -20.5620  -53.5890 O.2   124  GLN124     -0.2867
    103  CB       -13.5160  -19.0720  -53.6000 C.3   124  GLN124      0.0367
    104  CG       -12.7520  -17.7580  -53.5740 C.3   124  GLN124      0.0905
    105  CD       -11.6300  -17.7000  -54.6020 C.2   124  GLN124      0.2608
    106  OE1      -10.7440  -18.5580  -54.6160 O.2   124  GLN124     -0.2717
    107  NE2      -11.6600  -16.6840  -55.4630 N.am  124  GLN124     -0.0878
    108  N         -7.4280  -29.7520  -54.4120 N.3   188  SER188     -0.1217
    109  CA        -6.7840  -28.4510  -54.4770 C.3   188  SER188      0.1889
    110  C         -5.8590  -28.2040  -53.2940 C.2   188  SER188      0.2288
    111  O         -4.9300  -27.4080  -53.3870 O.2   188  SER188     -0.2866
    112  CB        -7.8370  -27.3410  -54.5610 C.3   188  SER188      0.2089
    113  OG        -8.7430  -27.3970  -53.4700 O.3   188  SER188     -0.2183
    114  N        -11.2920  -26.6270  -62.2120 N.3   211  ARG211     -0.1245
    115  CA       -11.7030  -26.9450  -60.8450 C.3   211  ARG211      0.1563
    116  C        -13.1440  -27.4290  -60.7640 C.2   211  ARG211      0.2260
    117  O        -14.0540  -26.7480  -61.2240 O.2   211  ARG211     -0.2867
    118  CB       -11.5590  -25.7060  -59.9650 C.3   211  ARG211      0.0307
    119  CG       -10.2870  -24.9240  -60.1810 C.3   211  ARG211      0.0489
    120  CD        -9.1650  -25.3960  -59.2940 C.3   211  ARG211      0.2205
    121  NE        -8.0940  -24.4040  -59.2390 N.pl3 211  ARG211     -0.0865
    122  CZ        -7.0090  -24.5100  -58.4800 C.cat 211  ARG211      0.5346
    123  NH1       -6.8400  -25.5690  -57.7080 N.pl3 211  ARG211      0.1354
    124  NH2       -6.1000  -23.5460  -58.4890 N.pl3 211  ARG211      0.1354
    125  N         -9.1730   -9.3200  -57.1610 N.3   231  ASP231     -0.1239
    126  CA        -8.2150  -10.0420  -57.9900 C.3   231  ASP231      0.1674
    127  C         -8.6110  -10.0330  -59.4650 C.2   231  ASP231      0.2266
    128  O         -8.2240  -10.9170  -60.2270 O.2   231  ASP231     -0.2867
    129  CB        -8.0620  -11.4870  -57.5010 C.3   231  ASP231      0.1410
    130  CG        -7.2680  -11.5850  -56.2110 C.2   231  ASP231      0.3668
    131  OD1       -6.1660  -10.9940  -56.1500 O.co2 231  ASP231     -0.2456
    132  OD2       -7.7340  -12.2550  -55.2630 O.co2 231  ASP231     -0.2456
    133  N        -11.5860  -10.4130  -60.5820 N.3   233  ILE233     -0.1245
    134  CA       -12.8080  -11.1790  -60.7680 C.3   233  ILE233      0.1561
    135  C        -14.0380  -10.2990  -60.6320 C.2   233  ILE233      0.2260
    136  O        -14.2020   -9.5980  -59.6310 O.2   233  ILE233     -0.2867
    137  CB       -12.9540  -12.3000  -59.7230 C.3   233  ILE233      0.0252
    138  CG1      -11.8060  -13.3020  -59.8400 C.3   233  ILE233      0.0019
    139  CG2      -14.2820  -12.9940  -59.9090 C.3   233  ILE233      0.0019
    140  CD1      -11.8570  -14.4100  -58.7910 C.3   233  ILE233      0.0001
@<TRIPOS>BOND
     1    13    12    2
     2    12    11    1
     3    10    11    1
     4    50    49    2
     5    49    48    1
     6    11    14    1
     7    47    48    1
     8    48    51    1
     9    14    15    1
    10    51    52    1
    11     4     3    2
    12    38    39    2
    13    38    37    1
    14    16    15   ar
    15    16    18   ar
    16    15    17   ar
    17    52    53    1
    18     3     2    1
    19    37    36    1
    20    37    40    1
    21   114   115    1
    22    18    20   ar
    23    36    24   am
    24     2     1    1
    25     2     5    1
    26    22    23    1
    27    17    19   ar
    28    24    25    2
    29    24    23    1
    30    41    40    1
    31    41    42    1
    32   117   116    2
    33    23    26    1
    34    53    54   ar
    35    53    55   ar
    36   115   116    1
    37   115   118    1
    38   134   135    1
    39   134   133    1
    40   134   137    1
    41    42    43    1
    42    20    19   ar
    43    20    21    1
    44   135   136    2
    45     5     6    1
    46   128   127    2
    47   119   118    1
    48   119   120    1
    49   139   137    1
    50   138   137    1
    51   138   140    1
    52    26    27    1
    53   127   126    1
    54     6     7    1
    55    43    44    2
    56   120   121    1
    57   121   122    2
    58    45    44    1
    59    27    28   ar
    60    27    29   ar
    61    44    46    1
    62    28    30   ar
    63   124   122    1
    64   122   123    1
    65     7     8    1
    66    29    32   ar
    67    29    31   ar
    68    32    34   ar
    69   126   129    1
    70   126   125    1
    71    30    31   ar
    72    31    33   ar
    73   129   130    1
    74    34    35   ar
    75     8     9    1
    76    33    35   ar
    77   130   131   ar
    78   130   132   ar
    79   107   105   am
    80   106   105    2
    81   105   104    1
    82   112   109    1
    83   112   113    1
    84   109   108    1
    85   109   110    1
    86   103   104    1
    87   103   100    1
    88   102   101    2
    89   111   110    2
    90    95    94   ar
    91    95    97   ar
    92    93    94    1
    93    93    90    1
    94    72    70    1
    95    60    57    1
    96   101   100    1
    97    89    90    1
    98    89    86   am
    99    88    85    1
   100   100    99    1
   101    94    96   ar
   102    97    98   ar
   103    85    86    1
   104    85    84    1
   105    70    67    1
   106    70    71    1
   107    69    68    2
   108    90    91    1
   109    67    68    1
   110    67    66    1
   111    64    63    2
   112    76    75    2
   113    86    87    2
   114    91    92    2
   115    68    73   am
   116    84    75   am
   117    98    96   ar
   118    75    74    1
   119    57    56    1
   120    57    58    1
   121    63    66   am
   122    63    62    1
   123    58    59    2
   124    58    61   am
   125    73    74    1
   126    61    62    1
   127    74    77    1
   128    62    65    1
   129    77    78    1
   130    78    79   ar
   131    78    80   ar
   132    79    81   ar
   133    80    82   ar
   134    81    83   ar
   135    82    83   ar
