@<TRIPOS>MOLECULE
tmp/3gjdA06.pdb
 110 106 0 0 0
SMALL
GASTEIGER

@<TRIPOS>ATOM
      1  N         28.1970   27.3250   15.8430 N.3    21  LEU21      -0.1245
      2  CA        28.2290   25.8850   16.0350 C.3    21  LEU21       0.1561
      3  C         26.8490   25.3630   16.4130 C.2    21  LEU21       0.2260
      4  O         26.5320   24.1980   16.1850 O.2    21  LEU21      -0.2867
      5  CB        29.2530   25.5250   17.1200 C.3    21  LEU21       0.0270
      6  CG        30.6940   25.9530   16.8210 C.3    21  LEU21       0.0019
      7  CD1       31.6430   25.5440   17.9560 C.3    21  LEU21       0.0001
      8  CD2       31.1460   25.3580   15.4960 C.3    21  LEU21       0.0001
      9  N         26.0250   22.0820   14.4370 N.3    25  LEU25      -0.1231
     10  CA        26.3430   20.9350   15.2800 C.3    25  LEU25       0.1693
     11  C         25.2180   20.5970   16.2510 C.2    25  LEU25       0.2591
     12  O         24.8360   19.4410   16.3770 O.2    25  LEU25      -0.2718
     13  CB        27.6290   21.1890   16.0750 C.3    25  LEU25       0.0284
     14  CG        28.9560   21.2260   15.3250 C.3    25  LEU25       0.0019
     15  CD1       30.1000   21.4710   16.3130 C.3    25  LEU25       0.0001
     16  CD2       29.1680   19.9180   14.5500 C.3    25  LEU25       0.0001
     17  N         24.6940   21.6100   16.9410 N.am   26  ARG26      -0.1980
     18  CA        23.7440   21.3690   18.0180 C.3    26  ARG26       0.1597
     19  C         22.3500   21.0700   17.4960 C.2    26  ARG26       0.2287
     20  O         21.7210   20.1120   17.9350 O.2    26  ARG26      -0.2864
     21  CB        23.6900   22.5720   18.9710 C.3    26  ARG26       0.0334
     22  CG        23.1830   22.2400   20.3840 C.3    26  ARG26       0.0492
     23  CD        23.0760   23.5160   21.2420 C.3    26  ARG26       0.2205
     24  NE        22.7600   23.2440   22.6480 N.pl3  26  ARG26      -0.0865
     25  CZ        21.5310   23.0710   23.1380 C.cat  26  ARG26       0.5346
     26  NH1       20.4600   23.1280   22.3440 N.pl3  26  ARG26       0.1354
     27  NH2       21.3700   22.8240   24.4340 N.pl3  26  ARG26       0.1354
     28  N         34.5060   26.9400   26.9880 N.3   103  TYR103     -0.1227
     29  CA        34.4050   25.6880   26.2410 C.3   103  TYR103      0.1736
     30  C         34.1150   25.8760   24.7610 C.2   103  TYR103      0.2595
     31  O         34.5120   25.0630   23.9390 O.2   103  TYR103     -0.2718
     32  CB        33.4110   24.7120   26.8950 C.3   103  TYR103      0.0548
     33  CG        31.9460   25.0830   26.8480 C.ar  103  TYR103     -0.0200
     34  CD1       31.1520   24.7180   25.7620 C.ar  103  TYR103     -0.0009
     35  CD2       31.3410   25.7420   27.9160 C.ar  103  TYR103     -0.0009
     36  CE1       29.7970   25.0300   25.7310 C.ar  103  TYR103      0.0417
     37  CE2       29.9910   26.0570   27.9010 C.ar  103  TYR103      0.0417
     38  CZ        29.2270   25.6990   26.7980 C.ar  103  TYR103      0.1957
     39  OH        27.8900   26.0100   26.7630 O.3   103  TYR103     -0.2866
     40  N         33.4190   26.9520   24.4170 N.am  104  TYR104     -0.1976
     41  CA        33.0490   27.1750   23.0200 C.3   104  TYR104      0.1639
     42  C         34.2820   27.4230   22.1580 C.2   104  TYR104      0.2290
     43  O         34.3900   26.8850   21.0590 O.2   104  TYR104     -0.2864
     44  CB        32.0790   28.3600   22.9230 C.3   104  TYR104      0.0560
     45  CG        31.3020   28.5000   21.6080 C.ar  104  TYR104     -0.0198
     46  CD1       30.0140   27.9800   21.4820 C.ar  104  TYR104     -0.0009
     47  CD2       31.8410   29.1860   20.5290 C.ar  104  TYR104     -0.0009
     48  CE1       29.2830   28.1360   20.3050 C.ar  104  TYR104      0.0417
     49  CE2       31.1250   29.3560   19.3480 C.ar  104  TYR104      0.0417
     50  CZ        29.8470   28.8260   19.2380 C.ar  104  TYR104      0.1957
     51  OH        29.1190   28.9970   18.0780 O.3   104  TYR104     -0.2866
     52  N         36.0510   24.1210   21.4450 N.3   107  ILE107     -0.1245
     53  CA        35.3980   23.3210   20.3990 C.3   107  ILE107      0.1561
     54  C         35.6480   23.9580   19.0270 C.2   107  ILE107      0.2260
     55  O         35.8930   23.2670   18.0240 O.2   107  ILE107     -0.2867
     56  CB        33.8810   23.1540   20.6560 C.3   107  ILE107      0.0252
     57  CG1       33.6410   22.3350   21.9340 C.3   107  ILE107      0.0019
     58  CG2       33.2070   22.4520   19.4610 C.3   107  ILE107      0.0019
     59  CD1       32.2260   22.5360   22.5320 C.3   107  ILE107      0.0001
     60  N         20.0680   28.9610   22.9000 N.3   247  PHE247     -0.1241
     61  CA        21.4480   28.8000   22.4670 C.3   247  PHE247      0.1605
     62  C         21.6520   29.3610   21.0560 C.2   247  PHE247      0.2264
     63  O         22.6070   30.0960   20.7860 O.2   247  PHE247     -0.2867
     64  CB        21.8280   27.3190   22.4780 C.3   247  PHE247      0.0534
     65  CG        23.2960   27.0850   22.3500 C.ar  247  PHE247     -0.0203
     66  CD1       24.0850   26.9460   23.4850 C.ar  247  PHE247     -0.0042
     67  CD2       23.8960   27.0220   21.1040 C.ar  247  PHE247     -0.0042
     68  CE1       25.4460   26.7420   23.3770 C.ar  247  PHE247     -0.0003
     69  CE2       25.2640   26.8110   20.9860 C.ar  247  PHE247     -0.0003
     70  CZ        26.0370   26.6710   22.1290 C.ar  247  PHE247     -0.0000
     71  N         27.2330   14.4950   21.3730 N.3   313  ALA313     -0.1231
     72  CA        27.0140   15.7940   20.7600 C.3   313  ALA313      0.1694
     73  C         27.9460   15.9800   19.5640 C.2   313  ALA313      0.2592
     74  O         27.6870   16.8030   18.6880 O.2   313  ALA313     -0.2718
     75  CB        27.2220   16.9030   21.7810 C.3   313  ALA313      0.0304
     76  N         29.0300   15.2090   19.5280 N.am  314  PHE314     -0.1976
     77  CA        30.0720   15.4400   18.5330 C.3   314  PHE314      0.1639
     78  C         30.1900   14.3220   17.5070 C.2   314  PHE314      0.2290
     79  O         30.9230   14.4550   16.5260 O.2   314  PHE314     -0.2864
     80  CB        31.4140   15.6630   19.2280 C.3   314  PHE314      0.0560
     81  CG        31.3770   16.7690   20.2500 C.ar  314  PHE314     -0.0200
     82  CD1       31.1600   18.0790   19.8520 C.ar  314  PHE314     -0.0042
     83  CD2       31.5370   16.4970   21.6000 C.ar  314  PHE314     -0.0042
     84  CE1       31.1190   19.1050   20.7790 C.ar  314  PHE314     -0.0003
     85  CE2       31.4910   17.5250   22.5410 C.ar  314  PHE314     -0.0003
     86  CZ        31.2780   18.8210   22.1290 C.ar  314  PHE314     -0.0000
     87  N         33.6040   20.1340   30.2380 N.3   394  LEU394     -0.1231
     88  CA        32.8820   20.8260   29.1730 C.3   394  LEU394      0.1693
     89  C         31.3640   20.6820   29.3380 C.2   394  LEU394      0.2592
     90  O         30.6080   21.6490   29.2140 O.2   394  LEU394     -0.2718
     91  CB        33.3350   20.2350   27.8350 C.3   394  LEU394      0.0284
     92  CG        32.8150   20.7840   26.5110 C.3   394  LEU394      0.0019
     93  CD1       33.7940   20.4190   25.4030 C.3   394  LEU394      0.0001
     94  CD2       31.4330   20.2380   26.2100 C.3   394  LEU394      0.0001
     95  N         30.9280   19.4560   29.6080 N.am  395  ASP395     -0.1974
     96  CA        29.5110   19.1420   29.7720 C.3   395  ASP395      0.1709
     97  C         28.8920   19.8840   30.9580 C.2   395  ASP395      0.2293
     98  O         27.7610   20.3480   30.8880 O.2   395  ASP395     -0.2864
     99  CB        29.3380   17.6430   30.0120 C.3   395  ASP395      0.1436
    100  CG        29.9850   16.7910   28.9200 C.2   395  ASP395      0.3671
    101  OD1       31.1430   17.0660   28.5280 O.co2 395  ASP395     -0.2456
    102  OD2       29.3320   15.8320   28.4620 O.co2 395  ASP395     -0.2456
    103  N         28.5930   23.5930   30.0810 N.3   398  ASP398     -0.1239
    104  CA        27.5510   23.7880   29.0810 C.3   398  ASP398      0.1674
    105  C         26.1790   23.6620   29.7240 C.2   398  ASP398      0.2266
    106  O         25.2160   24.2700   29.2750 O.2   398  ASP398     -0.2867
    107  CB        27.6760   22.7690   27.9560 C.3   398  ASP398      0.1410
    108  CG        26.5060   22.8400   26.9920 C.2   398  ASP398      0.3668
    109  OD1       26.4820   23.7660   26.1590 O.co2 398  ASP398     -0.2456
    110  OD2       25.6140   21.9780   27.0840 O.co2 398  ASP398     -0.2456
@<TRIPOS>BOND
     1     9    10    1
     2    16    14    1
     3    10    13    1
     4    10    11    1
     5    14    13    1
     6    14    15    1
     7     8     6    1
     8     1     2    1
     9     2     3    1
    10     2     5    1
    11     4     3    2
    12    11    12    2
    13    11    17   am
    14    79    78    2
    15     6     5    1
    16     6     7    1
    17    17    18    1
    18    19    20    2
    19    19    18    1
    20    78    77    1
    21    18    21    1
    22    55    54    2
    23    51    50    1
    24    77    80    1
    25    77    76    1
    26    74    73    2
    27    21    22    1
    28    54    53    1
    29    80    81    1
    30    50    49   ar
    31    50    48   ar
    32    49    47   ar
    33    58    56    1
    34    76    73   am
    35    73    72    1
    36    82    81   ar
    37    82    84   ar
    38    81    83   ar
    39    48    46   ar
    40    22    23    1
    41    53    56    1
    42    53    52    1
    43    47    45   ar
    44    56    57    1
    45    72    71    1
    46    72    75    1
    47    84    86   ar
    48    63    62    2
    49    69    67   ar
    50    69    70   ar
    51    62    61    1
    52    43    42    2
    53    67    65   ar
    54    23    24    1
    55    46    45   ar
    56    83    85   ar
    57    45    44    1
    58    57    59    1
    59    70    68   ar
    60    86    85   ar
    61    42    41    1
    62    26    25    1
    63    65    64    1
    64    65    66   ar
    65    61    64    1
    66    61    60    1
    67    24    25    2
    68    44    41    1
    69    41    40    1
    70    25    27    1
    71    68    66   ar
    72    31    30    2
    73    40    30   am
    74    30    29    1
    75    93    92    1
    76    36    34   ar
    77    36    38   ar
    78    34    33   ar
    79   109   108   ar
    80    94    92    1
    81    29    32    1
    82    29    28    1
    83    92    91    1
    84    39    38    1
    85    38    37   ar
    86    33    32    1
    87    33    35   ar
    88   108   110   ar
    89   108   107    1
    90    91    88    1
    91    37    35   ar
    92   107   104    1
    93   102   100   ar
    94   101   100   ar
    95   100    99    1
    96   104   105    1
    97   104   103    1
    98    88    89    1
    99    88    87    1
   100    90    89    2
   101   106   105    2
   102    89    95   am
   103    95    96    1
   104    96    99    1
   105    96    97    1
   106    98    97    2
