@<TRIPOS>MOLECULE
tmp/3gjoB00.pdb
 128 125 0 0 0
SMALL
GASTEIGER

@<TRIPOS>ATOM
      1  N        -15.8480  -16.2430   30.2950 N.3    24  ARG24      -0.1245
      2  CA       -16.1390  -15.8780   31.6710 C.3    24  ARG24       0.1563
      3  C        -17.6590  -15.8480   31.9650 C.2    24  ARG24       0.2260
      4  O        -18.0990  -16.3210   33.0070 O.2    24  ARG24      -0.2867
      5  CB       -15.4840  -14.5270   31.9890 C.3    24  ARG24       0.0307
      6  CG       -15.8100  -13.9860   33.3740 C.3    24  ARG24       0.0489
      7  CD       -16.0440  -12.4800   33.3670 C.3    24  ARG24       0.2205
      8  NE       -16.8820  -12.0080   32.2670 N.pl3  24  ARG24      -0.0865
      9  CZ       -16.9610  -10.7320   31.8890 C.cat  24  ARG24       0.5346
     10  NH1      -16.2530   -9.8110   32.5370 N.pl3  24  ARG24       0.1354
     11  NH2      -17.7400  -10.3740   30.8650 N.pl3  24  ARG24       0.1354
     12  N        -19.6430  -17.8660   34.7250 N.3    28  PHE28      -0.1241
     13  CA       -20.4530  -17.1810   35.7180 C.3    28  PHE28       0.1605
     14  C        -21.9210  -17.6050   35.6520 C.2    28  PHE28       0.2264
     15  O        -22.5890  -17.7070   36.6880 O.2    28  PHE28      -0.2867
     16  CB       -20.3420  -15.6640   35.6150 C.3    28  PHE28       0.0534
     17  CG       -21.0480  -14.9330   36.7280 C.ar   28  PHE28      -0.0203
     18  CD1      -20.4230  -14.7420   37.9580 C.ar   28  PHE28      -0.0042
     19  CD2      -22.3420  -14.4380   36.5500 C.ar   28  PHE28      -0.0042
     20  CE1      -21.0670  -14.0580   38.9950 C.ar   28  PHE28      -0.0003
     21  CE2      -23.0000  -13.7520   37.5780 C.ar   28  PHE28      -0.0003
     22  CZ       -22.3680  -13.5640   38.8010 C.ar   28  PHE28      -0.0000
     23  N        -22.5600  -20.7810   37.4310 N.3    31  LEU31      -0.1231
     24  CA       -22.5030  -20.5340   38.8660 C.3    31  LEU31       0.1693
     25  C        -23.7700  -19.8760   39.4080 C.2    31  LEU31       0.2591
     26  O        -24.1830  -20.1660   40.5230 O.2    31  LEU31      -0.2718
     27  CB       -21.2880  -19.6800   39.2250 C.3    31  LEU31       0.0284
     28  CG       -19.9070  -20.2770   38.9710 C.3    31  LEU31       0.0019
     29  CD1      -18.8760  -19.2120   39.2060 C.3    31  LEU31       0.0001
     30  CD2      -19.6510  -21.4710   39.8790 C.3    31  LEU31       0.0001
     31  N        -24.3790  -18.9730   38.6470 N.am   32  ARG32      -0.1980
     32  CA       -25.6460  -18.4010   39.0920 C.3    32  ARG32       0.1597
     33  C        -26.7510  -19.4490   39.1420 C.2    32  ARG32       0.2287
     34  O        -27.4120  -19.6030   40.1640 O.2    32  ARG32      -0.2864
     35  CB       -26.0480  -17.2020   38.2490 C.3    32  ARG32       0.0334
     36  CG       -25.5580  -15.8960   38.8440 C.3    32  ARG32       0.0492
     37  CD       -26.3510  -15.5310   40.1010 C.3    32  ARG32       0.2205
     38  NE       -27.7260  -15.1080   39.8070 N.pl3  32  ARG32      -0.0865
     39  CZ       -28.7050  -15.0190   40.7090 C.cat  32  ARG32       0.5346
     40  NH1      -28.4860  -15.3420   41.9800 N.pl3  32  ARG32       0.1354
     41  NH2      -29.9160  -14.6200   40.3370 N.pl3  32  ARG32       0.1354
     42  N        -26.1880  -21.4360   42.1110 N.3    35  GLU35      -0.1245
     43  CA       -26.6210  -20.6000   43.2280 C.3    35  GLU35       0.1567
     44  C        -28.1500  -20.5670   43.3330 C.2    35  GLU35       0.2260
     45  O        -28.6890  -20.5860   44.4270 O.2    35  GLU35      -0.2867
     46  CB       -26.0650  -19.1710   43.1080 C.3    35  GLU35       0.0388
     47  CG       -26.4970  -18.2500   44.2650 C.3    35  GLU35       0.1160
     48  CD       -25.9290  -16.8460   44.1940 C.2    35  GLU35       0.3649
     49  OE1      -25.7720  -16.3120   43.0760 O.co2  35  GLU35      -0.2457
     50  OE2      -25.6460  -16.2610   45.2640 O.co2  35  GLU35      -0.2457
     51  N        -30.2700  -21.4670   46.6120 N.3    39  GLN39      -0.1245
     52  CA       -31.2040  -20.5400   47.2660 C.3    39  GLN39       0.1566
     53  C        -32.6790  -20.8620   46.9370 C.2    39  GLN39       0.2260
     54  O        -33.4740  -19.9950   46.5750 O.2    39  GLN39      -0.2867
     55  CB       -30.8350  -19.0700   46.9910 C.3    39  GLN39       0.0367
     56  CG       -30.8640  -18.6190   45.5280 C.3    39  GLN39       0.0905
     57  CD       -30.0320  -17.3560   45.2890 C.2    39  GLN39       0.2608
     58  OE1      -29.0500  -17.1080   45.9940 O.2    39  GLN39      -0.2717
     59  NE2      -30.4220  -16.5570   44.2900 N.am   39  GLN39      -0.0878
     60  N        -19.1740  -21.4890   46.0650 N.3    54  LEU54      -0.1231
     61  CA       -19.6000  -20.2660   45.3610 C.3    54  LEU54       0.1693
     62  C        -19.1370  -18.9700   46.0320 C.2    54  LEU54       0.2592
     63  O        -18.7070  -18.0480   45.3510 O.2    54  LEU54      -0.2718
     64  CB       -21.1200  -20.2090   45.1730 C.3    54  LEU54       0.0284
     65  CG       -21.8610  -21.3570   44.4830 C.3    54  LEU54       0.0019
     66  CD1      -23.3620  -21.1210   44.5380 C.3    54  LEU54       0.0001
     67  CD2      -21.4220  -21.5360   43.0700 C.3    54  LEU54       0.0001
     68  N        -19.2130  -18.9130   47.3580 N.am   55  TYR55      -0.1962
     69  CA       -19.0180  -17.6520   48.0820 C.3    55  TYR55       0.1771
     70  C        -17.6000  -17.3490   48.5430 C.2    55  TYR55       0.2619
     71  O        -17.3480  -16.2780   49.1110 O.2    55  TYR55      -0.2715
     72  CB       -20.0240  -17.5210   49.2440 C.3    55  TYR55       0.0574
     73  CG       -21.4610  -17.4530   48.7650 C.ar   55  TYR55      -0.0198
     74  CD1      -21.7580  -17.0740   47.4520 C.ar   55  TYR55      -0.0009
     75  CD2      -22.5150  -17.7630   49.6100 C.ar   55  TYR55      -0.0009
     76  CE1      -23.0530  -17.0190   46.9890 C.ar   55  TYR55       0.0417
     77  CE2      -23.8330  -17.6940   49.1620 C.ar   55  TYR55       0.0417
     78  CZ       -24.0890  -17.3220   47.8480 C.ar   55  TYR55       0.1957
     79  OH       -25.3740  -17.2510   47.3870 O.3    55  TYR55      -0.2866
     80  N        -16.6830  -18.2830   48.2890 N.am   56  ALA56      -0.1963
     81  CA       -15.2680  -18.1020   48.6030 C.3    56  ALA56       0.1728
     82  C        -14.7050  -16.9150   47.8170 C.2    56  ALA56       0.2616
     83  O        -14.9820  -16.7680   46.6320 O.2    56  ALA56      -0.2715
     84  CB       -14.5060  -19.3620   48.2920 C.3    56  ALA56       0.0334
     85  N        -13.9360  -16.0590   48.4910 N.am   57  THR57      -0.1951
     86  CA       -13.4420  -14.8100   47.8990 C.3    57  THR57       0.1897
     87  C        -11.9400  -14.8000   47.8560 C.2    57  THR57       0.2313
     88  O        -11.2890  -15.3100   48.7570 O.2    57  THR57      -0.2863
     89  CB       -13.8600  -13.5560   48.7190 C.3    57  THR57       0.1794
     90  OG1      -13.2650  -13.6100   50.0260 O.3    57  THR57      -0.2208
     91  CG2      -15.3820  -13.4340   48.8460 C.3    57  THR57       0.0378
     92  N         -9.1240   -9.2700   44.8270 N.3    60  GLY60      -0.1210
     93  CA        -9.6300   -8.7440   43.5620 C.3    60  GLY60       0.1956
     94  C        -11.0860   -9.0900   43.3380 C.2    60  GLY60       0.2612
     95  O        -11.6260   -8.8600   42.2590 O.2    60  GLY60      -0.2717
     96  N        -11.7230   -9.6550   44.3570 N.am   61  PHE61      -0.1962
     97  CA       -13.1290  -10.0310   44.2480 C.3    61  PHE61       0.1771
     98  C        -13.9360   -9.6350   45.4780 C.2    61  PHE61       0.2619
     99  O        -13.4700   -9.7700   46.6080 O.2    61  PHE61      -0.2715
    100  CB       -13.2770  -11.5280   43.9500 C.3    61  PHE61       0.0574
    101  CG       -12.7320  -11.9360   42.6050 C.ar   61  PHE61      -0.0200
    102  CD1      -13.5090  -11.8140   41.4590 C.ar   61  PHE61      -0.0042
    103  CD2      -11.4370  -12.4420   42.4860 C.ar   61  PHE61      -0.0042
    104  CE1      -13.0090  -12.1950   40.2160 C.ar   61  PHE61      -0.0003
    105  CE2      -10.9270  -12.8260   41.2510 C.ar   61  PHE61      -0.0003
    106  CZ       -11.7140  -12.7040   40.1130 C.ar   61  PHE61      -0.0000
    107  N        -15.1450   -9.1360   45.2350 N.am   62  VAL62      -0.1963
    108  CA       -16.0640   -8.7240   46.2940 C.3    62  VAL62       0.1727
    109  C        -17.4320   -9.3900   46.1430 C.2    62  VAL62       0.2616
    110  O        -17.9870   -9.4370   45.0430 O.2    62  VAL62      -0.2715
    111  CB       -16.2340   -7.1750   46.3340 C.3    62  VAL62       0.0290
    112  CG1      -15.0280   -6.5130   47.0080 C.3    62  VAL62       0.0023
    113  CG2      -16.4650   -6.6000   44.9250 C.3    62  VAL62       0.0023
    114  N        -17.9690   -9.9050   47.2460 N.am   63  ILE63      -0.1964
    115  CA       -19.3460  -10.4270   47.2630 C.3    63  ILE63       0.1712
    116  C        -20.3600   -9.2710   47.1350 C.2    63  ILE63       0.2458
    117  O        -20.3610   -8.3630   47.9710 O.2    63  ILE63      -0.2730
    118  CB       -19.6350  -11.3240   48.5220 C.3    63  ILE63       0.0289
    119  CG1      -21.1450  -11.5900   48.6700 C.3    63  ILE63       0.0022
    120  CG2      -19.0080  -10.7190   49.7880 C.3    63  ILE63       0.0023
    121  CD1      -21.5660  -12.3910   49.9160 C.3    63  ILE63       0.0001
    122  N        -21.2110   -9.2910   46.0820 N.am   64  PRO64      -0.2727
    123  CA       -22.1370   -8.1780   45.8390 C.3    64  PRO64       0.1402
    124  C        -23.4200   -8.2830   46.6690 C.2    64  PRO64       0.2269
    125  O        -23.3840   -8.1060   47.8890 O.2    64  PRO64      -0.2865
    126  CB       -22.4570   -8.2980   44.3390 C.3    64  PRO64       0.0296
    127  CG       -21.7250   -9.5390   43.8480 C.3    64  PRO64       0.0237
    128  CD       -21.3660  -10.3340   45.0600 C.3    64  PRO64       0.0939
@<TRIPOS>BOND
     1     1     2    1
     2    11     9    1
     3     2     3    1
     4     2     5    1
     5     9     8    2
     6     9    10    1
     7     3     4    2
     8     5     6    1
     9     8     7    1
    10     7     6    1
    11    12    13    1
    12    16    13    1
    13    16    17    1
    14    14    13    1
    15    14    15    2
    16    19    17   ar
    17    19    21   ar
    18    17    18   ar
    19    23    24    1
    20    21    22   ar
    21    18    20   ar
    22    35    36    1
    23    35    32    1
    24    31    32    1
    25    31    25   am
    26    22    20   ar
    27    36    37    1
    28    24    27    1
    29    24    25    1
    30    28    29    1
    31    28    27    1
    32    28    30    1
    33    32    33    1
    34    33    34    2
    35    25    26    2
    36    38    37    1
    37    38    39    2
    38   106   104   ar
    39   106   105   ar
    40   104   102   ar
    41    41    39    1
    42    39    40    1
    43   105   103   ar
    44   102   101   ar
    45    42    43    1
    46    95    94    2
    47   103   101   ar
    48   101   100    1
    49    67    65    1
    50    49    48   ar
    51    46    43    1
    52    46    47    1
    53    43    44    1
    54    44    45    2
    55    94    93    1
    56    94    96   am
    57    93    92    1
    58   127   126    1
    59   127   128    1
    60   100    97    1
    61    48    47    1
    62    48    50   ar
    63    97    96    1
    64    97    98    1
    65    59    57   am
    66   126   123    1
    67    65    66    1
    68    65    64    1
    69   113   111    1
    70   110   109    2
    71   128   122    1
    72    64    61    1
    73   107    98   am
    74   107   108    1
    75    57    56    1
    76    57    58    2
    77    63    62    2
    78    61    62    1
    79    61    60    1
    80    98    99    2
    81    56    55    1
    82   123   122    1
    83   123   124    1
    84    62    68   am
    85   122   116   am
    86   109   108    1
    87   109   114   am
    88   108   111    1
    89   111   112    1
    90    54    53    2
    91    51    52    1
    92    83    82    2
    93   124   125    2
    94    53    52    1
    95    76    74   ar
    96    76    78   ar
    97    55    52    1
    98   116   115    1
    99   116   117    2
   100   114   115    1
   101   115   118    1
   102    68    69    1
   103    79    78    1
   104    74    73   ar
   105    82    85   am
   106    82    81    1
   107    78    77   ar
   108    87    86    1
   109    87    88    2
   110    86    85    1
   111    86    89    1
   112    69    70    1
   113    69    72    1
   114    80    70   am
   115    80    81    1
   116    84    81    1
   117   118   119    1
   118   118   120    1
   119    70    71    2
   120   119   121    1
   121    89    91    1
   122    89    90    1
   123    73    72    1
   124    73    75   ar
   125    77    75   ar
