@<TRIPOS>MOLECULE
tmp/3gjoC00.pdb
 128 125 0 0 0
SMALL
GASTEIGER

@<TRIPOS>ATOM
      1  N        -11.0580   -8.0930    5.5970 N.3    23  ARG23      -0.1245
      2  CA       -11.1890   -8.2670    4.1500 C.3    23  ARG23       0.1563
      3  C        -12.6620   -8.2990    3.7060 C.2    23  ARG23       0.2260
      4  O        -13.0450   -7.6050    2.7630 O.2    23  ARG23      -0.2867
      5  CB       -10.4320   -9.5040    3.6870 C.3    23  ARG23       0.0307
      6  CG       -10.6580   -9.8770    2.2370 C.3    23  ARG23       0.0489
      7  CD       -10.6210  -11.3800    2.0890 C.3    23  ARG23       0.2205
      8  NE       -11.6120  -12.0030    2.9660 N.pl3  23  ARG23      -0.0865
      9  CZ       -11.6560  -13.2970    3.2720 C.cat  23  ARG23       0.5346
     10  NH1      -10.7500  -14.1430    2.7910 N.pl3  23  ARG23       0.1354
     11  NH2      -12.6040  -13.7410    4.0910 N.pl3  23  ARG23       0.1354
     12  N        -14.7440   -6.0270    1.2890 N.3    27  PHE27      -0.1241
     13  CA       -15.5290   -6.6720    0.2280 C.3    27  PHE27       0.1605
     14  C        -16.9570   -6.1450    0.2750 C.2    27  PHE27       0.2264
     15  O        -17.5280   -5.7760   -0.7650 O.2    27  PHE27      -0.2867
     16  CB       -15.5150   -8.1960    0.3510 C.3    27  PHE27       0.0534
     17  CG       -16.1260   -8.9100   -0.8370 C.ar   27  PHE27      -0.0203
     18  CD1      -15.4300   -9.0080   -2.0440 C.ar   27  PHE27      -0.0042
     19  CD2      -17.3960   -9.4960   -0.7440 C.ar   27  PHE27      -0.0042
     20  CE1      -15.9900   -9.6730   -3.1510 C.ar   27  PHE27      -0.0003
     21  CE2      -17.9690  -10.1630   -1.8390 C.ar   27  PHE27      -0.0003
     22  CZ       -17.2650  -10.2490   -3.0460 C.ar   27  PHE27      -0.0000
     23  N        -17.2870   -2.7750   -1.1710 N.3    30  LEU30      -0.1231
     24  CA       -17.1120   -2.8670   -2.6220 C.3    30  LEU30       0.1693
     25  C        -18.3560   -3.4240   -3.3250 C.2    30  LEU30       0.2591
     26  O        -18.6880   -2.9880   -4.4340 O.2    30  LEU30      -0.2718
     27  CB       -15.8750   -3.6870   -2.9890 C.3    30  LEU30       0.0284
     28  CG       -14.5180   -3.0970   -2.5770 C.3    30  LEU30       0.0019
     29  CD1      -13.3980   -4.1430   -2.6850 C.3    30  LEU30       0.0001
     30  CD2      -14.1680   -1.8400   -3.3620 C.3    30  LEU30       0.0001
     31  N        -19.0150   -4.3940   -2.6870 N.am   31  ARG31      -0.1980
     32  CA       -20.2820   -4.9460   -3.1720 C.3    31  ARG31       0.1597
     33  C        -21.3720   -3.8820   -3.2800 C.2    31  ARG31       0.2287
     34  O        -22.1260   -3.8420   -4.2580 O.2    31  ARG31      -0.2864
     35  CB       -20.7810   -6.0450   -2.2400 C.3    31  ARG31       0.0334
     36  CG       -20.1010   -7.3820   -2.4060 C.3    31  ARG31       0.0492
     37  CD       -20.4230   -8.0350   -3.7410 C.3    31  ARG31       0.2205
     38  NE       -21.8320   -8.3910   -3.9120 N.pl3  31  ARG31      -0.0865
     39  CZ       -22.6850   -7.7430   -4.7100 C.cat  31  ARG31       0.5346
     40  NH1      -22.2820   -6.6850   -5.4110 N.pl3  31  ARG31       0.1354
     41  NH2      -23.9470   -8.1540   -4.8170 N.pl3  31  ARG31       0.1354
     42  N        -20.7600   -1.4990   -6.0150 N.3    34  GLU34      -0.1245
     43  CA       -21.0900   -2.1500   -7.2730 C.3    34  GLU34       0.1567
     44  C        -22.5870   -2.0320   -7.5160 C.2    34  GLU34       0.2260
     45  O        -23.0180   -1.7830   -8.6440 O.2    34  GLU34      -0.2867
     46  CB       -20.6570   -3.6270   -7.2680 C.3    34  GLU34       0.0388
     47  CG       -20.8160   -4.3450   -8.6140 C.3    34  GLU34       0.1160
     48  CD       -20.3450   -5.7990   -8.5850 C.2    34  GLU34       0.3649
     49  OE1      -20.2130   -6.3800   -7.4860 O.co2  34  GLU34      -0.2457
     50  OE2      -20.1090   -6.3710   -9.6740 O.co2  34  GLU34      -0.2457
     51  N        -24.2940   -0.6700  -10.7480 N.3    38  GLN38      -0.1245
     52  CA       -25.1720   -1.5280  -11.5560 C.3    38  GLN38       0.1566
     53  C        -26.6260   -1.0620  -11.5260 C.2    38  GLN38       0.2260
     54  O        -27.5570   -1.8770  -11.4800 O.2    38  GLN38      -0.2867
     55  CB       -25.1070   -2.9630  -11.0410 C.3    38  GLN38       0.0367
     56  CG       -23.8440   -3.7040  -11.3870 C.3    38  GLN38       0.0905
     57  CD       -23.8690   -5.1310  -10.8800 C.2    38  GLN38       0.2608
     58  OE1      -24.2940   -5.4010   -9.7560 O.2    38  GLN38      -0.2717
     59  NE2      -23.3990   -6.0550  -11.7070 N.am   38  GLN38      -0.0878
     60  N        -13.3090   -1.8140   -9.7670 N.3    55  LEU55      -0.1231
     61  CA       -13.9030   -2.9880   -9.1240 C.3    55  LEU55       0.1693
     62  C        -13.4540   -4.2900   -9.7810 C.2    55  LEU55       0.2592
     63  O        -13.1120   -5.2390   -9.0940 O.2    55  LEU55      -0.2718
     64  CB       -15.4260   -2.9190   -9.1190 C.3    55  LEU55       0.0284
     65  CG       -16.0820   -1.8170   -8.2980 C.3    55  LEU55       0.0019
     66  CD1      -17.5990   -1.7840   -8.5830 C.3    55  LEU55       0.0001
     67  CD2      -15.7860   -1.9790   -6.8240 C.3    55  LEU55       0.0001
     68  N        -13.4410   -4.3320  -11.1080 N.am   56  TYR56      -0.1962
     69  CA       -13.2100   -5.6020  -11.8060 C.3    56  TYR56       0.1771
     70  C        -11.7440   -5.9070  -12.1710 C.2    56  TYR56       0.2619
     71  O        -11.4660   -6.9310  -12.7890 O.2    56  TYR56      -0.2715
     72  CB       -14.1290   -5.7500  -13.0350 C.3    56  TYR56       0.0574
     73  CG       -15.6310   -5.6410  -12.7620 C.ar   56  TYR56      -0.0198
     74  CD1      -16.1460   -5.7190  -11.4650 C.ar   56  TYR56      -0.0009
     75  CD2      -16.5380   -5.4920  -13.8180 C.ar   56  TYR56      -0.0009
     76  CE1      -17.5100   -5.6160  -11.2210 C.ar   56  TYR56       0.0417
     77  CE2      -17.9090   -5.3990  -13.5860 C.ar   56  TYR56       0.0417
     78  CZ       -18.3890   -5.4600  -12.2840 C.ar   56  TYR56       0.1957
     79  OH       -19.7470   -5.3720  -12.0450 O.3    56  TYR56      -0.2866
     80  N        -10.8100   -5.0410  -11.7970 N.am   57  ALA57      -0.1963
     81  CA        -9.4020   -5.3850  -11.9350 C.3    57  ALA57       0.1728
     82  C         -9.0700   -6.6090  -11.0660 C.2    57  ALA57       0.2616
     83  O         -9.5760   -6.7460   -9.9460 O.2    57  ALA57      -0.2715
     84  CB        -8.5250   -4.2130  -11.5680 C.3    57  ALA57       0.0334
     85  N         -8.2180   -7.4840  -11.5990 N.am   58  THR58      -0.1951
     86  CA        -7.8900   -8.7600  -10.9750 C.3    58  THR58       0.1897
     87  C         -6.3910   -8.9070  -10.8460 C.2    58  THR58       0.2313
     88  O         -5.6460   -8.3040  -11.6070 O.2    58  THR58      -0.2863
     89  CB        -8.3710   -9.9720  -11.8240 C.3    58  THR58       0.1794
     90  OG1       -9.5120   -9.6100  -12.6120 O.3    58  THR58      -0.2208
     91  CG2       -8.7130  -11.1560  -10.9260 C.3    58  THR58       0.0378
     92  N         -4.0500  -14.9630   -7.7210 N.3    61  GLY61      -0.1210
     93  CA        -4.6760  -15.3700   -6.4630 C.3    61  GLY61       0.1956
     94  C         -6.1600  -15.0510   -6.3860 C.2    61  GLY61       0.2612
     95  O         -6.7770  -15.2510   -5.3390 O.2    61  GLY61      -0.2717
     96  N         -6.7320  -14.5660   -7.4910 N.am   62  PHE62      -0.1962
     97  CA        -8.1450  -14.1800   -7.5510 C.3    62  PHE62       0.1771
     98  C         -8.8460  -14.6440   -8.8260 C.2    62  PHE62       0.2619
     99  O         -8.2660  -14.6250   -9.9130 O.2    62  PHE62      -0.2715
    100  CB        -8.2960  -12.6590   -7.4430 C.3    62  PHE62       0.0574
    101  CG        -7.6450  -12.0700   -6.2320 C.ar   62  PHE62      -0.0200
    102  CD1       -6.3090  -11.6540   -6.2780 C.ar   62  PHE62      -0.0042
    103  CD2       -8.3580  -11.9350   -5.0470 C.ar   62  PHE62      -0.0042
    104  CE1       -5.6930  -11.1150   -5.1630 C.ar   62  PHE62      -0.0003
    105  CE2       -7.7560  -11.4060   -3.9230 C.ar   62  PHE62      -0.0003
    106  CZ        -6.4150  -10.9890   -3.9790 C.ar   62  PHE62      -0.0000
    107  N        -10.1130  -15.0200   -8.6890 N.am   63  VAL63      -0.1963
    108  CA       -10.9200  -15.4520   -9.8260 C.3    63  VAL63       0.1727
    109  C        -12.0420  -14.4620  -10.1520 C.2    63  VAL63       0.2616
    110  O        -12.6850  -13.9250   -9.2550 O.2    63  VAL63      -0.2715
    111  CB       -11.5000  -16.9010   -9.6290 C.3    63  VAL63       0.0290
    112  CG1      -10.3810  -17.9480   -9.6250 C.3    63  VAL63       0.0023
    113  CG2      -12.3550  -17.0200   -8.3550 C.3    63  VAL63       0.0023
    114  N        -12.2600  -14.2130  -11.4400 N.am   64  ILE64      -0.1964
    115  CA       -13.4580  -13.5010  -11.8880 C.3    64  ILE64       0.1712
    116  C        -14.6290  -14.4580  -11.6790 C.2    64  ILE64       0.2458
    117  O        -14.5270  -15.6280  -12.0610 O.2    64  ILE64      -0.2730
    118  CB       -13.3490  -13.0790  -13.3720 C.3    64  ILE64       0.0289
    119  CG1      -12.1630  -12.1240  -13.5570 C.3    64  ILE64       0.0022
    120  CG2      -14.6430  -12.4180  -13.8510 C.3    64  ILE64       0.0023
    121  CD1      -11.4640  -12.2330  -14.9060 C.3    64  ILE64       0.0001
    122  N        -15.7310  -13.9820  -11.0490 N.am   65  PRO65      -0.2727
    123  CA       -16.8630  -14.8580  -10.7280 C.3    65  PRO65       0.1402
    124  C        -17.4560  -15.5440  -11.9590 C.2    65  PRO65       0.2269
    125  O        -17.3360  -16.7640  -12.0980 O.2    65  PRO65      -0.2865
    126  CB       -17.8850  -13.8940  -10.1110 C.3    65  PRO65       0.0296
    127  CG       -17.0790  -12.7900   -9.5730 C.3    65  PRO65       0.0237
    128  CD       -15.9820  -12.6050  -10.5860 C.3    65  PRO65       0.0939
@<TRIPOS>BOND
     1   121   119    1
     2   120   118    1
     3    75    77   ar
     4    75    73   ar
     5    77    78   ar
     6   119   118    1
     7   118   115    1
     8    72    73    1
     9    72    69    1
    10    71    70    2
    11    73    74   ar
    12    90    89    1
    13    78    79    1
    14    78    76   ar
    15    70    69    1
    16    70    80   am
    17   125   124    2
    18   117   116    2
    19   124   123    1
    20    81    80    1
    21    81    84    1
    22    81    82    1
    23   115   116    1
    24   115   114    1
    25    89    86    1
    26    89    91    1
    27    69    68    1
    28    59    57   am
    29   116   122   am
    30    88    87    2
    31    85    82   am
    32    85    86    1
    33    52    53    1
    34    52    55    1
    35    52    51    1
    36    53    54    2
    37    74    76   ar
    38   114   109   am
    39    56    55    1
    40    56    57    1
    41    68    62   am
    42    82    83    2
    43   122   123    1
    44   122   128    1
    45    86    87    1
    46    57    58    2
    47   123   126    1
    48   128   127    1
    49   109   108    1
    50   109   110    2
    51   126   127    1
    52    99    98    2
    53   108   111    1
    54   108   107    1
    55    62    61    1
    56    62    63    2
    57    60    61    1
    58    50    48   ar
    59   111   112    1
    60   111   113    1
    61    61    64    1
    62    64    65    1
    63    98   107   am
    64    98    97    1
    65    45    44    2
    66    47    48    1
    67    47    46    1
    68    48    49   ar
    69    66    65    1
    70    65    67    1
    71    92    93    1
    72    97    96    1
    73    97   100    1
    74    44    43    1
    75    96    94   am
    76   100   101    1
    77    43    46    1
    78    43    42    1
    79    93    94    1
    80    94    95    2
    81   102   101   ar
    82   102   104   ar
    83   101   103   ar
    84    40    39    1
    85   104   106   ar
    86   103   105   ar
    87    41    39    1
    88    39    38    2
    89    26    25    2
    90    34    33    2
    91   106   105   ar
    92    38    37    1
    93    37    36    1
    94    30    28    1
    95    25    31   am
    96    25    24    1
    97    33    32    1
    98    32    31    1
    99    32    35    1
   100    20    22   ar
   101    20    18   ar
   102    22    21   ar
   103    27    24    1
   104    27    28    1
   105    29    28    1
   106    24    23    1
   107    36    35    1
   108    18    17   ar
   109    21    19   ar
   110    17    19   ar
   111    17    16    1
   112    15    14    2
   113    13    14    1
   114    13    16    1
   115    13    12    1
   116     7     6    1
   117     7     8    1
   118     6     5    1
   119     4     3    2
   120    10     9    1
   121     8     9    2
   122     9    11    1
   123     5     2    1
   124     3     2    1
   125     2     1    1
