@<TRIPOS>MOLECULE
tmp/3gjoA00.pdb
 144 141 0 0 0
SMALL
GASTEIGER

@<TRIPOS>ATOM
      1  N        -11.8440  -15.4020   34.8400 N.3    23  ARG23      -0.1245
      2  CA       -12.2340  -16.7030   34.3170 C.3    23  ARG23       0.1563
      3  C        -11.6880  -17.8770   35.1490 C.2    23  ARG23       0.2260
      4  O        -12.4120  -18.8650   35.3680 O.2    23  ARG23      -0.2867
      5  CB       -11.8210  -16.8650   32.8480 C.3    23  ARG23       0.0307
      6  CG       -12.2470  -18.1980   32.2820 C.3    23  ARG23       0.0489
      7  CD       -11.2720  -18.7400   31.2450 C.3    23  ARG23       0.2205
      8  NE        -9.8870  -18.8410   31.6910 N.pl3  23  ARG23      -0.0865
      9  CZ        -8.8380  -18.7790   30.8700 C.cat  23  ARG23       0.5346
     10  NH1       -9.0100  -18.6310   29.5500 N.pl3  23  ARG23       0.1354
     11  NH2       -7.6090  -18.8750   31.3720 N.pl3  23  ARG23       0.1354
     12  N        -14.0580  -20.6500   36.8270 N.3    27  PHE27      -0.1241
     13  CA       -13.8250  -22.0190   36.3780 C.3    27  PHE27       0.1605
     14  C        -13.3800  -22.9390   37.5390 C.2    27  PHE27       0.2264
     15  O        -13.8040  -24.0840   37.5950 O.2    27  PHE27      -0.2867
     16  CB       -12.8590  -22.0550   35.1680 C.3    27  PHE27       0.0534
     17  CG       -12.5760  -23.4420   34.6610 C.ar   27  PHE27      -0.0203
     18  CD1      -13.4280  -24.0460   33.7250 C.ar   27  PHE27      -0.0042
     19  CD2      -11.4750  -24.1680   35.1460 C.ar   27  PHE27      -0.0042
     20  CE1      -13.1870  -25.3570   33.2780 C.ar   27  PHE27      -0.0003
     21  CE2      -11.2170  -25.4810   34.7030 C.ar   27  PHE27      -0.0003
     22  CZ       -12.0740  -26.0750   33.7710 C.ar   27  PHE27      -0.0000
     23  N        -16.4660  -24.0080   39.6780 N.3    30  LEU30      -0.1231
     24  CA       -17.0530  -25.1760   38.9820 C.3    30  LEU30       0.1693
     25  C        -16.2650  -26.4990   39.0660 C.2    30  LEU30       0.2591
     26  O        -16.8480  -27.5890   39.0440 O.2    30  LEU30      -0.2718
     27  CB       -17.2840  -24.8520   37.5040 C.3    30  LEU30       0.0284
     28  CG       -18.1630  -23.6270   37.2160 C.3    30  LEU30       0.0019
     29  CD1      -18.0780  -23.2360   35.7710 C.3    30  LEU30       0.0001
     30  CD2      -19.6240  -23.8740   37.6510 C.3    30  LEU30       0.0001
     31  N        -14.9490  -26.4290   39.1110 N.am   31  ARG31      -0.1980
     32  CA       -14.1850  -27.6490   39.1930 C.3    31  ARG31       0.1597
     33  C        -14.3550  -28.2060   40.5830 C.2    31  ARG31       0.2287
     34  O        -14.4320  -29.4170   40.7830 O.2    31  ARG31      -0.2864
     35  CB       -12.7110  -27.3760   38.9250 C.3    31  ARG31       0.0334
     36  CG       -12.3450  -27.3830   37.4670 C.3    31  ARG31       0.0492
     37  CD       -12.3130  -28.7890   36.9150 C.3    31  ARG31       0.2205
     38  NE       -11.1960  -29.5870   37.4380 N.pl3  31  ARG31      -0.0865
     39  CZ       -11.3240  -30.7670   38.0470 C.cat  31  ARG31       0.5346
     40  NH1      -12.5240  -31.3170   38.2380 N.pl3  31  ARG31       0.1354
     41  NH2      -10.2400  -31.4080   38.4680 N.pl3  31  ARG31       0.1354
     42  N        -17.7830  -29.7470   40.7890 N.3    34  GLU34      -0.1231
     43  CA       -17.7200  -31.0140   40.0500 C.3    34  GLU34       0.1699
     44  C        -16.9730  -32.0860   40.8120 C.2    34  GLU34       0.2592
     45  O        -17.2370  -33.2660   40.6170 O.2    34  GLU34      -0.2718
     46  CB       -17.0900  -30.7890   38.6780 C.3    34  GLU34       0.0402
     47  CG       -16.6750  -32.0310   37.9480 C.3    34  GLU34       0.1161
     48  CD       -15.9600  -31.7410   36.6380 C.2    34  GLU34       0.3649
     49  OE1      -15.0900  -30.8430   36.6010 O.co2  34  GLU34      -0.2457
     50  OE2      -16.2530  -32.4340   35.6450 O.co2  34  GLU34      -0.2457
     51  N        -16.0420  -31.6890   41.6790 N.am   35  LEU35      -0.1980
     52  CA       -15.4000  -32.6500   42.5800 C.3    35  LEU35       0.1596
     53  C        -16.3810  -33.1140   43.6480 C.2    35  LEU35       0.2287
     54  O        -16.5500  -34.3090   43.8380 O.2    35  LEU35      -0.2864
     55  CB       -14.1200  -32.1000   43.2090 C.3    35  LEU35       0.0297
     56  CG       -13.0190  -31.7460   42.2160 C.3    35  LEU35       0.0022
     57  CD1      -11.9250  -30.8630   42.8550 C.3    35  LEU35       0.0001
     58  CD2      -12.4460  -32.9960   41.5670 C.3    35  LEU35       0.0001
     59  N        -18.8680  -35.5090   41.8780 N.3    38  GLN38      -0.1245
     60  CA       -18.2740  -36.8210   41.5930 C.3    38  GLN38       0.1566
     61  C        -18.1020  -37.5960   42.8930 C.2    38  GLN38       0.2260
     62  O        -18.3280  -38.8060   42.9450 O.2    38  GLN38      -0.2867
     63  CB       -16.9190  -36.6800   40.8970 C.3    38  GLN38       0.0367
     64  CG       -16.9750  -36.2880   39.4290 C.3    38  GLN38       0.0905
     65  CD       -15.6680  -35.6580   38.9350 C.2    38  GLN38       0.2608
     66  OE1      -14.8100  -35.2360   39.7260 O.2    38  GLN38      -0.2717
     67  NE2      -15.5190  -35.5800   37.6180 N.am   38  GLN38      -0.0878
     68  N        -23.4880  -28.1010   35.0650 N.3    55  LEU55      -0.1231
     69  CA       -22.0460  -28.1120   34.8980 C.3    55  LEU55       0.1693
     70  C        -21.6660  -28.4930   33.5040 C.2    55  LEU55       0.2592
     71  O        -20.7820  -27.8580   32.9100 O.2    55  LEU55      -0.2718
     72  CB       -21.3800  -29.0960   35.8610 C.3    55  LEU55       0.0284
     73  CG       -21.1270  -28.6110   37.2710 C.3    55  LEU55       0.0019
     74  CD1      -20.6190  -29.7820   38.0990 C.3    55  LEU55       0.0001
     75  CD2      -20.1220  -27.4680   37.2240 C.3    55  LEU55       0.0001
     76  N        -22.3280  -29.5290   32.9950 N.am   56  TYR56      -0.1962
     77  CA       -21.9830  -30.1160   31.7040 C.3    56  TYR56       0.1771
     78  C        -22.7230  -29.5500   30.4980 C.2    56  TYR56       0.2619
     79  O        -22.4640  -29.9860   29.3870 O.2    56  TYR56      -0.2715
     80  CB       -22.1020  -31.6370   31.7480 C.3    56  TYR56       0.0574
     81  CG       -21.1870  -32.2560   32.7680 C.ar   56  TYR56      -0.0198
     82  CD1      -19.9560  -31.6700   33.0640 C.ar   56  TYR56      -0.0009
     83  CD2      -21.5390  -33.4350   33.4330 C.ar   56  TYR56      -0.0009
     84  CE1      -19.1050  -32.2270   34.0040 C.ar   56  TYR56       0.0417
     85  CE2      -20.6860  -34.0060   34.3780 C.ar   56  TYR56       0.0417
     86  CZ       -19.4700  -33.3880   34.6570 C.ar   56  TYR56       0.1957
     87  OH       -18.6060  -33.9290   35.5820 O.3    56  TYR56      -0.2866
     88  N        -23.6210  -28.5860   30.7060 N.am   57  ALA57      -0.1963
     89  CA       -24.2880  -27.9000   29.5890 C.3    57  ALA57       0.1728
     90  C        -23.2890  -27.0980   28.7270 C.2    57  ALA57       0.2616
     91  O        -22.4310  -26.3870   29.2630 O.2    57  ALA57      -0.2715
     92  CB       -25.4110  -26.9890   30.1060 C.3    57  ALA57       0.0334
     93  N        -23.3930  -27.2400   27.4030 N.am   58  THR58      -0.1951
     94  CA       -22.5480  -26.5000   26.4540 C.3    58  THR58       0.1897
     95  C        -23.2720  -25.2560   25.9580 C.2    58  THR58       0.2313
     96  O        -24.4260  -25.0070   26.3070 O.2    58  THR58      -0.2863
     97  CB       -22.1680  -27.3410   25.2070 C.3    58  THR58       0.1794
     98  OG1      -23.3530  -27.8920   24.6240 O.3    58  THR58      -0.2208
     99  CG2      -21.2140  -28.4730   25.5500 C.3    58  THR58       0.0378
    100  N        -19.6370  -22.5080   20.7880 N.3    61  GLY61      -0.1210
    101  CA       -18.1720  -22.4680   20.8880 C.3    61  GLY61       0.1956
    102  C        -17.6010  -23.0240   22.1860 C.2    61  GLY61       0.2612
    103  O        -16.5720  -22.5550   22.6690 O.2    61  GLY61      -0.2717
    104  N        -18.2820  -24.0200   22.7490 N.am   62  PHE62      -0.1962
    105  CA       -17.8600  -24.6710   23.9800 C.3    62  PHE62       0.1771
    106  C        -18.1300  -26.1690   23.8690 C.2    62  PHE62       0.2619
    107  O        -19.2580  -26.5900   23.5880 O.2    62  PHE62      -0.2715
    108  CB       -18.5760  -24.0680   25.1940 C.3    62  PHE62       0.0574
    109  CG       -18.2040  -22.6250   25.4800 C.ar   62  PHE62      -0.0200
    110  CD1      -17.0210  -22.3080   26.1630 C.ar   62  PHE62      -0.0042
    111  CD2      -19.0480  -21.5870   25.0930 C.ar   62  PHE62      -0.0042
    112  CE1      -16.6790  -20.9630   26.4370 C.ar   62  PHE62      -0.0003
    113  CE2      -18.7190  -20.2470   25.3570 C.ar   62  PHE62      -0.0003
    114  CZ       -17.5310  -19.9340   26.0290 C.ar   62  PHE62      -0.0000
    115  N        -17.0770  -26.9610   24.0700 N.am   63  VAL63      -0.1963
    116  CA       -17.1220  -28.4100   23.8750 C.3    63  VAL63       0.1727
    117  C        -16.7400  -29.1800   25.1250 C.2    63  VAL63       0.2616
    118  O        -16.0220  -28.6700   25.9920 O.2    63  VAL63      -0.2715
    119  CB       -16.1970  -28.8880   22.7000 C.3    63  VAL63       0.0290
    120  CG1      -16.7230  -28.3970   21.3630 C.3    63  VAL63       0.0023
    121  CG2      -14.7330  -28.4460   22.8940 C.3    63  VAL63       0.0023
    122  N        -17.2240  -30.4160   25.1990 N.am   64  ILE64      -0.1964
    123  CA       -16.7910  -31.3830   26.2010 C.3    64  ILE64       0.1712
    124  C        -15.3340  -31.7470   25.9420 C.2    64  ILE64       0.2458
    125  O        -14.9810  -32.1250   24.8240 O.2    64  ILE64      -0.2730
    126  CB       -17.6490  -32.6610   26.1440 C.3    64  ILE64       0.0289
    127  CG1      -19.1250  -32.3440   26.4460 C.3    64  ILE64       0.0022
    128  CG2      -17.0800  -33.7520   27.0570 C.3    64  ILE64       0.0023
    129  CD1      -19.4380  -31.9440   27.8950 C.3    64  ILE64       0.0001
    130  N        -14.4750  -31.6110   26.9690 N.am   65  PRO65      -0.2716
    131  CA       -13.0610  -31.9960   26.8410 C.3    65  PRO65       0.1536
    132  C        -12.8980  -33.4970   26.5740 C.2    65  PRO65       0.2598
    133  O        -13.5530  -34.3200   27.2330 O.2    65  PRO65      -0.2715
    134  CB       -12.4670  -31.6210   28.2060 C.3    65  PRO65       0.0310
    135  CG       -13.6360  -31.5590   29.1310 C.3    65  PRO65       0.0237
    136  CD       -14.7810  -31.0770   28.3080 C.3    65  PRO65       0.0939
    137  N        -12.0440  -33.8370   25.6070 N.am   66  ASP66      -0.1972
    138  CA       -11.8500  -35.2290   25.1990 C.3    66  ASP66       0.1709
    139  C        -10.4180  -35.4780   24.7430 C.2    66  ASP66       0.2293
    140  O         -9.7220  -36.3360   25.2880 O.2    66  ASP66      -0.2864
    141  CB       -12.8290  -35.5920   24.0800 C.3    66  ASP66       0.1436
    142  CG       -13.5560  -36.8980   24.3370 C.2    66  ASP66       0.3671
    143  OD1      -14.8050  -36.8750   24.4160 O.co2  66  ASP66      -0.2456
    144  OD2      -12.8850  -37.9450   24.4660 O.co2  66  ASP66      -0.2456
@<TRIPOS>BOND
     1   100   101    1
     2   101   102    1
     3   120   119    1
     4   102   103    2
     5   102   104   am
     6   119   121    1
     7   119   116    1
     8   104   105    1
     9   107   106    2
    10   106   105    1
    11   106   115   am
    12   116   115    1
    13   116   117    1
    14   105   108    1
    15   141   142    1
    16   141   138    1
    17   142   143   ar
    18   142   144   ar
    19    98    97    1
    20   139   138    1
    21   139   140    2
    22   125   124    2
    23   111   113   ar
    24   111   109   ar
    25   117   122   am
    26   117   118    2
    27   108   109    1
    28   138   137    1
    29   122   123    1
    30    97    99    1
    31    97    94    1
    32   113   114   ar
    33   109   110   ar
    34   137   132   am
    35   124   123    1
    36   124   130   am
    37    95    96    2
    38    95    94    1
    39   114   112   ar
    40   126   123    1
    41   126   127    1
    42   126   128    1
    43   110   112   ar
    44   127   129    1
    45    94    93    1
    46   132   131    1
    47   132   133    2
    48   131   130    1
    49   131   134    1
    50   130   136    1
    51    93    90   am
    52   134   135    1
    53   136   135    1
    54    90    91    2
    55    90    89    1
    56    79    78    2
    57    10     9    1
    58    89    92    1
    59    89    88    1
    60    78    88   am
    61    78    77    1
    62     9    11    1
    63     9     8    2
    64     7     8    1
    65     7     6    1
    66    77    80    1
    67    77    76    1
    68    80    81    1
    69     6     5    1
    70    81    82   ar
    71    81    83   ar
    72     5     2    1
    73    71    70    2
    74    76    70   am
    75    82    84   ar
    76    20    18   ar
    77    20    22   ar
    78    83    85   ar
    79    70    69    1
    80    18    17   ar
    81    22    21   ar
    82    84    86   ar
    83     2     1    1
    84     2     3    1
    85    85    86   ar
    86    86    87    1
    87    17    19   ar
    88    17    16    1
    89    21    19   ar
    90    69    68    1
    91    69    72    1
    92     3     4    2
    93    16    13    1
    94    50    48   ar
    95    29    28    1
    96    72    73    1
    97    13    12    1
    98    13    14    1
    99    49    48   ar
   100    48    47    1
   101    37    38    1
   102    37    36    1
   103    28    27    1
   104    28    30    1
   105    75    73    1
   106    73    74    1
   107    38    39    2
   108    36    35    1
   109    27    24    1
   110    14    15    2
   111    67    65   am
   112    47    46    1
   113    39    40    1
   114    39    41    1
   115    46    43    1
   116    35    32    1
   117    65    64    1
   118    65    66    2
   119    24    25    1
   120    24    23    1
   121    26    25    2
   122    25    31   am
   123    31    32    1
   124    32    33    1
   125    64    63    1
   126    43    42    1
   127    43    44    1
   128    33    34    2
   129    45    44    2
   130    44    51   am
   131    63    60    1
   132    58    56    1
   133    60    59    1
   134    60    61    1
   135    51    52    1
   136    56    57    1
   137    56    55    1
   138    52    55    1
   139    52    53    1
   140    61    62    2
   141    53    54    2
