@<TRIPOS>MOLECULE
tmp/3gjqD00.pdb
 140 144 0 0 0
SMALL
GASTEIGER

@<TRIPOS>ATOM
      1  N         27.9280   32.4230   22.9240 N.3    20  TYR20      -0.1227
      2  CA        28.5400   32.5090   21.5990 C.3    20  TYR20       0.1736
      3  C         28.9650   33.9490   21.4260 C.2    20  TYR20       0.2596
      4  O         28.5340   34.8300   22.1670 O.2    20  TYR20      -0.2718
      5  CB        27.5240   32.2220   20.4890 C.3    20  TYR20       0.0548
      6  CG        27.2800   30.7760   20.1670 C.ar   20  TYR20      -0.0200
      7  CD1       28.2840   29.9830   19.6380 C.ar   20  TYR20      -0.0009
      8  CD2       26.0260   30.2090   20.3610 C.ar   20  TYR20      -0.0009
      9  CE1       28.0490   28.6580   19.3120 C.ar   20  TYR20       0.0417
     10  CE2       25.7760   28.8840   20.0390 C.ar   20  TYR20       0.0417
     11  CZ        26.7950   28.1110   19.5130 C.ar   20  TYR20       0.1957
     12  OH        26.5700   26.7860   19.2040 O.3    20  TYR20      -0.2866
     13  N         29.7990   34.1900   20.4280 N.am   21  SER21      -0.1938
     14  CA        30.2460   35.5380   20.1290 C.3    21  SER21       0.2055
     15  C         29.9880   35.7080   18.6210 C.2    21  SER21       0.2643
     16  O         30.4650   34.9100   17.8150 O.2    21  SER21      -0.2714
     17  CB        31.7330   35.6720   20.4610 C.3    21  SER21       0.2130
     18  OG        32.1170   37.0350   20.4870 O.3    21  SER21      -0.2179
     19  N         29.2350   36.7400   18.2460 N.am   22  TRP22      -0.1959
     20  CA        28.8910   36.9590   16.8450 C.3    22  TRP22       0.1771
     21  C         29.8480   37.8180   16.0310 C.2    22  TRP22       0.2620
     22  O         30.3960   38.8120   16.5070 O.2    22  TRP22      -0.2715
     23  CB        27.4630   37.5110   16.7280 C.3    22  TRP22       0.0590
     24  CG        26.4450   36.6170   17.3730 C.ar   22  TRP22       0.0006
     25  CD1       26.0030   36.6840   18.6670 C.ar   22  TRP22       0.0946
     26  CD2       25.8160   35.4650   16.7950 C.ar   22  TRP22       0.0152
     27  NE1       25.1460   35.6450   18.9340 N.ar   22  TRP22      -0.2442
     28  CE2       25.0080   34.8760   17.8010 C.ar   22  TRP22       0.0810
     29  CE3       25.8470   34.8610   15.5290 C.ar   22  TRP22       0.0012
     30  CZ2       24.2480   33.7180   17.5860 C.ar   22  TRP22       0.0191
     31  CZ3       25.0920   33.7060   15.3070 C.ar   22  TRP22       0.0001
     32  CH2       24.3010   33.1490   16.3330 C.ar   22  TRP22       0.0015
     33  N         30.0240   37.4160   14.7810 N.am   23  ARG23      -0.1963
     34  CA        30.9180   38.1000   13.8730 C.3    23  ARG23       0.1729
     35  C         30.2960   38.2770   12.4940 C.2    23  ARG23       0.2616
     36  O         29.6770   37.3600   11.9570 O.2    23  ARG23      -0.2715
     37  CB        32.2040   37.2910   13.7700 C.3    23  ARG23       0.0348
     38  CG        33.1610   37.7160   12.6880 C.3    23  ARG23       0.0492
     39  CD        34.4920   36.9990   12.9050 C.3    23  ARG23       0.2205
     40  NE        34.2810   35.6110   13.3190 N.pl3  23  ARG23      -0.0865
     41  CZ        33.9060   34.6220   12.5080 C.cat  23  ARG23       0.5346
     42  NH1       33.7320   33.3930   12.9850 N.pl3  23  ARG23       0.1354
     43  NH2       33.7300   34.8490   11.2110 N.pl3  23  ARG23       0.1354
     44  N         30.4560   39.4610   11.9210 N.am   24  ASN24      -0.1958
     45  CA        29.9100   39.6980   10.5970 C.3    24  ASN24       0.1819
     46  C         30.9670   39.3350    9.5580 C.2    24  ASN24       0.2622
     47  O         32.1160   39.7790    9.6350 O.2    24  ASN24      -0.2715
     48  CB        29.4930   41.1490   10.4310 C.3    24  ASN24       0.1195
     49  CG        28.8120   41.3910    9.1150 C.2    24  ASN24       0.2630
     50  OD1       29.4190   41.2260    8.0590 O.2    24  ASN24      -0.2716
     51  ND2       27.5390   41.7700    9.1630 N.am   24  ASN24      -0.0877
     52  N         30.5610   38.5360    8.5780 N.am   25  SER25      -0.1936
     53  CA        31.4730   38.0650    7.5480 C.3    25  SER25       0.2055
     54  C         32.1230   39.1350    6.6810 C.2    25  SER25       0.2642
     55  O         32.9840   38.8230    5.8650 O.2    25  SER25      -0.2714
     56  CB        30.7640   37.0560    6.6450 C.3    25  SER25       0.2130
     57  OG        31.7020   36.4330    5.7940 O.3    25  SER25      -0.2179
     58  N         31.7330   40.3920    6.8720 N.am   26  LYS26      -0.1977
     59  CA        32.2850   41.4840    6.0770 C.3    26  LYS26       0.1596
     60  C         32.7120   42.6910    6.9150 C.2    26  LYS26       0.2287
     61  O         33.7450   43.3000    6.6520 O.2    26  LYS26      -0.2864
     62  CB        31.2500   41.9270    5.0350 C.3    26  LYS26       0.0298
     63  CG        31.5590   43.2530    4.3330 C.3    26  LYS26       0.0038
     64  CD        30.4060   43.7010    3.4160 C.3    26  LYS26       0.0206
     65  CE        29.0960   43.8790    4.1880 C.3    26  LYS26       0.1093
     66  NZ        27.9390   44.1570    3.2830 N.3    26  LYS26      -0.1314
     67  N         33.8280   41.3860   13.6850 N.3    29  SER29      -0.1202
     68  CA        33.0880   41.0760   14.9040 C.3    29  SER29       0.2020
     69  C         32.4880   42.3490   15.4900 C.2    29  SER29       0.2618
     70  O         33.1120   43.4170   15.4440 O.2    29  SER29      -0.2717
     71  CB        34.0080   40.4230   15.9380 C.3    29  SER29       0.2103
     72  OG        35.0770   41.2960   16.2850 O.3    29  SER29      -0.2182
     73  N         31.2680   42.2220   16.0180 N.am   30  TRP30      -0.1975
     74  CA        30.5290   43.3270   16.6510 C.3    30  TRP30       0.1640
     75  C         31.4180   44.0110   17.6960 C.2    30  TRP30       0.2290
     76  O         31.5400   45.2420   17.7290 O.2    30  TRP30      -0.2864
     77  CB        29.2550   42.7830   17.3340 C.3    30  TRP30       0.0576
     78  CG        28.3550   42.0020   16.3990 C.ar   30  TRP30       0.0006
     79  CD1       28.5240   41.8470   15.0470 C.ar   30  TRP30       0.0946
     80  CD2       27.1280   41.3170   16.7280 C.ar   30  TRP30       0.0152
     81  NE1       27.4980   41.1080   14.5180 N.ar   30  TRP30      -0.2442
     82  CE2       26.6360   40.7560   15.5170 C.ar   30  TRP30       0.0810
     83  CE3       26.4240   41.0890   17.9180 C.ar   30  TRP30       0.0012
     84  CZ2       25.4300   40.0210   15.4630 C.ar   30  TRP30       0.0191
     85  CZ3       25.2230   40.3500   17.8620 C.ar   30  TRP30       0.0001
     86  CH2       24.7540   39.8120   16.6410 C.ar   30  TRP30       0.0015
     87  N         22.1820   42.4270   16.1290 N.3    64  GLU64      -0.1231
     88  CA        21.2820   41.2910   16.2260 C.3    64  GLU64       0.1699
     89  C         21.6220   40.3210   15.1170 C.2    64  GLU64       0.2593
     90  O         21.8700   40.7280   13.9820 O.2    64  GLU64      -0.2718
     91  CB        19.8410   41.7260   16.0760 C.3    64  GLU64       0.0402
     92  CG        18.8920   40.5750   16.1990 C.3    64  GLU64       0.1161
     93  CD        17.4530   41.0200   16.1810 C.2    64  GLU64       0.3649
     94  OE1       17.1110   41.9320   16.9770 O.co2  64  GLU64      -0.2457
     95  OE2       16.6640   40.4530   15.3810 O.co2  64  GLU64      -0.2457
     96  N         21.6070   39.0300   15.4200 N.am   65  SER65      -0.1938
     97  CA        21.9810   38.0690   14.3960 C.3    65  SER65       0.2055
     98  C         20.9250   37.8250   13.3280 C.2    65  SER65       0.2643
     99  O         19.7230   38.0250   13.5370 O.2    65  SER65      -0.2714
    100  CB        22.3720   36.7380   15.0270 C.3    65  SER65       0.2130
    101  OG        21.2490   35.9750   15.4020 O.3    65  SER65      -0.2179
    102  N         21.4050   37.3930   12.1660 N.am   66  PHE66      -0.1959
    103  CA        20.5370   37.0820   11.0560 C.3    66  PHE66       0.1771
    104  C         20.9780   35.7530   10.4660 C.2    66  PHE66       0.2620
    105  O         22.1070   35.6130    9.9990 O.2    66  PHE66      -0.2715
    106  CB        20.6040   38.1880   10.0080 C.3    66  PHE66       0.0574
    107  CG        19.6690   37.9740    8.8650 C.ar   66  PHE66      -0.0200
    108  CD1       20.0640   37.2290    7.7590 C.ar   66  PHE66      -0.0042
    109  CD2       18.3610   38.4490    8.9250 C.ar   66  PHE66      -0.0042
    110  CE1       19.1710   36.9550    6.7240 C.ar   66  PHE66      -0.0003
    111  CE2       17.4520   38.1830    7.8970 C.ar   66  PHE66      -0.0003
    112  CZ        17.8560   37.4300    6.7930 C.ar   66  PHE66      -0.0000
    113  N         20.0850   34.7810   10.5100 N.am   67  SER67      -0.1936
    114  CA        20.3800   33.4620    9.9970 C.3    67  SER67       0.2055
    115  C         19.1540   32.8290    9.3620 C.2    67  SER67       0.2643
    116  O         18.0310   33.0700    9.8080 O.2    67  SER67      -0.2714
    117  CB        20.8760   32.5760   11.1330 C.3    67  SER67       0.2130
    118  OG        20.6640   31.2010   10.8380 O.3    67  SER67      -0.2179
    119  N         19.3740   32.0230    8.3260 N.am   68  PHE68      -0.1973
    120  CA        18.2730   31.3300    7.6640 C.3    68  PHE68       0.1639
    121  C         17.9000   30.1690    8.5690 C.2    68  PHE68       0.2290
    122  O         16.8000   29.6230    8.4940 O.2    68  PHE68      -0.2864
    123  CB        18.6940   30.8090    6.2850 C.3    68  PHE68       0.0560
    124  CG        19.0320   31.8960    5.3040 C.ar   68  PHE68      -0.0200
    125  CD1       18.1800   32.9850    5.1310 C.ar   68  PHE68      -0.0042
    126  CD2       20.2080   31.8390    4.5620 C.ar   68  PHE68      -0.0042
    127  CE1       18.4950   34.0080    4.2380 C.ar   68  PHE68      -0.0003
    128  CE2       20.5350   32.8560    3.6630 C.ar   68  PHE68      -0.0003
    129  CZ        19.6770   33.9440    3.5020 C.ar   68  PHE68      -0.0000
    130  N         19.9260   30.1180   14.9970 N.3    72  PHE72      -0.1241
    131  CA        20.8650   31.2230   15.1380 C.3    72  PHE72       0.1605
    132  C         20.3680   32.5940   14.7090 C.2    72  PHE72       0.2264
    133  O         21.1390   33.5460   14.6050 O.2    72  PHE72      -0.2867
    134  CB        22.1470   30.9010   14.3830 C.3    72  PHE72       0.0534
    135  CG        22.7630   29.5960   14.7650 C.ar   72  PHE72      -0.0203
    136  CD1       22.2950   28.3980   14.2230 C.ar   72  PHE72      -0.0042
    137  CD2       23.8150   29.5600   15.6780 C.ar   72  PHE72      -0.0042
    138  CE1       22.8730   27.1820   14.5870 C.ar   72  PHE72      -0.0003
    139  CE2       24.3960   28.3530   16.0470 C.ar   72  PHE72      -0.0003
    140  CZ        23.9270   27.1640   15.5040 C.ar   72  PHE72      -0.0000
@<TRIPOS>BOND
     1    66    65    1
     2    64    65    1
     3    64    63    1
     4   129   128   ar
     5   129   127   ar
     6   128   126   ar
     7   127   125   ar
     8    63    62    1
     9   126   124   ar
    10    62    59    1
    11   125   124   ar
    12   124   123    1
    13    57    56    1
    14    55    54    2
    15    59    58    1
    16    59    60    1
    17   123   120    1
    18    56    53    1
    19    61    60    2
    20    54    58   am
    21    54    53    1
    22   110   112   ar
    23   110   108   ar
    24   112   111   ar
    25    53    52    1
    26   120   119    1
    27   120   121    1
    28   108   107   ar
    29   111   109   ar
    30    50    49    2
    31   119   115   am
    32   122   121    2
    33    52    46   am
    34   107   109   ar
    35   107   106    1
    36    49    51   am
    37    49    48    1
    38   115   116    2
    39   115   114    1
    40    46    47    2
    41    46    45    1
    42   114   113    1
    43   114   117    1
    44   105   104    2
    45   106   103    1
    46    48    45    1
    47   104   113   am
    48   104   103    1
    49    45    44    1
    50   118   117    1
    51   103   102    1
    52    43    41    1
    53    44    35   am
    54    36    35    2
    55   102    98   am
    56    35    34    1
    57    41    42    1
    58    41    40    2
    59    38    39    1
    60    38    37    1
    61    39    40    1
    62    98    99    2
    63    98    97    1
    64    67    68    1
    65    37    34    1
    66    34    33    1
    67    90    89    2
    68   136   138   ar
    69   136   135   ar
    70   134   135    1
    71   134   131    1
    72    97   100    1
    73    97    96    1
    74    81    79   ar
    75    81    82   ar
    76   138   140   ar
    77   133   132    2
    78   132   131    1
    79   135   137   ar
    80    33    21   am
    81    68    69    1
    82    68    71    1
    83   130   131    1
    84   100   101    1
    85    79    78   ar
    86    89    96   am
    87    89    88    1
    88    31    29   ar
    89    31    32   ar
    90    95    93   ar
    91    70    69    2
    92    84    82   ar
    93    84    86   ar
    94    69    73   am
    95   140   139   ar
    96    82    80   ar
    97    29    26   ar
    98   137   139   ar
    99    71    72    1
   100    73    74    1
   101    21    22    2
   102    21    20    1
   103    91    92    1
   104    91    88    1
   105    87    88    1
   106    93    92    1
   107    93    94   ar
   108    32    30   ar
   109    78    80   ar
   110    78    77    1
   111    86    85   ar
   112    74    77    1
   113    74    75    1
   114    23    20    1
   115    23    24    1
   116    80    83   ar
   117    26    24   ar
   118    26    28   ar
   119    20    19    1
   120    24    25   ar
   121    30    28   ar
   122    75    76    2
   123    28    27   ar
   124    16    15    2
   125    85    83   ar
   126    19    15   am
   127    15    14    1
   128    25    27   ar
   129    12    11    1
   130     9    11   ar
   131     9     7   ar
   132    11    10   ar
   133     7     6   ar
   134    10     8   ar
   135    14    13    1
   136    14    17    1
   137     6     8   ar
   138     6     5    1
   139    13     3   am
   140    17    18    1
   141     5     2    1
   142     3     2    1
   143     3     4    2
   144     2     1    1
