@<TRIPOS>MOLECULE
tmp/3gjqC00.pdb
 78 75 0 0 0
SMALL
GASTEIGER

@<TRIPOS>ATOM
      1  N         34.9360   26.2480   11.3990 N.3    28  THR28      -0.1203
      2  CA        34.8930   26.9510   10.1290 C.3    28  THR28       0.1994
      3  C         35.7210   28.2250   10.2090 C.2    28  THR28       0.2619
      4  O         35.6020   28.9930   11.1650 O.2    28  THR28      -0.2717
      5  CB        33.4560   27.3280    9.7550 C.3    28  THR28       0.1784
      6  OG1       33.0200   28.4120   10.5830 O.3    28  THR28      -0.2211
      7  CG2       32.5240   26.1380    9.9560 C.3    28  THR28       0.0376
      8  N         36.5560   28.4420    9.1950 N.am   29  SER29      -0.1937
      9  CA        37.4120   29.6210    9.1410 C.3    29  SER29       0.2055
     10  C         36.5860   30.8740    9.4250 C.2    29  SER29       0.2643
     11  O         35.4820   31.0290    8.8980 O.2    29  SER29      -0.2714
     12  CB        38.0640   29.7530    7.7630 C.3    29  SER29       0.2130
     13  OG        37.2570   30.5320    6.8960 O.3    29  SER29      -0.2179
     14  N         37.1300   31.7730   10.2420 N.am   30  ARG30      -0.1963
     15  CA        36.4140   32.9920   10.6020 C.3    30  ARG30       0.1729
     16  C         36.6170   34.1800    9.6630 C.2    30  ARG30       0.2616
     17  O         37.5270   34.9910    9.8350 O.2    30  ARG30      -0.2715
     18  CB        36.7320   33.3910   12.0600 C.3    30  ARG30       0.0348
     19  CG        37.9000   32.6570   12.7150 C.3    30  ARG30       0.0492
     20  CD        37.7980   32.6920   14.2480 C.3    30  ARG30       0.2205
     21  NE        37.4640   34.0210   14.7330 N.pl3  30  ARG30      -0.0865
     22  CZ        38.2540   35.0710   14.5750 C.cat  30  ARG30       0.5346
     23  NH1       39.4260   34.9220   13.9540 N.pl3  30  ARG30       0.1354
     24  NH2       37.8560   36.2670   15.0010 N.pl3  30  ARG30       0.1354
     25  N         35.7410   34.2780    8.6690 N.am   31  SER31      -0.1950
     26  CA        35.7980   35.3580    7.6920 C.3    31  SER31       0.1924
     27  C         35.4870   36.7170    8.3180 C.2    31  SER31       0.2314
     28  O         34.6200   36.8380    9.1860 O.2    31  SER31      -0.2863
     29  CB        34.8290   35.0730    6.5410 C.3    31  SER31       0.2116
     30  OG        33.5460   34.7050    7.0200 O.3    31  SER31      -0.2180
     31  N         39.8960   34.7170   17.7240 N.3    86  SER86      -0.1202
     32  CA        39.8340   33.3200   17.3240 C.3    86  SER86       0.2020
     33  C         38.6270   32.5970   17.9030 C.2    86  SER86       0.2619
     34  O         37.7470   33.2170   18.4990 O.2    86  SER86      -0.2717
     35  CB        41.1220   32.6180   17.7680 C.3    86  SER86       0.2103
     36  OG        41.1010   31.2340   17.4570 O.3    86  SER86      -0.2182
     37  N         38.5640   31.2990   17.6650 N.am   87  HIS87      -0.1961
     38  CA        37.4880   30.4980   18.2110 C.3    87  HIS87       0.1787
     39  C         37.8640   30.2960   19.6770 C.2    87  HIS87       0.2620
     40  O         39.0180   30.4820   20.0420 O.2    87  HIS87      -0.2715
     41  CB        37.3960   29.1410   17.4960 C.3    87  HIS87       0.0785
     42  CG        36.5770   29.1590   16.2330 C.ar   87  HIS87       0.0821
     43  ND1       35.2520   29.5430   16.2120 N.ar   87  HIS87      -0.2267
     44  CD2       36.8690   28.7480   14.9770 C.ar   87  HIS87       0.1154
     45  CE1       34.7600   29.3580   14.9940 C.ar   87  HIS87       0.1986
     46  NE2       35.7230   28.8740   14.2300 N.ar   87  HIS87      -0.2212
     47  N         36.9020   29.9150   20.5080 N.am   88  GLY88      -0.1954
     48  CA        37.1850   29.7110   21.9120 C.3    88  GLY88       0.1869
     49  C         36.0290   29.1310   22.7020 C.2    88  GLY88       0.2309
     50  O         34.8840   29.0530   22.2340 O.2    88  GLY88      -0.2863
     51  N         38.3120   38.2740   21.5650 N.3   127  GLN127     -0.1231
     52  CA        37.1790   38.0910   20.6700 C.3   127  GLN127      0.1698
     53  C         37.1100   36.5960   20.3750 C.2   127  GLN127      0.2592
     54  O         37.8340   36.0830   19.5230 O.2   127  GLN127     -0.2718
     55  CB        37.3750   38.9060   19.3810 C.3   127  GLN127      0.0381
     56  CG        36.4430   38.5250   18.2190 C.3   127  GLN127      0.0905
     57  CD        34.9540   38.6150   18.5650 C.2   127  GLN127      0.2608
     58  OE1       34.4480   39.6630   18.9770 O.2   127  GLN127     -0.2717
     59  NE2       34.2460   37.5130   18.3780 N.am  127  GLN127     -0.0878
     60  N         36.2530   35.8970   21.1120 N.am  128  ALA128     -0.1966
     61  CA        36.0870   34.4580   20.9450 C.3   128  ALA128      0.1728
     62  C         34.8170   33.9820   21.6360 C.2   128  ALA128      0.2616
     63  O         34.1590   34.7550   22.3330 O.2   128  ALA128     -0.2715
     64  CB        37.2930   33.7260   21.5020 C.3   128  ALA128      0.0334
     65  N         34.4570   32.7220   21.4240 N.am  129  CYS129     -0.1968
     66  CA        33.2690   32.1610   22.0530 C.3   129  CYS129      0.1712
     67  C         33.6290   31.7290   23.4730 C.2   129  CYS129      0.2296
     68  O         34.7960   31.4550   23.7690 O.2   129  CYS129     -0.2864
     69  CB        32.7690   30.9540   21.2540 C.3   129  CYS129      0.0983
     70  SG        31.8260   31.4020   19.7340 S.3   129  CYS129     -0.0798
     71  N         22.8480   30.6830   23.4480 N.3   134  LEU134     -0.1245
     72  CA        22.3100   31.7050   22.5580 C.3   134  LEU134      0.1561
     73  C         21.4290   32.6720   23.3410 C.2   134  LEU134      0.2260
     74  O         20.4840   32.2420   24.0000 O.2   134  LEU134     -0.2867
     75  CB        21.4870   31.0170   21.4650 C.3   134  LEU134      0.0270
     76  CG        22.3090   30.0490   20.6110 C.3   134  LEU134      0.0019
     77  CD1       21.4420   28.9120   20.0950 C.3   134  LEU134      0.0001
     78  CD2       22.9390   30.8290   19.4680 C.3   134  LEU134      0.0001
@<TRIPOS>BOND
     1    29    30    1
     2    29    26    1
     3    13    12    1
     4    26    27    1
     5    26    25    1
     6    12     9    1
     7    27    28    2
     8    25    16   am
     9    11    10    2
    10     9     8    1
    11     9    10    1
    12     8     3   am
    13    10    14   am
    14    16    17    2
    15    16    15    1
    16     5     7    1
    17     5     2    1
    18     5     6    1
    19     2     3    1
    20     2     1    1
    21     3     4    2
    22    14    15    1
    23    15    18    1
    24    18    19    1
    25    19    20    1
    26    23    22    1
    27    46    44   ar
    28    46    45   ar
    29    20    21    1
    30    22    21    2
    31    22    24    1
    32    44    42   ar
    33    45    43   ar
    34    43    42   ar
    35    42    41    1
    36    32    31    1
    37    32    35    1
    38    32    33    1
    39    36    35    1
    40    41    38    1
    41    37    33   am
    42    37    38    1
    43    33    34    2
    44    38    39    1
    45    56    57    1
    46    56    55    1
    47    59    57   am
    48    57    58    2
    49    55    52    1
    50    78    76    1
    51    54    53    2
    52    39    40    2
    53    39    47   am
    54    70    69    1
    55    77    76    1
    56    53    52    1
    57    53    60   am
    58    47    48    1
    59    76    75    1
    60    52    51    1
    61    61    60    1
    62    61    64    1
    63    61    62    1
    64    69    66    1
    65    65    62   am
    66    65    66    1
    67    75    72    1
    68    62    63    2
    69    48    49    1
    70    66    67    1
    71    50    49    2
    72    72    73    1
    73    72    71    1
    74    73    74    2
    75    67    68    2
