@<TRIPOS>MOLECULE
tmp/3gjsA00.pdb
 77 73 0 0 0
SMALL
GASTEIGER

@<TRIPOS>ATOM
      1  N         33.9410   -1.3510   37.1990 N.3    28  MET28      -0.1230
      2  CA        32.5750   -1.0960   37.6500 C.3    28  MET28       0.1702
      3  C         32.4900   -1.2340   39.1700 C.2    28  MET28       0.2593
      4  O         32.8120   -2.2790   39.7320 O.2    28  MET28      -0.2718
      5  CB        31.6050   -2.0670   36.9570 C.3    28  MET28       0.0401
      6  CG        30.2330   -2.2520   37.6190 C.3    28  MET28       0.0596
      7  SD        29.2310   -0.7710   37.9550 S.3    28  MET28      -0.1393
      8  CE        29.2750    0.0720   36.3850 C.3    28  MET28       0.0692
      9  N         32.0690   -0.1630   39.8320 N.am   29  THR29      -0.1939
     10  CA        31.9460   -0.1710   41.2800 C.3    29  THR29       0.2028
     11  C         30.6920   -0.9300   41.6960 C.2    29  THR29       0.2643
     12  O         29.7490   -1.0480   40.9200 O.2    29  THR29      -0.2714
     13  CB        31.8770    1.2590   41.8340 C.3    29  THR29       0.1808
     14  OG1       30.7830    1.9490   41.2240 O.3    29  THR29      -0.2208
     15  CG2       33.1670    2.0050   41.5370 C.3    29  THR29       0.0379
     16  N         30.7030   -1.4500   42.9190 N.am   30  SER30      -0.1935
     17  CA        29.5870   -2.2160   43.4650 C.3    30  SER30       0.2055
     18  C         28.2550   -1.4810   43.2700 C.2    30  SER30       0.2643
     19  O         28.1370   -0.2990   43.5940 O.2    30  SER30      -0.2714
     20  CB        29.8390   -2.4830   44.9530 C.3    30  SER30       0.2130
     21  OG        28.9250   -3.4270   45.4800 O.3    30  SER30      -0.2179
     22  N         27.2550   -2.1890   42.7490 N.am   31  ARG31      -0.1963
     23  CA        25.9460   -1.5940   42.4880 C.3    31  ARG31       0.1729
     24  C         25.0590   -1.5550   43.7380 C.2    31  ARG31       0.2616
     25  O         24.0660   -2.2770   43.8360 O.2    31  ARG31      -0.2715
     26  CB        25.2440   -2.3600   41.3470 C.3    31  ARG31       0.0348
     27  CG        26.0340   -2.3780   40.0330 C.3    31  ARG31       0.0492
     28  CD        25.2920   -3.0790   38.8870 C.3    31  ARG31       0.2205
     29  NE        23.9830   -2.4740   38.6380 N.pl3  31  ARG31      -0.0865
     30  CZ        22.8290   -2.9600   39.0950 C.cat  31  ARG31       0.5346
     31  NH1       22.8060   -4.0730   39.8160 N.pl3  31  ARG31       0.1354
     32  NH2       21.6970   -2.3050   38.8690 N.pl3  31  ARG31       0.1354
     33  N         25.4310   -0.6960   44.6840 N.am   32  SER32      -0.1950
     34  CA        24.7000   -0.5310   45.9330 C.3    32  SER32       0.1924
     35  C         23.2100   -0.2760   45.7150 C.2    32  SER32       0.2314
     36  O         22.8280    0.5930   44.9340 O.2    32  SER32      -0.2863
     37  CB        25.2890    0.6360   46.7300 C.3    32  SER32       0.2116
     38  OG        26.6440    0.3910   47.0660 O.3    32  SER32      -0.2180
     39  N         22.1100   -4.9060   36.2360 N.3    87  SER87      -0.1202
     40  CA        23.5570   -4.8420   36.1290 C.3    87  SER87       0.2020
     41  C         23.9810   -3.5710   35.4240 C.2    87  SER87       0.2618
     42  O         23.1630   -2.7040   35.1300 O.2    87  SER87      -0.2717
     43  CB        24.0490   -6.0610   35.3350 C.3    87  SER87       0.2103
     44  OG        25.4590   -6.1230   35.2620 O.3    87  SER87      -0.2182
     45  N         25.2770   -3.4540   35.1740 N.am   88  HIS88      -0.1975
     46  CA        25.7810   -2.3130   34.4410 C.3    88  HIS88       0.1656
     47  C         25.5820   -2.7390   32.9940 C.2    88  HIS88       0.2291
     48  O         25.3670   -3.9270   32.7170 O.2    88  HIS88      -0.2864
     49  CB        27.2710   -2.0900   34.7300 C.3    88  HIS88       0.0771
     50  CG        27.9350   -1.1540   33.7720 C.ar   88  HIS88       0.0820
     51  ND1       27.4660    0.1130   33.5140 N.ar   88  HIS88      -0.2267
     52  CD2       29.0540   -1.2950   33.0070 C.ar   88  HIS88       0.1154
     53  CE1       28.2520    0.7150   32.6380 C.ar   88  HIS88       0.1986
     54  NE2       29.2250   -0.1290   32.3190 N.ar   88  HIS88      -0.2212
     55  N         17.3530   -3.4070   33.7320 N.3   128  GLN128     -0.1245
     56  CA        17.7960   -2.2690   34.5290 C.3   128  GLN128      0.1566
     57  C         19.3180   -2.2220   34.3370 C.2   128  GLN128      0.2260
     58  O         20.0560   -2.9870   34.9640 O.2   128  GLN128     -0.2867
     59  CB        17.4360   -2.4530   36.0060 C.3   128  GLN128      0.0367
     60  CG        18.1250   -1.4640   36.9650 C.3   128  GLN128      0.0905
     61  CD        17.9980   -0.0080   36.5290 C.2   128  GLN128      0.2608
     62  OE1       16.9120    0.4640   36.2090 O.2   128  GLN128     -0.2717
     63  NE2       19.1180    0.7130   36.5300 N.am  128  GLN128     -0.0878
     64  N         22.5240    0.6200   32.2540 N.3   130  CYS130     -0.1235
     65  CA        22.8070    1.7550   31.3920 C.3   130  CYS130      0.1677
     66  C         22.8240    1.3210   29.9270 C.2   130  CYS130      0.2270
     67  O         23.0330    0.1470   29.6310 O.2   130  CYS130     -0.2867
     68  CB        24.1510    2.3700   31.7860 C.3   130  CYS130      0.0956
     69  SG        24.0460    3.2550   33.3700 S.3   130  CYS130     -0.0801
     70  N         23.3240   11.9410   29.3200 N.3   135  LEU135     -0.1245
     71  CA        22.5850   12.4130   30.4820 C.3   135  LEU135      0.1561
     72  C         21.4420   13.2840   29.9980 C.2   135  LEU135      0.2260
     73  O         21.6110   14.0920   29.0870 O.2   135  LEU135     -0.2867
     74  CB        23.5060   13.2160   31.4120 C.3   135  LEU135      0.0270
     75  CG        24.5840   12.3790   32.1130 C.3   135  LEU135      0.0019
     76  CD1       25.6020   13.2850   32.7850 C.3   135  LEU135      0.0001
     77  CD2       23.9280   11.4600   33.1360 C.3   135  LEU135      0.0001
@<TRIPOS>BOND
     1    73    72    2
     2    70    71    1
     3    67    66    2
     4    66    65    1
     5    72    71    1
     6    71    74    1
     7    65    68    1
     8    65    64    1
     9    74    75    1
    10    68    69    1
    11    75    76    1
    12    75    77    1
    13    54    53   ar
    14    54    52   ar
    15    53    51   ar
    16    48    47    2
    17    47    46    1
    18    52    50   ar
    19    51    50   ar
    20    55    56    1
    21    50    49    1
    22    57    56    1
    23    57    58    2
    24    46    49    1
    25    46    45    1
    26    56    59    1
    27    42    41    2
    28    45    41   am
    29    44    43    1
    30    43    40    1
    31    41    40    1
    32    59    60    1
    33    40    39    1
    34    62    61    2
    35     8     7    1
    36    61    63   am
    37    61    60    1
    38     5     6    1
    39     5     2    1
    40     1     2    1
    41     6     7    1
    42     2     3    1
    43    29    28    1
    44    29    30    2
    45    32    30    1
    46    28    27    1
    47    30    31    1
    48     3     4    2
    49     3     9   am
    50     9    10    1
    51    27    26    1
    52    12    11    2
    53    14    13    1
    54    10    11    1
    55    10    13    1
    56    26    23    1
    57    15    13    1
    58    11    16   am
    59    23    22    1
    60    23    24    1
    61    22    18   am
    62    16    17    1
    63    18    17    1
    64    18    19    2
    65    17    20    1
    66    24    25    2
    67    24    33   am
    68    33    34    1
    69    36    35    2
    70    20    21    1
    71    35    34    1
    72    34    37    1
    73    37    38    1
