@<TRIPOS>MOLECULE
tmp/3gjsD00.pdb
 131 135 0 0 0
SMALL
GASTEIGER

@<TRIPOS>ATOM
      1  N         15.0150   -6.5000    7.7530 N.3    19  TYR19      -0.1227
      2  CA        14.5110   -5.9100    6.5220 C.3    19  TYR19       0.1736
      3  C         13.0530   -5.5770    6.8180 C.2    19  TYR19       0.2596
      4  O         12.4720   -6.1140    7.7650 O.2    19  TYR19      -0.2718
      5  CB        14.4950   -6.9310    5.3750 C.3    19  TYR19       0.0548
      6  CG        15.7690   -7.1250    4.5860 C.ar   19  TYR19      -0.0200
      7  CD1       16.3010   -6.0980    3.8060 C.ar   19  TYR19      -0.0009
      8  CD2       16.3920   -8.3710    4.5450 C.ar   19  TYR19      -0.0009
      9  CE1       17.4210   -6.3150    2.9950 C.ar   19  TYR19       0.0417
     10  CE2       17.5090   -8.5970    3.7400 C.ar   19  TYR19       0.0417
     11  CZ        18.0160   -7.5680    2.9690 C.ar   19  TYR19       0.1957
     12  OH        19.1170   -7.8030    2.1730 O.3    19  TYR19      -0.2866
     13  N         12.4710   -4.7060    6.0060 N.am   20  SER20      -0.1938
     14  CA        11.0650   -4.3450    6.1350 C.3    20  SER20       0.2055
     15  C         10.4540   -4.6380    4.7650 C.2    20  SER20       0.2643
     16  O         10.9960   -4.2160    3.7450 O.2    20  SER20      -0.2714
     17  CB        10.9180   -2.8660    6.4660 C.3    20  SER20       0.2130
     18  OG         9.5620   -2.5590    6.7060 O.3    20  SER20      -0.2179
     19  N          9.3340   -5.3550    4.7350 N.am   21  TRP21      -0.1959
     20  CA         8.7090   -5.7220    3.4660 C.3    21  TRP21       0.1771
     21  C          7.6820   -4.7690    2.8700 C.2    21  TRP21       0.2620
     22  O          6.9420   -4.0830    3.5780 O.2    21  TRP21      -0.2715
     23  CB         8.0900   -7.1130    3.5770 C.3    21  TRP21       0.0590
     24  CG         9.1000   -8.1850    3.7180 C.ar   21  TRP21       0.0006
     25  CD1        9.5830   -8.7120    4.8800 C.ar   21  TRP21       0.0946
     26  CD2        9.7790   -8.8650    2.6500 C.ar   21  TRP21       0.0152
     27  NE1       10.5150   -9.6790    4.6130 N.ar   21  TRP21      -0.2442
     28  CE2       10.6540   -9.7940    3.2550 C.ar   21  TRP21       0.0810
     29  CE3        9.7220   -8.7760    1.2570 C.ar   21  TRP21       0.0012
     30  CZ2       11.4820  -10.6340    2.4870 C.ar   21  TRP21       0.0191
     31  CZ3       10.5450   -9.6140    0.5010 C.ar   21  TRP21       0.0001
     32  CH2       11.4110  -10.5330    1.1230 C.ar   21  TRP21       0.0015
     33  N          7.6350   -4.7570    1.5420 N.am   22  ARG22      -0.1963
     34  CA         6.7220   -3.8970    0.8140 C.3    22  ARG22       0.1729
     35  C          6.1660   -4.6140   -0.4140 C.2    22  ARG22       0.2616
     36  O          6.8470   -5.4360   -1.0260 O.2    22  ARG22      -0.2715
     37  CB         7.4720   -2.6200    0.4090 C.3    22  ARG22       0.0348
     38  CG         6.7680   -1.7090   -0.5820 C.3    22  ARG22       0.0492
     39  CD         7.4580   -0.3390   -0.6180 C.3    22  ARG22       0.2205
     40  NE         8.9120   -0.4450   -0.7280 N.pl3  22  ARG22      -0.0865
     41  CZ         9.5610   -0.7800   -1.8390 C.cat  22  ARG22       0.5346
     42  NH1       10.8870   -0.8580   -1.8370 N.pl3  22  ARG22       0.1354
     43  NH2        8.8880   -1.0240   -2.9570 N.pl3  22  ARG22       0.1354
     44  N          4.9140   -4.3200   -0.7420 N.am   23  ASN23      -0.1958
     45  CA         4.2620   -4.8940   -1.9120 C.3    23  ASN23       0.1819
     46  C          4.1960   -3.7800   -2.9540 C.2    23  ASN23       0.2622
     47  O          3.5670   -2.7480   -2.7230 O.2    23  ASN23      -0.2715
     48  CB         2.8380   -5.3480   -1.5870 C.3    23  ASN23       0.1195
     49  CG         2.7930   -6.5040   -0.6120 C.2    23  ASN23       0.2630
     50  OD1        3.7310   -7.2940   -0.5170 O.2    23  ASN23      -0.2716
     51  ND2        1.6800   -6.6230    0.1040 N.am   23  ASN23      -0.0877
     52  N          4.8410   -3.9890   -4.0970 N.am   24  SER24      -0.1950
     53  CA         4.8590   -2.9880   -5.1630 C.3    24  SER24       0.1924
     54  C          3.4610   -2.5940   -5.6380 C.2    24  SER24       0.2314
     55  O          3.2990   -1.5950   -6.3320 O.2    24  SER24      -0.2863
     56  CB         5.6660   -3.5160   -6.3490 C.3    24  SER24       0.2116
     57  OG         6.9660   -3.8950   -5.9380 O.3    24  SER24      -0.2180
     58  N          3.4660   -1.0020    1.6120 N.3    28  SER28      -0.1202
     59  CA         4.2040   -1.7090    2.6540 C.3    28  SER28       0.2020
     60  C          3.2500   -2.4680    3.5710 C.2    28  SER28       0.2618
     61  O          2.1230   -2.0330    3.8050 O.2    28  SER28      -0.2717
     62  CB         5.0380   -0.7160    3.4760 C.3    28  SER28       0.2103
     63  OG         4.2090    0.2250    4.1390 O.3    28  SER28      -0.2182
     64  N          3.7000   -3.6110    4.0790 N.am   29  TRP29      -0.1975
     65  CA         2.8790   -4.4150    4.9840 C.3    29  TRP29       0.1640
     66  C          2.4820   -3.5860    6.2060 C.2    29  TRP29       0.2290
     67  O          1.3090   -3.5100    6.5830 O.2    29  TRP29      -0.2864
     68  CB         3.6610   -5.6400    5.4680 C.3    29  TRP29       0.0576
     69  CG         4.0700   -6.6050    4.3900 C.ar   29  TRP29       0.0006
     70  CD1        3.7750   -6.5290    3.0560 C.ar   29  TRP29       0.0946
     71  CD2        4.8230   -7.8110    4.5690 C.ar   29  TRP29       0.0152
     72  NE1        4.2970   -7.6140    2.3960 N.ar   29  TRP29      -0.2442
     73  CE2        4.9440   -8.4200    3.3020 C.ar   29  TRP29       0.0810
     74  CE3        5.4070   -8.4370    5.6790 C.ar   29  TRP29       0.0012
     75  CZ2        5.6240   -9.6280    3.1090 C.ar   29  TRP29       0.0191
     76  CZ3        6.0840   -9.6330    5.4930 C.ar   29  TRP29       0.0001
     77  CH2        6.1860  -10.2200    4.2110 C.ar   29  TRP29       0.0015
     78  N          0.8360  -11.6140    6.6280 N.3    62  PHE62      -0.1227
     79  CA         1.8030  -11.3940    5.5560 C.3    62  PHE62       0.1736
     80  C          2.9660  -12.3810    5.5470 C.2    62  PHE62       0.2595
     81  O          3.4400  -12.8210    6.5940 O.2    62  PHE62      -0.2718
     82  CB         2.3700   -9.9760    5.6450 C.3    62  PHE62       0.0547
     83  CG         1.3430   -8.8920    5.4780 C.ar   62  PHE62      -0.0202
     84  CD1        1.0970   -8.3300    4.2280 C.ar   62  PHE62      -0.0042
     85  CD2        0.6360   -8.4130    6.5780 C.ar   62  PHE62      -0.0042
     86  CE1        0.1600   -7.2990    4.0770 C.ar   62  PHE62      -0.0003
     87  CE2       -0.3010   -7.3840    6.4360 C.ar   62  PHE62      -0.0003
     88  CZ        -0.5380   -6.8270    5.1840 C.ar   62  PHE62      -0.0000
     89  N          3.4130  -12.7210    4.3420 N.am   63  GLU63      -0.1965
     90  CA         4.5400  -13.6170    4.1430 C.3    63  GLU63       0.1733
     91  C          5.0600  -13.3730    2.7310 C.2    63  GLU63       0.2617
     92  O          4.2810  -13.2330    1.7940 O.2    63  GLU63      -0.2715
     93  CB         4.1250  -15.0810    4.3090 C.3    63  GLU63       0.0429
     94  CG         5.3010  -16.0330    4.2100 C.3    63  GLU63       0.1163
     95  CD         4.9110  -17.4860    4.4070 C.2    63  GLU63       0.3649
     96  OE1        4.3300  -17.8080    5.4640 O.co2  63  GLU63      -0.2457
     97  OE2        5.1910  -18.3060    3.5060 O.co2  63  GLU63      -0.2457
     98  N          6.3790  -13.3100    2.5880 N.am   64  SER64      -0.1936
     99  CA         6.9910  -13.0530    1.2950 C.3    64  SER64       0.2055
    100  C          6.9840  -14.2490    0.3480 C.2    64  SER64       0.2643
    101  O          7.0600  -15.4030    0.7720 O.2    64  SER64      -0.2714
    102  CB         8.4370  -12.6140    1.4850 C.3    64  SER64       0.2130
    103  OG         9.2380  -13.7340    1.8190 O.3    64  SER64      -0.2179
    104  N          6.9110  -13.9500   -0.9440 N.am   65  PHE65      -0.1959
    105  CA         6.9440  -14.9680   -1.9880 C.3    65  PHE65       0.1771
    106  C          8.0320  -14.5400   -2.9650 C.2    65  PHE65       0.2620
    107  O          8.0220  -13.4130   -3.4640 O.2    65  PHE65      -0.2715
    108  CB         5.5950  -15.0580   -2.6980 C.3    65  PHE65       0.0574
    109  CG         5.5630  -16.0680   -3.8130 C.ar   65  PHE65      -0.0200
    110  CD1        6.0060  -15.7320   -5.0910 C.ar   65  PHE65      -0.0042
    111  CD2        5.1080  -17.3630   -3.5800 C.ar   65  PHE65      -0.0042
    112  CE1        5.9990  -16.6730   -6.1190 C.ar   65  PHE65      -0.0003
    113  CE2        5.1010  -18.3140   -4.6080 C.ar   65  PHE65      -0.0003
    114  CZ         5.5480  -17.9660   -5.8730 C.ar   65  PHE65      -0.0000
    115  N          8.9760  -15.4330   -3.2380 N.am   66  SER66      -0.1950
    116  CA        10.0680  -15.1050   -4.1430 C.3    66  SER66       0.1924
    117  C         10.6490  -16.3460   -4.8140 C.2    66  SER66       0.2314
    118  O         10.6730  -17.4280   -4.2280 O.2    66  SER66      -0.2863
    119  CB        11.1720  -14.3760   -3.3660 C.3    66  SER66       0.2116
    120  OG        12.2790  -14.0740   -4.1960 O.3    66  SER66      -0.2180
    121  N         14.8090  -14.9920   -0.1790 N.3    71  PHE71      -0.1241
    122  CA        13.7700  -14.0720    0.2750 C.3    71  PHE71       0.1605
    123  C         12.3690  -14.6560    0.2460 C.2    71  PHE71       0.2264
    124  O         11.3860  -13.9310    0.3850 O.2    71  PHE71      -0.2867
    125  CB        13.7950  -12.7980   -0.5700 C.3    71  PHE71       0.0534
    126  CG        15.1380  -12.1300   -0.6160 C.ar   71  PHE71      -0.0203
    127  CD1       16.1130  -12.5550   -1.5120 C.ar   71  PHE71      -0.0042
    128  CD2       15.4360  -11.0860    0.2550 C.ar   71  PHE71      -0.0042
    129  CE1       17.3720  -11.9500   -1.5400 C.ar   71  PHE71      -0.0003
    130  CE2       16.6850  -10.4750    0.2370 C.ar   71  PHE71      -0.0003
    131  CZ        17.6570  -10.9080   -0.6620 C.ar   71  PHE71      -0.0000
@<TRIPOS>BOND
     1    56    57    1
     2    56    53    1
     3    55    54    2
     4   112   114   ar
     5   112   110   ar
     6   114   113   ar
     7    54    53    1
     8    53    52    1
     9   110   109   ar
    10   117   118    2
    11   117   116    1
    12   113   111   ar
    13   120   119    1
    14   116   119    1
    15   116   115    1
    16    52    46   am
    17   109   111   ar
    18   109   108    1
    19   107   106    2
    20   115   106   am
    21   106   105    1
    22    43    41    1
    23    46    47    2
    24    46    45    1
    25   108   105    1
    26   105   104    1
    27    45    48    1
    28    45    44    1
    29    41    42    1
    30    41    40    2
    31    48    49    1
    32   129   127   ar
    33   129   131   ar
    34   127   126   ar
    35    36    35    2
    36   104   100   am
    37    44    35   am
    38    40    39    1
    39   131   130   ar
    40    39    38    1
    41   126   125    1
    42   126   128   ar
    43    49    50    2
    44    49    51   am
    45    38    37    1
    46   125   122    1
    47    35    34    1
    48   121   122    1
    49   130   128   ar
    50   123   122    1
    51   123   124    2
    52   100   101    2
    53   100    99    1
    54    37    34    1
    55    31    32   ar
    56    31    29   ar
    57    34    33    1
    58    32    30   ar
    59    29    26   ar
    60    99   102    1
    61    99    98    1
    62   102   103    1
    63    33    21   am
    64    58    59    1
    65    92    91    2
    66    12    11    1
    67    72    70   ar
    68    72    73   ar
    69    30    28   ar
    70    98    91   am
    71    26    28   ar
    72    26    24   ar
    73    59    62    1
    74    59    60    1
    75    91    90    1
    76    21    20    1
    77    21    22    2
    78    11     9   ar
    79    11    10   ar
    80     9     7   ar
    81    70    69   ar
    82    75    73   ar
    83    75    77   ar
    84    28    27   ar
    85    73    71   ar
    86    20    23    1
    87    20    19    1
    88    62    63    1
    89    97    95   ar
    90    60    61    2
    91    60    64   am
    92    23    24    1
    93    24    25   ar
    94    10     8   ar
    95    16    15    2
    96     7     6   ar
    97    86    84   ar
    98    86    88   ar
    99    64    65    1
   100    90    93    1
   101    90    89    1
   102    94    93    1
   103    94    95    1
   104    77    76   ar
   105    84    83   ar
   106    89    80   am
   107    69    71   ar
   108    69    68    1
   109    95    96   ar
   110     8     6   ar
   111    71    74   ar
   112     6     5    1
   113    27    25   ar
   114    19    15   am
   115    15    14    1
   116    65    68    1
   117    65    66    1
   118    88    87   ar
   119     5     2    1
   120    83    82    1
   121    83    85   ar
   122    76    74   ar
   123    80    79    1
   124    80    81    2
   125    79    82    1
   126    79    78    1
   127    13    14    1
   128    13     3   am
   129    14    17    1
   130    66    67    2
   131    87    85   ar
   132    17    18    1
   133     2     3    1
   134     2     1    1
   135     3     4    2
