@<TRIPOS>MOLECULE
tmp/3gjtB00.pdb
 131 135 0 0 0
SMALL
GASTEIGER

@<TRIPOS>ATOM
      1  N          6.6610   32.3760   46.9720 N.3    19  TYR19      -0.1227
      2  CA         6.0650   32.4980   48.2950 C.3    19  TYR19       0.1736
      3  C          5.6820   33.9520   48.4740 C.2    19  TYR19       0.2596
      4  O          6.2180   34.8360   47.8050 O.2    19  TYR19      -0.2718
      5  CB         7.0770   32.1890   49.3640 C.3    19  TYR19       0.0548
      6  CG         7.1850   30.7490   49.8340 C.ar   19  TYR19      -0.0200
      7  CD1        8.3720   30.0530   49.6510 C.ar   19  TYR19      -0.0009
      8  CD2        6.1310   30.1070   50.4530 C.ar   19  TYR19      -0.0009
      9  CE1        8.5210   28.7590   50.0800 C.ar   19  TYR19       0.0417
     10  CE2        6.2690   28.8060   50.9190 C.ar   19  TYR19       0.0417
     11  CZ         7.4710   28.1440   50.7310 C.ar   19  TYR19       0.1957
     12  OH         7.6060   26.8440   51.1930 O.3    19  TYR19      -0.2866
     13  N          4.7190   34.1950   49.3640 N.am   20  SER20      -0.1938
     14  CA         4.2880   35.5390   49.6870 C.3    20  SER20       0.2055
     15  C          4.5810   35.6520   51.2000 C.2    20  SER20       0.2643
     16  O          4.2340   34.7440   51.9640 O.2    20  SER20      -0.2714
     17  CB         2.8010   35.6960   49.4260 C.3    20  SER20       0.2130
     18  OG         2.4190   37.0670   49.5440 O.3    20  SER20      -0.2179
     19  N          5.2240   36.7320   51.6410 N.am   21  TRP21      -0.1959
     20  CA         5.5520   36.8740   53.0610 C.3    21  TRP21       0.1771
     21  C          4.5890   37.6630   53.9410 C.2    21  TRP21       0.2620
     22  O          4.0150   38.6670   53.5180 O.2    21  TRP21      -0.2715
     23  CB         6.9560   37.4480   53.1970 C.3    21  TRP21       0.0590
     24  CG         7.9690   36.6390   52.4790 C.ar   21  TRP21       0.0006
     25  CD1        8.6300   36.9890   51.3430 C.ar   21  TRP21       0.0946
     26  CD2        8.4220   35.3250   52.8170 C.ar   21  TRP21       0.0152
     27  NE1        9.4690   35.9750   50.9490 N.ar   21  TRP21      -0.2442
     28  CE2        9.3620   34.9370   51.8420 C.ar   21  TRP21       0.0810
     29  CE3        8.1280   34.4320   53.8570 C.ar   21  TRP21       0.0012
     30  CZ2       10.0090   33.7020   51.8630 C.ar   21  TRP21       0.0191
     31  CZ3        8.7730   33.1980   53.8810 C.ar   21  TRP21       0.0001
     32  CH2        9.7030   32.8480   52.8920 C.ar   21  TRP21       0.0015
     33  N          4.4610   37.2210   55.1910 N.am   22  ARG22      -0.1963
     34  CA         3.5730   37.8700   56.1450 C.3    22  ARG22       0.1729
     35  C          4.2060   38.0220   57.5310 C.2    22  ARG22       0.2616
     36  O          4.8600   37.1140   58.0430 O.2    22  ARG22      -0.2715
     37  CB         2.2700   37.0700   56.2300 C.3    22  ARG22       0.0348
     38  CG         1.3560   37.4230   57.3820 C.3    22  ARG22       0.0492
     39  CD         0.0200   36.6900   57.2340 C.3    22  ARG22       0.2205
     40  NE         0.1960   35.2780   56.9060 N.pl3  22  ARG22      -0.0865
     41  CZ         0.6820   34.3620   57.7400 C.cat  22  ARG22       0.5346
     42  NH1        0.8130   33.0980   57.3450 N.pl3  22  ARG22       0.1354
     43  NH2        1.0280   34.6990   58.9760 N.pl3  22  ARG22       0.1354
     44  N          4.0230   39.1900   58.1250 N.am   23  ASN23      -0.1958
     45  CA         4.5560   39.4420   59.4500 C.3    23  ASN23       0.1819
     46  C          3.4490   39.1350   60.4610 C.2    23  ASN23       0.2622
     47  O          2.3850   39.7610   60.4370 O.2    23  ASN23      -0.2715
     48  CB         5.0090   40.8960   59.5570 C.3    23  ASN23       0.1195
     49  CG         5.6620   41.2020   60.8870 C.2    23  ASN23       0.2630
     50  OD1        5.0200   41.1140   61.9380 O.2    23  ASN23      -0.2716
     51  ND2        6.9480   41.5600   60.8530 N.am   23  ASN23      -0.0877
     52  N          3.7110   38.1700   61.3430 N.am   24  SER24      -0.1950
     53  CA         2.7430   37.7400   62.3540 C.3    24  SER24       0.1924
     54  C          2.1160   38.8530   63.1860 C.2    24  SER24       0.2314
     55  O          1.0540   38.6590   63.7660 O.2    24  SER24      -0.2863
     56  CB         3.3840   36.7210   63.3010 C.3    24  SER24       0.2116
     57  OG         4.3300   37.3430   64.1500 O.3    24  SER24      -0.2180
     58  N          0.6880   41.0930   56.3770 N.3    28  SER28      -0.1202
     59  CA         1.4660   40.7810   55.1770 C.3    28  SER28       0.2020
     60  C          2.1080   42.0310   54.5870 C.2    28  SER28       0.2618
     61  O          1.5010   43.1060   54.5940 O.2    28  SER28      -0.2717
     62  CB         0.5790   40.1140   54.1180 C.3    28  SER28       0.2103
     63  OG        -0.3350   41.0530   53.5900 O.3    28  SER28      -0.2182
     64  N          3.3400   41.8880   54.0910 N.am   29  TRP29      -0.1975
     65  CA         4.0730   43.0000   53.4720 C.3    29  TRP29       0.1640
     66  C          3.2350   43.7050   52.4060 C.2    29  TRP29       0.2290
     67  O          3.1830   44.9350   52.3540 O.2    29  TRP29      -0.2864
     68  CB         5.3630   42.4980   52.8000 C.3    29  TRP29       0.0576
     69  CG         6.3530   41.8640   53.7370 C.ar   29  TRP29       0.0006
     70  CD1        6.2670   41.7980   55.1040 C.ar   29  TRP29       0.0946
     71  CD2        7.5740   41.1950   53.3820 C.ar   29  TRP29       0.0152
     72  NE1        7.3550   41.1300   55.6180 N.ar   29  TRP29      -0.2442
     73  CE2        8.1740   40.7510   54.5860 C.ar   29  TRP29       0.0810
     74  CE3        8.2210   40.9310   52.1640 C.ar   29  TRP29       0.0012
     75  CZ2        9.3860   40.0530   54.6110 C.ar   29  TRP29       0.0191
     76  CZ3        9.4300   40.2360   52.1820 C.ar   29  TRP29       0.0001
     77  CH2       10.0030   39.8050   53.4100 C.ar   29  TRP29       0.0015
     78  N         12.5240   42.6140   53.9030 N.3    63  GLU63      -0.1231
     79  CA        13.4370   41.4870   53.8060 C.3    63  GLU63       0.1699
     80  C         13.0800   40.6220   55.0000 C.2    63  GLU63       0.2593
     81  O         12.9500   41.1130   56.1270 O.2    63  GLU63      -0.2718
     82  CB        14.8920   41.9430   53.8880 C.3    63  GLU63       0.0402
     83  CG        15.8710   40.8570   53.4580 C.3    63  GLU63       0.1161
     84  CD        17.3240   41.2980   53.5480 C.2    63  GLU63       0.3649
     85  OE1       17.6430   42.3930   53.0290 O.co2  63  GLU63      -0.2457
     86  OE2       18.1430   40.5480   54.1300 O.co2  63  GLU63      -0.2457
     87  N         12.9180   39.3300   54.7610 N.am   64  SER64      -0.1938
     88  CA        12.5310   38.4310   55.8370 C.3    64  SER64       0.2055
     89  C         13.6410   38.1210   56.8440 C.2    64  SER64       0.2643
     90  O         14.8320   38.2400   56.5410 O.2    64  SER64      -0.2714
     91  CB        11.9910   37.1150   55.2640 C.3    64  SER64       0.2130
     92  OG        13.0340   36.3570   54.6860 O.3    64  SER64      -0.2179
     93  N         13.2170   37.7350   58.0460 N.am   65  PHE65      -0.1959
     94  CA        14.1110   37.3470   59.1330 C.3    65  PHE65       0.1771
     95  C         13.5170   36.0780   59.7180 C.2    65  PHE65       0.2620
     96  O         12.3440   36.0510   60.1020 O.2    65  PHE65      -0.2715
     97  CB        14.1990   38.4320   60.2130 C.3    65  PHE65       0.0574
     98  CG        15.0170   38.0210   61.4160 C.ar   65  PHE65      -0.0200
     99  CD1       14.4340   37.3080   62.4650 C.ar   65  PHE65      -0.0042
    100  CD2       16.3760   38.3160   61.4840 C.ar   65  PHE65      -0.0042
    101  CE1       15.1960   36.8950   63.5640 C.ar   65  PHE65      -0.0003
    102  CE2       17.1480   37.9060   62.5790 C.ar   65  PHE65      -0.0003
    103  CZ        16.5550   37.1940   63.6190 C.ar   65  PHE65      -0.0000
    104  N         14.3260   35.0270   59.7680 N.am   66  SER66      -0.1936
    105  CA        13.8820   33.7420   60.2880 C.3    66  SER66       0.2055
    106  C         15.0410   32.9140   60.8330 C.2    66  SER66       0.2643
    107  O         16.1650   33.0070   60.3360 O.2    66  SER66      -0.2714
    108  CB        13.1720   32.9540   59.1870 C.3    66  SER66       0.2130
    109  OG        12.9900   31.6020   59.5680 O.3    66  SER66      -0.2179
    110  N         14.7580   32.1120   61.8600 N.am   67  PHE67      -0.1973
    111  CA        15.7660   31.2400   62.4640 C.3    67  PHE67       0.1639
    112  C         15.9900   30.0530   61.5340 C.2    67  PHE67       0.2290
    113  O         16.8850   29.2320   61.7480 O.2    67  PHE67      -0.2864
    114  CB        15.3060   30.7330   63.8420 C.3    67  PHE67       0.0560
    115  CG        15.0410   31.8280   64.8370 C.ar   67  PHE67      -0.0200
    116  CD1       15.9560   32.8600   65.0150 C.ar   67  PHE67      -0.0042
    117  CD2       13.8720   31.8330   65.5940 C.ar   67  PHE67      -0.0042
    118  CE1       15.7110   33.8850   65.9230 C.ar   67  PHE67      -0.0003
    119  CE2       13.6180   32.8550   66.5050 C.ar   67  PHE67      -0.0003
    120  CZ        14.5390   33.8810   66.6690 C.ar   67  PHE67      -0.0000
    121  N         13.8920   30.3730   55.0660 N.3    71  PHE71      -0.1241
    122  CA        12.9960   31.5200   54.9510 C.3    71  PHE71       0.1605
    123  C         13.6180   32.8390   55.3650 C.2    71  PHE71       0.2264
    124  O         12.9480   33.8740   55.3840 O.2    71  PHE71      -0.2867
    125  CB        11.7240   31.2920   55.7710 C.3    71  PHE71       0.0534
    126  CG        10.9470   30.0740   55.3640 C.ar   71  PHE71      -0.0203
    127  CD1       11.1170   29.5090   54.1030 C.ar   71  PHE71      -0.0042
    128  CD2       10.0230   29.5040   56.2330 C.ar   71  PHE71      -0.0042
    129  CE1       10.3800   28.3950   53.7130 C.ar   71  PHE71      -0.0003
    130  CE2        9.2790   28.3890   55.8510 C.ar   71  PHE71      -0.0003
    131  CZ         9.4590   27.8350   54.5890 C.ar   71  PHE71      -0.0000
@<TRIPOS>BOND
     1     1     2    1
     2     4     3    2
     3     2     3    1
     4     2     5    1
     5     3    13   am
     6     5     6    1
     7    13    14    1
     8    17    18    1
     9    17    14    1
    10     7     6   ar
    11     7     9   ar
    12    14    15    1
    13     6     8   ar
    14     9    11   ar
    15     8    10   ar
    16    11    10   ar
    17    11    12    1
    18    27    25   ar
    19    27    28   ar
    20    15    19   am
    21    15    16    2
    22    25    24   ar
    23    19    20    1
    24    28    30   ar
    25    28    26   ar
    26    30    32   ar
    27    74    76   ar
    28    74    71   ar
    29    76    77   ar
    30    67    66    2
    31    66    65    1
    32    24    26   ar
    33    24    23    1
    34    68    65    1
    35    68    69    1
    36    26    29   ar
    37    32    31   ar
    38    85    84   ar
    39    20    23    1
    40    20    21    1
    41    71    69   ar
    42    71    73   ar
    43    77    75   ar
    44    83    84    1
    45    83    82    1
    46    65    64    1
    47    22    21    2
    48    84    86   ar
    49    63    62    1
    50   129   127   ar
    51   129   131   ar
    52    69    70   ar
    53    79    82    1
    54    79    78    1
    55    79    80    1
    56    29    31   ar
    57    21    33   am
    58    64    60   am
    59   127   126   ar
    60    62    59    1
    61    73    75   ar
    62    73    72   ar
    63    60    61    2
    64    60    59    1
    65   131   130   ar
    66    92    91    1
    67    87    80   am
    68    87    88    1
    69   122   121    1
    70   122   123    1
    71   122   125    1
    72    80    81    2
    73    70    72   ar
    74    59    58    1
    75    33    34    1
    76    91    88    1
    77   126   125    1
    78   126   128   ar
    79   123   124    2
    80    88    89    1
    81   130   128   ar
    82    34    37    1
    83    34    35    1
    84    37    38    1
    85    90    89    2
    86    89    93   am
    87    40    39    1
    88    40    41    2
    89    39    38    1
    90    42    41    1
    91    35    36    2
    92    35    44   am
    93    41    43    1
    94    93    94    1
    95    44    45    1
    96    94    95    1
    97    94    97    1
    98   108   109    1
    99   108   105    1
   100    45    48    1
   101    45    46    1
   102    48    49    1
   103    95   104   am
   104    95    96    2
   105   104   105    1
   106    97    98    1
   107   105   106    1
   108   107   106    2
   109    47    46    2
   110    46    52   am
   111   106   110   am
   112    51    49   am
   113    49    50    2
   114    52    53    1
   115    98   100   ar
   116    98    99   ar
   117   100   102   ar
   118   112   113    2
   119   112   111    1
   120   110   111    1
   121    53    54    1
   122    53    56    1
   123   111   114    1
   124    99   101   ar
   125   102   103   ar
   126    54    55    2
   127    56    57    1
   128   101   103   ar
   129   114   115    1
   130   115   116   ar
   131   115   117   ar
   132   116   118   ar
   133   117   119   ar
   134   118   120   ar
   135   119   120   ar
