@<TRIPOS>MOLECULE
tmp/3gjtC00.pdb
 70 68 0 0 0
SMALL
GASTEIGER

@<TRIPOS>ATOM
      1  N          0.6690   26.4130   11.2830 N.3    28  THR28      -0.1203
      2  CA         0.5900   27.0480    9.9790 C.3    28  THR28       0.1994
      3  C          1.4100   28.3270    9.9600 C.2    28  THR28       0.2619
      4  O          1.5030   29.0320   10.9680 O.2    28  THR28      -0.2717
      5  CB        -0.8530   27.3920    9.6240 C.3    28  THR28       0.1784
      6  OG1       -1.3460   28.3720   10.5430 O.3    28  THR28      -0.2211
      7  CG2       -1.7190   26.1510    9.7030 C.3    28  THR28       0.0376
      8  N          2.0030   28.6220    8.8090 N.am   29  SER29      -0.1937
      9  CA         2.8140   29.8200    8.6580 C.3    29  SER29       0.2055
     10  C          2.0640   31.0300    9.2220 C.2    29  SER29       0.2643
     11  O          0.8560   31.1700    9.0150 O.2    29  SER29      -0.2714
     12  CB         3.1410   30.0460    7.1800 C.3    29  SER29       0.2130
     13  OG         4.0780   31.0960    7.0300 O.3    29  SER29      -0.2179
     14  N          2.7830   31.8950    9.9350 N.am   30  ARG30      -0.1963
     15  CA         2.1850   33.0750   10.5480 C.3    30  ARG30       0.1729
     16  C          2.2090   34.2990    9.6230 C.2    30  ARG30       0.2616
     17  O          2.9880   35.2360    9.8140 O.2    30  ARG30      -0.2715
     18  CB         2.8850   33.3740   11.8940 C.3    30  ARG30       0.0348
     19  CG         2.7390   32.2590   12.9550 C.3    30  ARG30       0.0492
     20  CD         3.3850   32.6110   14.3220 C.3    30  ARG30       0.2205
     21  NE         2.8790   33.8760   14.8380 N.pl3  30  ARG30      -0.0865
     22  CZ         3.5050   35.0400   14.7230 C.cat  30  ARG30       0.5346
     23  NH1        4.6900   35.1150   14.1220 N.pl3  30  ARG30       0.1354
     24  NH2        2.9190   36.1420   15.1650 N.pl3  30  ARG30       0.1354
     25  N          1.3360   34.2750    8.6160 N.am   31  SER31      -0.1950
     26  CA         1.2140   35.3590    7.6330 C.3    31  SER31       0.1924
     27  C          0.9070   36.7020    8.2890 C.2    31  SER31       0.2314
     28  O          0.0090   36.8000    9.1290 O.2    31  SER31      -0.2863
     29  CB         0.0950   35.0380    6.6310 C.3    31  SER31       0.2116
     30  OG         0.2310   33.7270    6.1070 O.3    31  SER31      -0.2180
     31  N          5.3710   34.7380   17.5530 N.3    86  SER86      -0.1202
     32  CA         5.3510   33.3250   17.2070 C.3    86  SER86       0.2020
     33  C          4.1230   32.6300   17.7660 C.2    86  SER86       0.2619
     34  O          3.2060   33.2740   18.2680 O.2    86  SER86      -0.2717
     35  CB         6.6080   32.6690   17.7890 C.3    86  SER86       0.2103
     36  OG         6.6760   31.2840   17.5040 O.3    86  SER86      -0.2182
     37  N          4.0970   31.3090   17.6530 N.am   87  HIS87      -0.1961
     38  CA         2.9920   30.5350   18.1930 C.3    87  HIS87       0.1787
     39  C          3.3610   30.3230   19.6610 C.2    87  HIS87       0.2620
     40  O          4.5080   30.5550   20.0550 O.2    87  HIS87      -0.2715
     41  CB         2.8590   29.1780   17.4790 C.3    87  HIS87       0.0785
     42  CG         2.0420   29.2220   16.2190 C.ar   87  HIS87       0.0821
     43  ND1        2.6010   29.3350   14.9650 N.ar   87  HIS87      -0.2267
     44  CD2        0.7030   29.1370   16.0260 C.ar   87  HIS87       0.1154
     45  CE1        1.6440   29.3110   14.0530 C.ar   87  HIS87       0.1986
     46  NE2        0.4840   29.1920   14.6700 N.ar   87  HIS87      -0.2212
     47  N          2.3960   29.9070   20.4710 N.am   88  GLY88      -0.1954
     48  CA         2.6700   29.6830   21.8730 C.3    88  GLY88       0.1869
     49  C          1.5350   29.0180   22.6160 C.2    88  GLY88       0.2309
     50  O          0.4800   28.7330   22.0470 O.2    88  GLY88      -0.2863
     51  N          3.7730   38.3450   21.4840 N.3   127  GLN127     -0.1231
     52  CA         2.6380   38.1670   20.5860 C.3   127  GLN127      0.1698
     53  C          2.6010   36.6790   20.2810 C.2   127  GLN127      0.2592
     54  O          3.3570   36.1720   19.4480 O.2   127  GLN127     -0.2718
     55  CB         2.8110   38.9930   19.3120 C.3   127  GLN127      0.0381
     56  CG         1.8480   38.6100   18.1860 C.3   127  GLN127      0.0905
     57  CD         0.3900   38.5850   18.6200 C.2   127  GLN127      0.2608
     58  OE1       -0.1510   39.5740   19.1180 O.2   127  GLN127     -0.2717
     59  NE2       -0.2540   37.4500   18.4180 N.am  127  GLN127     -0.0878
     60  N          1.7310   35.9830   21.0010 N.am  128  ALA128     -0.1966
     61  CA         1.5780   34.5440   20.8510 C.3   128  ALA128      0.1728
     62  C          0.3630   34.0620   21.6320 C.2   128  ALA128      0.2616
     63  O         -0.1020   34.7290   22.5590 O.2   128  ALA128     -0.2715
     64  CB         2.8240   33.8300   21.3480 C.3   128  ALA128      0.0334
     65  N         -0.1490   32.9000   21.2490 N.am  129  CYS129     -0.1968
     66  CA        -1.2940   32.3210   21.9270 C.3   129  CYS129      0.1712
     67  C         -0.8460   31.8260   23.3050 C.2   129  CYS129      0.2296
     68  O          0.3270   31.5000   23.5100 O.2   129  CYS129     -0.2864
     69  CB        -1.8580   31.1460   21.1160 C.3   129  CYS129      0.0983
     70  SG        -2.6360   31.6290   19.5250 S.3   129  CYS129     -0.0798
@<TRIPOS>BOND
     1    30    29    1
     2    29    26    1
     3    13    12    1
     4    12     9    1
     5    26    27    1
     6    26    25    1
     7    27    28    2
     8    25    16   am
     9     9     8    1
    10     9    10    1
    11     8     3   am
    12    11    10    2
    13    10    14   am
    14    16    17    2
    15    16    15    1
    16     5     7    1
    17     5     2    1
    18     5     6    1
    19    14    15    1
    20     3     2    1
    21     3     4    2
    22     2     1    1
    23    15    18    1
    24    18    19    1
    25    19    20    1
    26    45    46   ar
    27    45    43   ar
    28    23    22    1
    29    20    21    1
    30    46    44   ar
    31    22    21    2
    32    22    24    1
    33    43    42   ar
    34    44    42   ar
    35    42    41    1
    36    32    31    1
    37    32    33    1
    38    32    35    1
    39    41    38    1
    40    36    35    1
    41    37    33   am
    42    37    38    1
    43    33    34    2
    44    56    57    1
    45    56    55    1
    46    38    39    1
    47    59    57   am
    48    57    58    2
    49    55    52    1
    50    54    53    2
    51    70    69    1
    52    39    40    2
    53    39    47   am
    54    53    52    1
    55    53    60   am
    56    47    48    1
    57    52    51    1
    58    61    60    1
    59    61    64    1
    60    61    62    1
    61    69    66    1
    62    65    62   am
    63    65    66    1
    64    62    63    2
    65    48    49    1
    66    66    67    1
    67    50    49    2
    68    67    68    2
