@<TRIPOS>MOLECULE
tmp/3gjuA00.pdb
 120 114 0 0 0
SMALL
GASTEIGER

@<TRIPOS>ATOM
      1  N         19.8220   25.1090   18.3580 N.3    58  TYR58      -0.1241
      2  CA        18.4680   25.1180   18.9470 C.3    58  TYR58       0.1605
      3  C         18.4320   25.8610   20.2650 C.2    58  TYR58       0.2264
      4  O         17.6920   25.4730   21.1800 O.2    58  TYR58      -0.2867
      5  CB        17.8860   23.7000   19.2450 C.3    58  TYR58       0.0534
      6  CG        18.2710   22.5250   18.3920 C.ar   58  TYR58      -0.0201
      7  CD1       19.4390   21.8180   18.6500 C.ar   58  TYR58      -0.0009
      8  CD2       17.4320   22.0550   17.4010 C.ar   58  TYR58      -0.0009
      9  CE1       19.7750   20.7000   17.9210 C.ar   58  TYR58       0.0417
     10  CE2       17.7510   20.9150   16.6880 C.ar   58  TYR58       0.0417
     11  CZ        18.9350   20.2590   16.9560 C.ar   58  TYR58       0.1957
     12  OH        19.2980   19.1490   16.2150 O.3    58  TYR58      -0.2866
     13  N         25.1670   21.4540   31.4510 N.3   115  SER115     -0.1202
     14  CA        24.8680   20.9490   30.1150 C.3   115  SER115      0.2020
     15  C         23.7180   19.9510   30.1580 C.2   115  SER115      0.2619
     16  O         23.4810   19.2720   31.1970 O.2   115  SER115     -0.2717
     17  CB        26.0810   20.2400   29.4830 C.3   115  SER115      0.2103
     18  OG        27.3040   20.9580   29.5670 O.3   115  SER115     -0.2182
     19  N         23.0150   19.8330   29.0310 N.am  116  GLY116     -0.1942
     20  CA        21.9730   18.8130   28.9030 C.3   116  GLY116      0.2014
     21  C         22.4920   17.4250   29.2060 C.2   116  GLY116      0.2639
     22  O         21.7850   16.5980   29.8450 O.2   116  GLY116     -0.2714
     23  N         23.7270   17.1340   28.7440 N.am  117  SER117     -0.1949
     24  CA        24.3500   15.8400   29.0520 C.3   117  SER117      0.1924
     25  C         24.4850   15.5720   30.5570 C.2   117  SER117      0.2314
     26  O         24.2400   14.4480   31.0220 O.2   117  SER117     -0.2863
     27  CB        25.7230   15.7190   28.3870 C.3   117  SER117      0.2116
     28  OG        25.6300   15.7190   26.9840 O.3   117  SER117     -0.2180
     29  N         21.0260   14.7120   32.0440 N.3   120  ASN120     -0.1240
     30  CA        20.6710   13.3040   31.8430 C.3   120  ASN120      0.1653
     31  C         21.5060   12.3610   32.6770 C.2   120  ASN120      0.2266
     32  O         20.9950   11.3630   33.1510 O.2   120  ASN120     -0.2867
     33  CB        20.6650   12.9630   30.3730 C.3   120  ASN120      0.1155
     34  CG        19.3790   13.4370   29.6840 C.2   120  ASN120      0.2627
     35  OD1       18.2970   13.4290   30.2940 O.2   120  ASN120     -0.2716
     36  ND2       19.4980   13.8660   28.4270 N.am  120  ASN120     -0.0877
     37  N         18.4840   11.7180   20.8310 N.3   149  TYR149     -0.1227
     38  CA        19.6970   12.4250   21.2500 C.3   149  TYR149      0.1736
     39  C         19.5170   12.8800   22.6720 C.2   149  TYR149      0.2595
     40  O         18.6180   13.6830   22.9810 O.2   149  TYR149     -0.2718
     41  CB        20.0730   13.5640   20.3030 C.3   149  TYR149      0.0548
     42  CG        21.4360   14.1050   20.6690 C.ar  149  TYR149     -0.0200
     43  CD1       22.5690   13.4200   20.3030 C.ar  149  TYR149     -0.0009
     44  CD2       21.5740   15.2220   21.4550 C.ar  149  TYR149     -0.0009
     45  CE1       23.8320   13.8170   20.7280 C.ar  149  TYR149      0.0417
     46  CE2       22.8380   15.6560   21.8800 C.ar  149  TYR149      0.0417
     47  CZ        23.9600   14.9730   21.4720 C.ar  149  TYR149      0.1957
     48  OH        25.2260   15.3950   21.8830 O.3   149  TYR149     -0.2866
     49  N         20.4530   12.4210   23.5250 N.am  150  HIS150     -0.1961
     50  CA        20.4010   12.6210   24.9460 C.3   150  HIS150      0.1787
     51  C         21.7170   13.0820   25.5670 C.2   150  HIS150      0.2621
     52  O         21.8130   13.1740   26.7950 O.2   150  HIS150     -0.2715
     53  CB        19.8610   11.3680   25.6180 C.3   150  HIS150      0.0785
     54  CG        18.5150   11.0010   25.1060 C.ar  150  HIS150      0.0821
     55  ND1       17.4190   11.7930   25.3030 N.ar  150  HIS150     -0.2267
     56  CD2       18.1100    9.9770   24.3290 C.ar  150  HIS150      0.1154
     57  CE1       16.3840   11.2800   24.6560 C.ar  150  HIS150      0.1986
     58  NE2       16.7730   10.1790   24.0470 N.ar  150  HIS150     -0.2212
     59  N         22.7050   13.3730   24.7130 N.am  151  GLY151     -0.1940
     60  CA        24.0120   13.8550   25.1600 C.3   151  GLY151      0.2014
     61  C         25.1520   13.0200   24.6120 C.2   151  GLY151      0.2639
     62  O         24.9490   12.1270   23.8260 O.2   151  GLY151     -0.2714
     63  N         26.3650   13.3730   25.0340 N.am  152  SER152     -0.1949
     64  CA        27.5820   12.9860   24.3570 C.3   152  SER152      0.1924
     65  C         28.6000   12.3980   25.3270 C.2   152  SER152      0.2314
     66  O         29.7830   12.3280   25.0050 O.2   152  SER152     -0.2863
     67  CB        28.1850   14.2260   23.6930 C.3   152  SER152      0.2116
     68  OG        29.3030   13.8660   22.9080 O.3   152  SER152     -0.2180
     69  N         12.7690   12.5100   23.9030 N.3   220  GLU220     -0.1245
     70  CA        12.4380   13.8620   23.4870 C.3   220  GLU220      0.1567
     71  C         10.9850   13.8640   22.9920 C.2   220  GLU220      0.2260
     72  O         10.5620   12.9230   22.2660 O.2   220  GLU220     -0.2867
     73  CB        13.3160   14.2460   22.3170 C.3   220  GLU220      0.0388
     74  CG        14.8190   14.3300   22.6010 C.3   220  GLU220      0.1160
     75  CD        15.5850   14.1840   21.3120 C.2   220  GLU220      0.3649
     76  OE1       15.8540   13.0390   20.8940 O.co2 220  GLU220     -0.2457
     77  OE2       15.8970   15.2230   20.6650 O.co2 220  GLU220     -0.2457
     78  N         18.1230   16.4120   17.1410 N.3   225  THR225     -0.1218
     79  CA        19.2650   16.0120   16.3330 C.3   225  THR225      0.1862
     80  C         19.0480   14.7350   15.4990 C.2   225  THR225      0.2287
     81  O         19.6820   14.5500   14.4410 O.2   225  THR225     -0.2866
     82  CB        20.5190   15.9660   17.2440 C.3   225  THR225      0.1770
     83  OG1       20.7430   17.2980   17.7280 O.3   225  THR225     -0.2211
     84  CG2       21.7580   15.4350   16.5120 C.3   225  THR225      0.0375
     85  N         12.9070   14.3310   27.7980 N.3   253  ASP253     -0.1239
     86  CA        14.1220   15.1130   27.5180 C.3   253  ASP253      0.1674
     87  C         13.7080   16.3590   26.7200 C.2   253  ASP253      0.2266
     88  O         13.4830   16.2710   25.5160 O.2   253  ASP253     -0.2867
     89  CB        15.1510   14.2920   26.7580 C.3   253  ASP253      0.1410
     90  CG        16.4730   15.0190   26.6010 C.2   253  ASP253      0.3668
     91  OD1       16.4390   16.2680   26.6490 O.co2 253  ASP253     -0.2456
     92  OD2       17.4970   14.3550   26.3630 O.co2 253  ASP253     -0.2456
     93  N         15.5120   19.2760   26.4760 N.3   255  VAL255     -0.1231
     94  CA        16.6340   20.1800   26.2610 C.3   255  VAL255      0.1692
     95  C         16.3420   21.1450   25.0680 C.2   255  VAL255      0.2591
     96  O         16.6350   22.3610   25.1260 O.2   255  VAL255     -0.2718
     97  CB        17.9600   19.4090   26.1360 C.3   255  VAL255      0.0266
     98  CG1       19.1080   20.3320   25.6170 C.3   255  VAL255      0.0020
     99  CG2       18.3500   18.7510   27.4900 C.3   255  VAL255      0.0020
    100  N         15.7460   20.6140   23.9690 N.am  256  VAL256     -0.1980
    101  CA        15.3410   21.4550   22.8290 C.3   256  VAL256      0.1595
    102  C         13.9680   22.1000   23.0490 C.2   256  VAL256      0.2287
    103  O         13.7950   23.3120   22.8030 O.2   256  VAL256     -0.2864
    104  CB        15.3790   20.6580   21.4720 C.3   256  VAL256      0.0276
    105  CG1       14.6770   21.4740   20.3260 C.3   256  VAL256      0.0022
    106  CG2       16.8170   20.3640   21.1250 C.3   256  VAL256      0.0022
    107  N         17.8550   22.5250   29.2590 N.3   280  ALA280     -0.1231
    108  CA        19.1040   23.2190   29.0290 C.3   280  ALA280      0.1694
    109  C         18.8260   24.2370   27.9010 C.2   280  ALA280      0.2591
    110  O         17.7250   24.7540   27.8450 O.2   280  ALA280     -0.2718
    111  CB        20.2560   22.2510   28.6980 C.3   280  ALA280      0.0304
    112  N         19.7880   24.4850   27.0150 N.am  281  LYS281     -0.1980
    113  CA        19.5840   25.3440   25.8220 C.3   281  LYS281      0.1596
    114  C         18.7060   26.5760   26.0690 C.2   281  LYS281      0.2287
    115  O         19.1750   27.5740   26.6160 O.2   281  LYS281     -0.2864
    116  CB        19.0230   24.5260   24.6510 C.3   281  LYS281      0.0298
    117  CG        19.9620   23.4990   24.0790 C.3   281  LYS281      0.0038
    118  CD        19.3420   22.8220   22.8650 C.3   281  LYS281      0.0206
    119  CE        20.1680   21.6670   22.3260 C.3   281  LYS281      0.1093
    120  NZ        21.4750   22.0480   21.8350 N.3   281  LYS281     -0.1314
@<TRIPOS>BOND
     1    81    80    2
     2    80    79    1
     3    12    11    1
     4    79    78    1
     5    79    82    1
     6    84    82    1
     7    10    11   ar
     8    10     8   ar
     9    11     9   ar
    10    82    83    1
    11     8     6   ar
    12     9     7   ar
    13     1     2    1
    14     6     7   ar
    15     6     5    1
    16     2     5    1
    17     2     3    1
    18     3     4    2
    19    41    42    1
    20    41    38    1
    21    43    42   ar
    22    43    45   ar
    23   105   104    1
    24    77    75   ar
    25    42    44   ar
    26    45    47   ar
    27    37    38    1
    28    76    75   ar
    29   106   104    1
    30    38    39    1
    31    75    74    1
    32    44    46   ar
    33    47    46   ar
    34    47    48    1
    35   104   101    1
    36   120   119    1
    37    72    71    2
    38    73    74    1
    39    73    70    1
    40   119   118    1
    41    39    40    2
    42    39    49   am
    43   103   102    2
    44   101   102    1
    45   101   100    1
    46   118   117    1
    47    68    67    1
    48    71    70    1
    49    70    69    1
    50    49    50    1
    51    67    64    1
    52    62    61    2
    53   100    95   am
    54    58    56   ar
    55    58    57   ar
    56   117   116    1
    57    56    54   ar
    58    64    63    1
    59    64    65    1
    60    61    63   am
    61    61    60    1
    62   116   113    1
    63    57    55   ar
    64    59    60    1
    65    59    51   am
    66    50    51    1
    67    50    53    1
    68    66    65    2
    69    95    96    2
    70    95    94    1
    71    54    55   ar
    72    54    53    1
    73    88    87    2
    74    51    52    2
    75    98    97    1
    76   113   114    1
    77   113   112    1
    78   114   115    2
    79    97    94    1
    80    97    99    1
    81    94    93    1
    82    92    90   ar
    83    90    91   ar
    84    90    89    1
    85    87    86    1
    86    89    86    1
    87    28    27    1
    88   112   109   am
    89    86    85    1
    90   110   109    2
    91   109   108    1
    92    27    24    1
    93    36    34   am
    94   111   108    1
    95    23    24    1
    96    23    21   am
    97    20    19    1
    98    20    21    1
    99   108   107    1
   100    19    15   am
   101    24    25    1
   102    21    22    2
   103    17    18    1
   104    17    14    1
   105    34    35    2
   106    34    33    1
   107    14    15    1
   108    14    13    1
   109    15    16    2
   110    33    30    1
   111    25    26    2
   112    30    29    1
   113    30    31    1
   114    31    32    2
