@<TRIPOS>MOLECULE
tmp/3gjwA00.pdb
 160 157 0 0 0
SMALL
GASTEIGER

@<TRIPOS>ATOM
      1  N         46.5200   46.3000    0.9970 N.3   102  GLU102     -0.1245
      2  CA        45.9390   47.1300    2.0460 C.3   102  GLU102      0.1567
      3  C         44.4690   46.7520    2.2210 C.2   102  GLU102      0.2260
      4  O         43.9150   46.8260    3.3240 O.2   102  GLU102     -0.2867
      5  CB        46.1200   48.6220    1.7150 C.3   102  GLU102      0.0388
      6  CG        47.5580   48.9840    1.3250 C.3   102  GLU102      0.1160
      7  CD        47.7370   50.4300    0.8380 C.2   102  GLU102      0.3649
      8  OE1       48.7100   51.0830    1.2740 O.co2 102  GLU102     -0.2457
      9  OE2       46.9660   50.8950   -0.0340 O.co2 102  GLU102     -0.2457
     10  N         44.2150   43.6460    4.4380 N.3   105  ASP105     -0.1225
     11  CA        44.4680   44.0120    5.8370 C.3   105  ASP105      0.1805
     12  C         43.1810   44.3690    6.5820 C.2   105  ASP105      0.2597
     13  O         42.9200   43.8190    7.6500 O.2   105  ASP105     -0.2718
     14  CB        45.4910   45.1650    5.9550 C.3   105  ASP105      0.1424
     15  CG        46.9290   44.7370    5.5980 C.2   105  ASP105      0.3668
     16  OD1       47.2710   43.5350    5.6960 O.co2 105  ASP105     -0.2456
     17  OD2       47.7330   45.6210    5.2420 O.co2 105  ASP105     -0.2456
     18  N         42.4070   45.3020    6.0240 N.am  106  ASN106     -0.1974
     19  CA        41.1120   45.7290    6.5910 C.3   106  ASN106      0.1688
     20  C         40.1190   44.5790    6.5260 C.2   106  ASN106      0.2292
     21  O         39.4140   44.3100    7.4870 O.2   106  ASN106     -0.2864
     22  CB        40.5480   46.9450    5.8300 C.3   106  ASN106      0.1181
     23  CG        39.2250   47.5030    6.4470 C.2   106  ASN106      0.2629
     24  OD1       38.8640   47.2380    7.6190 O.2   106  ASN106     -0.2716
     25  ND2       38.5320   48.3270    5.6590 N.am  106  ASN106     -0.0877
     26  N         40.6950   42.6010    9.4580 N.3   109  ASP109     -0.1239
     27  CA        40.2240   43.2230   10.7010 C.3   109  ASP109      0.1674
     28  C         38.6950   43.0530   10.7580 C.2   109  ASP109      0.2266
     29  O         38.1230   42.8660   11.8250 O.2   109  ASP109     -0.2867
     30  CB        40.5990   44.7160   10.7640 C.3   109  ASP109      0.1410
     31  CG        42.0340   44.9650   11.2700 C.2   109  ASP109      0.3668
     32  OD1       42.5160   44.2320   12.1580 O.co2 109  ASP109     -0.2456
     33  OD2       42.6640   45.9400   10.8110 O.co2 109  ASP109     -0.2456
     34  N         49.9180   59.3720   17.9010 N.3   200  TRP200     -0.1227
     35  CA        48.6630   59.0710   17.2440 C.3   200  TRP200      0.1737
     36  C         48.7180   57.7680   16.4670 C.2   200  TRP200      0.2595
     37  O         49.7860   57.3580   15.9890 O.2   200  TRP200     -0.2718
     38  CB        48.3360   60.1860   16.2490 C.3   200  TRP200      0.0564
     39  CG        48.0440   61.5360   16.8890 C.ar  200  TRP200      0.0003
     40  CD1       48.8590   62.6250   16.9080 C.ar  200  TRP200      0.0946
     41  CD2       46.8450   61.9170   17.5750 C.ar  200  TRP200      0.0152
     42  NE1       48.2440   63.6620   17.5670 N.ar  200  TRP200     -0.2442
     43  CE2       47.0080   63.2530   17.9870 C.ar  200  TRP200      0.0810
     44  CE3       45.6590   61.2520   17.8970 C.ar  200  TRP200      0.0012
     45  CZ2       46.0220   63.9450   18.7020 C.ar  200  TRP200      0.0191
     46  CZ3       44.6810   61.9400   18.6160 C.ar  200  TRP200      0.0001
     47  CH2       44.8650   63.2800   18.9890 C.ar  200  TRP200      0.0015
     48  N         47.5510   57.1390   16.3330 N.am  201  HIS201     -0.1961
     49  CA        47.3620   55.9670   15.4830 C.3   201  HIS201      0.1787
     50  C         45.9370   55.9560   14.9640 C.2   201  HIS201      0.2621
     51  O         44.9940   55.6370   15.7050 O.2   201  HIS201     -0.2715
     52  CB        47.6900   54.6220   16.1450 C.3   201  HIS201      0.0785
     53  CG        47.7860   53.4940   15.1560 C.ar  201  HIS201      0.0821
     54  ND1       46.6720   52.8880   14.6100 N.ar  201  HIS201     -0.2267
     55  CD2       48.8510   52.9720   14.5060 C.ar  201  HIS201      0.1154
     56  CE1       47.0490   52.0010   13.7040 C.ar  201  HIS201      0.1986
     57  NE2       48.3650   52.0410   13.6130 N.ar  201  HIS201     -0.2212
     58  N         45.7790   56.3440   13.7000 N.am  202  GLY202     -0.1940
     59  CA        44.4750   56.3710   13.0720 C.3   202  GLY202      0.2014
     60  C         44.2510   55.0490   12.3620 C.2   202  GLY202      0.2640
     61  O         45.2160   54.3940   11.9580 O.2   202  GLY202     -0.2714
     62  N         42.9840   54.6670   12.2130 N.am  203  SER203     -0.1935
     63  CA        42.6060   53.4250   11.5530 C.3   203  SER203      0.2055
     64  C         41.0950   53.4890   11.2870 C.2   203  SER203      0.2642
     65  O         40.3700   54.2680   11.9240 O.2   203  SER203     -0.2714
     66  CB        42.9530   52.2190   12.4490 C.3   203  SER203      0.2130
     67  OG        42.9450   50.9900   11.7300 O.3   203  SER203     -0.2179
     68  N         40.6210   52.7070   10.3220 N.am  204  ARG204     -0.1977
     69  CA        39.2020   52.7330    9.9770 C.3   204  ARG204      0.1597
     70  C         38.3640   52.1980   11.1230 C.2   204  ARG204      0.2287
     71  O         38.8310   51.3980   11.9320 O.2   204  ARG204     -0.2864
     72  CB        38.9340   51.9840    8.6730 C.3   204  ARG204      0.0334
     73  CG        40.1850   51.6190    7.9190 C.3   204  ARG204      0.0492
     74  CD        40.1150   52.0760    6.4760 C.3   204  ARG204      0.2205
     75  NE        39.0880   51.3780    5.7090 N.pl3 204  ARG204     -0.0865
     76  CZ        39.0710   51.3210    4.3810 C.cat 204  ARG204      0.5346
     77  NH1       38.0930   50.6880    3.7450 N.pl3 204  ARG204      0.1354
     78  NH2       40.0340   51.9030    3.6850 N.pl3 204  ARG204      0.1354
     79  N         38.0420   48.4720   12.1560 N.3   207  ASN207     -0.1240
     80  CA        39.2210   47.7640   12.6240 C.3   207  ASN207      0.1653
     81  C         39.4540   47.8770   14.1330 C.2   207  ASN207      0.2266
     82  O         40.4100   47.3000   14.6640 O.2   207  ASN207     -0.2867
     83  CB        40.4510   48.2560   11.8730 C.3   207  ASN207      0.1155
     84  CG        40.2620   48.2430   10.3700 C.2   207  ASN207      0.2627
     85  OD1       39.4380   47.5000    9.8320 O.2   207  ASN207     -0.2716
     86  ND2       41.0360   49.0640    9.6810 N.am  207  ASN207     -0.0877
     87  N         52.9850   51.5800   12.9950 N.3   235  TYR235     -0.1227
     88  CA        53.2620   52.9530   12.5810 C.3   235  TYR235      0.1736
     89  C         52.5020   54.0130   13.3840 C.2   235  TYR235      0.2595
     90  O         51.2840   53.9270   13.5720 O.2   235  TYR235     -0.2718
     91  CB        52.9850   53.0970   11.0860 C.3   235  TYR235      0.0548
     92  CG        54.0220   52.4240   10.2080 C.ar  235  TYR235     -0.0200
     93  CD1       54.1580   51.0360   10.1810 C.ar  235  TYR235     -0.0009
     94  CD2       54.8750   53.1820    9.4050 C.ar  235  TYR235     -0.0009
     95  CE1       55.1400   50.4210    9.3800 C.ar  235  TYR235      0.0417
     96  CE2       55.8360   52.5790    8.5850 C.ar  235  TYR235      0.0417
     97  CZ        55.9620   51.2090    8.5800 C.ar  235  TYR235      0.1957
     98  OH        56.9070   50.6420    7.7660 O.3   235  TYR235     -0.2866
     99  N         53.2430   55.0120   13.8550 N.am  236  PHE236     -0.1962
    100  CA        52.6760   56.1060   14.6390 C.3   236  PHE236      0.1771
    101  C         53.0300   57.4770   14.0410 C.2   236  PHE236      0.2619
    102  O         54.0190   57.6290   13.3160 O.2   236  PHE236     -0.2715
    103  CB        53.1920   56.0290   16.0830 C.3   236  PHE236      0.0574
    104  CG        52.6200   54.8830   16.8720 C.ar  236  PHE236     -0.0200
    105  CD1       53.2720   53.6620   16.9190 C.ar  236  PHE236     -0.0042
    106  CD2       51.4250   55.0250   17.5580 C.ar  236  PHE236     -0.0042
    107  CE1       52.7410   52.5930   17.6390 C.ar  236  PHE236     -0.0003
    108  CE2       50.9010   53.9770   18.2910 C.ar  236  PHE236     -0.0003
    109  CZ        51.5520   52.7470   18.3190 C.ar  236  PHE236     -0.0000
    110  N         52.2260   58.4790   14.3690 N.am  237  ALA237     -0.1977
    111  CA        52.4880   59.8390   13.9270 C.3   237  ALA237      0.1597
    112  C         52.4300   60.7880   15.1240 C.2   237  ALA237      0.2287
    113  O         51.6910   60.5520   16.0720 O.2   237  ALA237     -0.2864
    114  CB        51.4890   60.2650   12.8360 C.3   237  ALA237      0.0319
    115  N         48.4990   63.6140    9.8670 N.3   242  LYS242     -0.1231
    116  CA        48.9920   62.4220    9.1860 C.3   242  LYS242      0.1693
    117  C         48.1060   61.2070    9.4920 C.2   242  LYS242      0.2592
    118  O         47.6910   60.4830    8.5810 O.2   242  LYS242     -0.2718
    119  CB        50.4400   62.1390    9.5890 C.3   242  LYS242      0.0285
    120  CG        50.9520   60.7720    9.1520 C.3   242  LYS242      0.0035
    121  CD        51.0300   60.6700    7.6510 C.3   242  LYS242      0.0206
    122  CE        51.6080   59.3340    7.2140 C.3   242  LYS242      0.1093
    123  NZ        51.7160   59.2320    5.7160 N.3   242  LYS242     -0.1314
    124  N         47.8070   61.0120   10.7770 N.am  243  SER243     -0.1952
    125  CA        46.9910   59.8790   11.2470 C.3   243  SER243      0.1924
    126  C         45.5350   59.9240   10.8000 C.2   243  SER243      0.2314
    127  O         44.9350   58.8950   10.5060 O.2   243  SER243     -0.2863
    128  CB        47.0310   59.7850   12.7790 C.3   243  SER243      0.2116
    129  OG        48.3070   59.3890   13.2390 O.3   243  SER243     -0.2180
    130  N         43.9570   57.9740    7.8910 N.3   246  TYR246     -0.1241
    131  CA        43.7000   56.5320    7.9020 C.3   246  TYR246      0.1605
    132  C         42.3670   56.1610    8.5350 C.2   246  TYR246      0.2264
    133  O         42.0580   54.9830    8.6780 O.2   246  TYR246     -0.2867
    134  CB        44.8510   55.7640    8.5590 C.3   246  TYR246      0.0534
    135  CG        46.1760   55.9880    7.8660 C.ar  246  TYR246     -0.0201
    136  CD1       46.5150   55.2710    6.7350 C.ar  246  TYR246     -0.0009
    137  CD2       47.0690   56.9450    8.3230 C.ar  246  TYR246     -0.0009
    138  CE1       47.7130   55.4690    6.0930 C.ar  246  TYR246      0.0417
    139  CE2       48.2640   57.1740    7.6670 C.ar  246  TYR246      0.0417
    140  CZ        48.5780   56.4260    6.5500 C.ar  246  TYR246      0.1957
    141  OH        49.7670   56.6280    5.8940 O.3   246  TYR246     -0.2866
    142  N         39.6550   57.1650    7.1520 N.3   248  HIS248     -0.1241
    143  CA        38.8220   57.0740    5.9630 C.3   248  HIS248      0.1621
    144  C         37.3670   57.5000    6.1720 C.2   248  HIS248      0.2264
    145  O         36.4310   56.7260    5.9730 O.2   248  HIS248     -0.2867
    146  CB        38.9620   55.6980    5.3060 C.3   248  HIS248      0.0745
    147  CG        40.3680   55.3770    4.8960 C.ar  248  HIS248      0.0817
    148  ND1       41.3130   54.9090    5.7850 N.ar  248  HIS248     -0.2268
    149  CD2       41.0040   55.5030    3.7060 C.ar  248  HIS248      0.1154
    150  CE1       42.4620   54.7360    5.1540 C.ar  248  HIS248      0.1986
    151  NE2       42.3020   55.0890    3.8920 N.ar  248  HIS248     -0.2212
    152  N         57.1110   59.9960   11.1600 N.3   327  GLU327     -0.1245
    153  CA        56.5640   58.6550   11.3300 C.3   327  GLU327      0.1567
    154  C         57.4640   57.9020   12.3070 C.2   327  GLU327      0.2260
    155  O         58.6890   57.9780   12.2050 O.2   327  GLU327     -0.2867
    156  CB        56.4990   57.9210    9.9920 C.3   327  GLU327      0.0388
    157  CG        55.1950   58.0970    9.2670 C.3   327  GLU327      0.1160
    158  CD        55.0810   57.1950    8.0600 C.2   327  GLU327      0.3649
    159  OE1       55.8500   56.2170    7.9910 O.co2 327  GLU327     -0.2457
    160  OE2       54.2250   57.4620    7.1860 O.co2 327  GLU327     -0.2457
@<TRIPOS>BOND
     1     9     7   ar
     2     7     8   ar
     3     7     6    1
     4     1     2    1
     5     6     5    1
     6     5     2    1
     7     2     3    1
     8     3     4    2
     9    78    76    1
    10   149   151   ar
    11   149   147   ar
    12    77    76    1
    13   151   150   ar
    14    76    75    2
    15    10    11    1
    16   147   146    1
    17   147   148   ar
    18   150   148   ar
    19    17    15   ar
    20   146   143    1
    21    15    16   ar
    22    15    14    1
    23    25    23   am
    24    75    74    1
    25   123   122    1
    26    22    23    1
    27    22    19    1
    28    11    14    1
    29    11    12    1
    30   141   140    1
    31   143   144    1
    32   143   142    1
    33   145   144    2
    34    18    12   am
    35    18    19    1
    36   138   140   ar
    37   138   136   ar
    38    23    24    2
    39    74    73    1
    40    20    19    1
    41    20    21    2
    42   140   139   ar
    43    12    13    2
    44   136   135   ar
    45   160   158   ar
    46   122   121    1
    47   121   120    1
    48   139   137   ar
    49    98    97    1
    50   135   137   ar
    51   135   134    1
    52   130   131    1
    53   131   132    1
    54   131   134    1
    55    73    72    1
    56   159   158   ar
    57   158   157    1
    58   132   133    2
    59    97    96   ar
    60    97    95   ar
    61   118   117    2
    62    96    94   ar
    63    72    69    1
    64   120   119    1
    65   116   117    1
    66   116   119    1
    67   116   115    1
    68   157   156    1
    69    95    93   ar
    70    94    92   ar
    71    26    27    1
    72   117   124   am
    73    86    84   am
    74    85    84    2
    75    69    68    1
    76    69    70    1
    77   156   153    1
    78    93    92   ar
    79    92    91    1
    80    68    64   am
    81    84    83    1
    82   127   126    2
    83    27    28    1
    84    27    30    1
    85    28    29    2
    86    30    31    1
    87   124   125    1
    88   126   125    1
    89    33    31   ar
    90    91    88    1
    91    70    71    2
    92   152   153    1
    93   125   128    1
    94    31    32   ar
    95    64    63    1
    96    64    65    2
    97   153   154    1
    98    63    62    1
    99    63    66    1
   100    67    66    1
   101    83    80    1
   102    61    60    2
   103    79    80    1
   104   155   154    2
   105    62    60   am
   106    60    59    1
   107    88    87    1
   108    88    89    1
   109    80    81    1
   110   128   129    1
   111   114   111    1
   112    59    58    1
   113   102   101    2
   114    89    90    2
   115    89    99   am
   116    57    56   ar
   117    57    55   ar
   118    58    50   am
   119    56    54   ar
   120    99   100    1
   121   111   110    1
   122   111   112    1
   123   101   110   am
   124   101   100    1
   125    81    82    2
   126    55    53   ar
   127    54    53   ar
   128   100   103    1
   129    50    49    1
   130    50    51    2
   131   112   113    2
   132    53    52    1
   133    49    52    1
   134    49    48    1
   135    37    36    2
   136   103   104    1
   137    38    39    1
   138    38    35    1
   139    48    36   am
   140    36    35    1
   141   104   105   ar
   142   104   106   ar
   143    39    40   ar
   144    39    41   ar
   145    40    42   ar
   146   105   107   ar
   147    35    34    1
   148   106   108   ar
   149    42    43   ar
   150    41    44   ar
   151    41    43   ar
   152   107   109   ar
   153    44    46   ar
   154    43    45   ar
   155   108   109   ar
   156    46    47   ar
   157    45    47   ar
