@<TRIPOS>MOLECULE
tmp/3gjxB00.pdb
 196 192 0 0 0
SMALL
GASTEIGER

@<TRIPOS>ATOM
      1  N         40.4360 -105.8030  -44.4510 N.3    11  GLY11      -0.1210
      2  CA        39.1600 -105.9100  -43.7750 C.3    11  GLY11       0.1956
      3  C         39.2930 -105.4570  -42.3350 C.2    11  GLY11       0.2612
      4  O         40.3360 -105.6520  -41.7160 O.2    11  GLY11      -0.2717
      5  N         38.2420 -104.8330  -41.8140 N.am   12  GLY12      -0.1942
      6  CA        38.1710 -104.4620  -40.4100 C.3    12  GLY12       0.2014
      7  C         39.1490 -103.3750  -40.0140 C.2    12  GLY12       0.2640
      8  O         39.4320 -103.1690  -38.8360 O.2    12  GLY12      -0.2714
      9  N         39.6500 -102.6670  -41.0130 N.am   13  THR13      -0.1936
     10  CA        40.6840 -101.6730  -40.8230 C.3    13  THR13       0.2028
     11  C         40.0550 -100.3890  -40.2350 C.2    13  THR13       0.2643
     12  O         40.7340  -99.5640  -39.6170 O.2    13  THR13      -0.2714
     13  CB        41.4310 -101.4850  -42.1770 C.3    13  THR13       0.1808
     14  OG1       42.8460 -101.5810  -41.9800 O.3    13  THR13      -0.2208
     15  CG2       41.0860 -100.2020  -42.8250 C.3    13  THR13       0.0379
     16  N         38.7360 -100.2680  -40.3980 N.am   14  GLY14      -0.1939
     17  CA        37.9810  -99.1550  -39.8480 C.3    14  GLY14       0.2014
     18  C         37.5880  -98.1310  -40.8980 C.2    14  GLY14       0.2639
     19  O         37.3170  -96.9770  -40.5890 O.2    14  GLY14      -0.2714
     20  N         37.5520  -98.5580  -42.1490 N.am   15  LYS15      -0.1963
     21  CA        37.2690  -97.6600  -43.2560 C.3    15  LYS15       0.1728
     22  C         35.8420  -97.1500  -43.1880 C.2    15  LYS15       0.2617
     23  O         35.5860  -95.9520  -43.2930 O.2    15  LYS15      -0.2715
     24  CB        37.4960  -98.3710  -44.5960 C.3    15  LYS15       0.0311
     25  CG        38.9360  -98.7990  -44.8490 C.3    15  LYS15       0.0038
     26  CD        39.1670  -99.1880  -46.3110 C.3    15  LYS15       0.0206
     27  CE        38.3410 -100.3970  -46.7160 C.3    15  LYS15       0.1093
     28  NZ        38.4710 -101.5050  -45.7170 N.3    15  LYS15      -0.1314
     29  N         34.9100  -98.0810  -43.0240 N.am   16  THR16      -0.1937
     30  CA        33.4970  -97.7450  -42.9650 C.3    16  THR16       0.2028
     31  C         33.2070  -96.9650  -41.6800 C.2    16  THR16       0.2642
     32  O         32.4350  -96.0040  -41.6830 O.2    16  THR16      -0.2714
     33  CB        32.6170  -99.0190  -43.0670 C.3    16  THR16       0.1808
     34  OG1       32.8650  -99.6850  -44.3180 O.3    16  THR16      -0.2208
     35  CG2       31.1560  -98.6630  -42.9780 C.3    16  THR16       0.0379
     36  N         33.8470  -97.3720  -40.5880 N.am   17  THR17      -0.1950
     37  CA        33.6970  -96.7000  -39.3070 C.3    17  THR17       0.1897
     38  C         34.1710  -95.2550  -39.4250 C.2    17  THR17       0.2313
     39  O         33.5360  -94.3300  -38.9090 O.2    17  THR17      -0.2863
     40  CB        34.5150  -97.4130  -38.2360 C.3    17  THR17       0.1794
     41  OG1       34.3390  -98.8230  -38.3700 O.3    17  THR17      -0.2208
     42  CG2       34.0790  -97.0130  -36.8550 C.3    17  THR17       0.0378
     43  N         29.9430  -93.1340  -33.5590 N.3    27  PHE27      -0.1227
     44  CA        30.9790  -94.1520  -33.6380 C.3    27  PHE27       0.1736
     45  C         30.4030  -95.5550  -33.6200 C.2    27  PHE27       0.2595
     46  O         29.9300  -96.0200  -32.5870 O.2    27  PHE27      -0.2718
     47  CB        32.0290  -94.0140  -32.5270 C.3    27  PHE27       0.0547
     48  CG        33.1220  -95.0360  -32.6310 C.ar   27  PHE27      -0.0202
     49  CD1       34.1710  -94.8500  -33.5140 C.ar   27  PHE27      -0.0042
     50  CD2       33.0620  -96.2090  -31.9020 C.ar   27  PHE27      -0.0042
     51  CE1       35.1640  -95.8070  -33.6450 C.ar   27  PHE27      -0.0003
     52  CE2       34.0440  -97.1610  -32.0230 C.ar   27  PHE27      -0.0003
     53  CZ        35.1030  -96.9620  -32.8920 C.ar   27  PHE27      -0.0000
     54  N         30.4390  -96.2170  -34.7680 N.am   28  GLU28      -0.1965
     55  CA        29.9950  -97.5980  -34.8710 C.3    28  GLU28       0.1733
     56  C         31.0100  -98.5270  -34.2110 C.2    28  GLU28       0.2616
     57  O         32.1920  -98.5010  -34.5510 O.2    28  GLU28      -0.2715
     58  CB        29.8110  -97.9690  -36.3380 C.3    28  GLU28       0.0429
     59  CG        29.2480  -99.3560  -36.5570 C.3    28  GLU28       0.1163
     60  CD        27.9350  -99.5650  -35.8340 C.2    28  GLU28       0.3649
     61  OE1       26.9560  -98.8400  -36.1350 O.co2  28  GLU28      -0.2457
     62  OE2       27.8840 -100.4540  -34.9620 O.co2  28  GLU28      -0.2457
     63  N         30.5550  -99.3400  -33.2610 N.am   29  LYS29      -0.1963
     64  CA        31.4510 -100.2510  -32.5430 C.3    29  LYS29       0.1728
     65  C         31.5500 -101.6280  -33.1990 C.2    29  LYS29       0.2616
     66  O         32.5300 -102.3410  -33.0000 O.2    29  LYS29      -0.2715
     67  CB        31.0040 -100.4210  -31.0920 C.3    29  LYS29       0.0311
     68  CG        31.2590  -99.2250  -30.2170 C.3    29  LYS29       0.0038
     69  CD        30.9910  -99.5430  -28.7610 C.3    29  LYS29       0.0206
     70  CE        31.3080  -98.3320  -27.8750 C.3    29  LYS29       0.1093
     71  NZ        32.7690  -98.1830  -27.5580 N.3    29  LYS29      -0.1314
     72  N         30.5260 -101.9980  -33.9630 N.am   30  LYS30      -0.1963
     73  CA        30.4540 -103.3160  -34.5710 C.3    30  LYS30       0.1728
     74  C         31.2120 -103.3500  -35.8760 C.2    30  LYS30       0.2616
     75  O         31.4130 -102.3220  -36.5170 O.2    30  LYS30      -0.2715
     76  CB        28.9970 -103.7050  -34.8680 C.3    30  LYS30       0.0311
     77  CG        28.1130 -103.8710  -33.6620 C.3    30  LYS30       0.0038
     78  CD        26.7580 -104.3960  -34.1070 C.3    30  LYS30       0.0206
     79  CE        26.1210 -103.4820  -35.1320 C.3    30  LYS30       0.1093
     80  NZ        25.8410 -102.1540  -34.5270 N.3    30  LYS30      -0.1314
     81  N         31.6120 -104.5450  -36.2810 N.am   31  TYR31      -0.1960
     82  CA        32.2690 -104.6990  -37.5560 C.3    31  TYR31       0.1771
     83  C         31.3630 -105.4750  -38.4890 C.2    31  TYR31       0.2619
     84  O         31.3390 -106.6980  -38.4570 O.2    31  TYR31      -0.2715
     85  CB        33.6220 -105.3940  -37.4010 C.3    31  TYR31       0.0574
     86  CG        34.2200 -105.8290  -38.7140 C.ar   31  TYR31      -0.0198
     87  CD1       34.0070 -105.0920  -39.8750 C.ar   31  TYR31      -0.0009
     88  CD2       35.0010 -106.9650  -38.7950 C.ar   31  TYR31      -0.0009
     89  CE1       34.5570 -105.4850  -41.0900 C.ar   31  TYR31       0.0417
     90  CE2       35.5570 -107.3720  -40.0030 C.ar   31  TYR31       0.0417
     91  CZ        35.3350 -106.6310  -41.1490 C.ar   31  TYR31       0.1957
     92  OH        35.8810 -107.0400  -42.3560 O.3    31  TYR31      -0.2866
     93  N         30.6020 -104.7520  -39.3080 N.am   32  VAL32      -0.1963
     94  CA        29.7960 -105.3720  -40.3550 C.3    32  VAL32       0.1727
     95  C         30.4560 -105.1580  -41.7180 C.2    32  VAL32       0.2616
     96  O         30.4460 -104.0510  -42.2650 O.2    32  VAL32      -0.2715
     97  CB        28.3160 -104.8880  -40.3370 C.3    32  VAL32       0.0290
     98  CG1       28.2230 -103.4050  -40.0130 C.3    32  VAL32       0.0023
     99  CG2       27.6340 -105.2090  -41.6590 C.3    32  VAL32       0.0023
    100  N         31.0410 -106.2260  -42.2550 N.am   33  ALA33      -0.1963
    101  CA        31.8670 -106.1280  -43.4620 C.3    33  ALA33       0.1728
    102  C         31.1590 -105.4740  -44.6390 C.2    33  ALA33       0.2616
    103  O         29.9900 -105.7600  -44.9270 O.2    33  ALA33      -0.2715
    104  CB        32.4330 -107.4940  -43.8610 C.3    33  ALA33       0.0334
    105  N         31.8860 -104.5910  -45.3120 N.am   34  THR34      -0.1951
    106  CA        31.3520 -103.8700  -46.4550 C.3    34  THR34       0.1897
    107  C         31.3140 -104.8190  -47.6570 C.2    34  THR34       0.2313
    108  O         32.1920 -105.6710  -47.8160 O.2    34  THR34      -0.2863
    109  CB        32.2040 -102.6230  -46.7270 C.3    34  THR34       0.1794
    110  OG1       32.4390 -101.9440  -45.4880 O.3    34  THR34      -0.2208
    111  CG2       31.5240 -101.6840  -47.6750 C.3    34  THR34       0.0378
    112  N         33.7610  -96.1130  -50.3650 N.3    57  ASP57      -0.1225
    113  CA        34.2150  -97.0120  -49.3170 C.3    57  ASP57       0.1805
    114  C         34.1510  -98.4660  -49.7940 C.2    57  ASP57       0.2598
    115  O         33.0850  -99.0810  -49.7840 O.2    57  ASP57      -0.2718
    116  CB        33.3460  -96.8340  -48.0760 C.3    57  ASP57       0.1424
    117  CG        33.7650  -97.7400  -46.9420 C.2    57  ASP57       0.3668
    118  OD1       34.8980  -98.2650  -46.9960 O.co2  57  ASP57      -0.2456
    119  OD2       32.9650  -97.9250  -45.9980 O.co2  57  ASP57      -0.2456
    120  N         35.2970  -99.0170  -50.1940 N.am   58  THR58      -0.1939
    121  CA        35.3410 -100.3510  -50.7980 C.3    58  THR58       0.2028
    122  C         35.6450 -101.4520  -49.7850 C.2    58  THR58       0.2642
    123  O         36.1350 -101.1790  -48.6940 O.2    58  THR58      -0.2714
    124  CB        36.3540 -100.4090  -51.9630 C.3    58  THR58       0.1808
    125  OG1       37.6690 -100.1480  -51.4700 O.3    58  THR58      -0.2208
    126  CG2       36.0070  -99.3670  -53.0120 C.3    58  THR58       0.0379
    127  N         35.3410 -102.6970  -50.1480 N.am   59  ALA59      -0.1963
    128  CA        35.4940 -103.8270  -49.2260 C.3    59  ALA59       0.1728
    129  C         36.9180 -104.3540  -49.1830 C.2    59  ALA59       0.2617
    130  O         37.5510 -104.5410  -50.2240 O.2    59  ALA59      -0.2715
    131  CB        34.5320 -104.9510  -49.5860 C.3    59  ALA59       0.0334
    132  N         37.4100 -104.6050  -47.9730 N.am   60  GLY60      -0.1940
    133  CA        38.7670 -105.0890  -47.7800 C.3    60  GLY60       0.2014
    134  C         38.8830 -106.6010  -47.7000 C.2    60  GLY60       0.2638
    135  O         39.9710 -107.1510  -47.8880 O.2    60  GLY60      -0.2714
    136  N         37.7640 -107.2670  -47.4130 N.am   61  LEU61      -0.1977
    137  CA        37.7080 -108.7280  -47.3960 C.3    61  LEU61       0.1596
    138  C         37.7100 -109.3020  -48.8030 C.2    61  LEU61       0.2287
    139  O         36.9870 -108.8220  -49.6830 O.2    61  LEU61      -0.2864
    140  CB        36.4640 -109.2270  -46.6680 C.3    61  LEU61       0.0297
    141  CG        36.4790 -109.2350  -45.1450 C.3    61  LEU61       0.0022
    142  CD1       35.3130 -110.0750  -44.6590 C.3    61  LEU61       0.0001
    143  CD2       37.8120 -109.7580  -44.6030 C.3    61  LEU61       0.0001
    144  N         45.0700  -96.3740  -38.6860 N.3   114  ASN114     -0.1225
    145  CA        43.8800  -96.1200  -37.8770 C.3   114  ASN114      0.1785
    146  C         44.0390  -96.7950  -36.5130 C.2   114  ASN114      0.2597
    147  O         44.8490  -97.7050  -36.3700 O.2   114  ASN114     -0.2718
    148  CB        42.6280  -96.6300  -38.6250 C.3   114  ASN114      0.1169
    149  CG        41.3170  -96.2070  -37.9650 C.2   114  ASN114      0.2627
    150  OD1       41.2520  -95.1930  -37.2570 O.2   114  ASN114     -0.2716
    151  ND2       40.2540  -96.9880  -38.2070 N.am  114  ASN114     -0.0877
    152  N         43.2920  -96.3300  -35.5160 N.am  115  LYS115     -0.1980
    153  CA        43.2340  -96.9900  -34.2030 C.3   115  LYS115      0.1596
    154  C         44.4020  -96.7160  -33.2770 C.2   115  LYS115      0.2287
    155  O         44.7840  -97.5630  -32.4800 O.2   115  LYS115     -0.2864
    156  CB        43.0580  -98.4980  -34.3510 C.3   115  LYS115      0.0298
    157  CG        41.7990  -98.8570  -35.1250 C.3   115  LYS115      0.0038
    158  CD        41.5100 -100.3270  -35.0430 C.3   115  LYS115      0.0206
    159  CE        40.2690 -100.6660  -35.8470 C.3   115  LYS115      0.1093
    160  NZ        40.2100 -102.1170  -36.1300 N.3   115  LYS115     -0.1314
    161  N         44.4220  -94.9800  -30.8520 N.3   117  ASP117     -0.1225
    162  CA        43.8540  -94.8110  -29.5050 C.3   117  ASP117      0.1805
    163  C         43.9820  -96.0780  -28.6750 C.2   117  ASP117      0.2597
    164  O         43.9310  -96.0390  -27.4490 O.2   117  ASP117     -0.2718
    165  CB        42.3640  -94.4540  -29.5940 C.3   117  ASP117      0.1424
    166  CG        41.5180  -95.6190  -30.0950 C.2   117  ASP117      0.3668
    167  OD1       41.5530  -95.9050  -31.3160 O.co2 117  ASP117     -0.2456
    168  OD2       40.8200  -96.2460  -29.2660 O.co2 117  ASP117     -0.2456
    169  N         44.1060  -97.2140  -29.3480 N.am  118  ILE118     -0.1980
    170  CA        44.2390  -98.4760  -28.6370 C.3   118  ILE118      0.1595
    171  C         45.6450  -98.5440  -28.0520 C.2   118  ILE118      0.2287
    172  O         46.6320  -98.4310  -28.7740 O.2   118  ILE118     -0.2864
    173  CB        43.9060  -99.6940  -29.5370 C.3   118  ILE118      0.0276
    174  CG1       42.3940  -99.7460  -29.8170 C.3   118  ILE118      0.0022
    175  CG2       44.3200 -100.9820  -28.8590 C.3   118  ILE118      0.0022
    176  CD1       41.8950 -101.0160  -30.5300 C.3   118  ILE118      0.0001
    177  N         42.4920  -91.7810  -35.5800 N.3   142  SER142     -0.1202
    178  CA        41.5610  -92.6210  -34.8500 C.3   142  SER142      0.2020
    179  C         40.1450  -92.1610  -35.1400 C.2   142  SER142      0.2619
    180  O         39.8040  -90.9930  -34.9620 O.2   142  SER142     -0.2717
    181  CB        41.8220  -92.5860  -33.3510 C.3   142  SER142      0.2103
    182  OG        40.9190  -93.4430  -32.6630 O.3   142  SER142     -0.2182
    183  N         39.3190  -93.0870  -35.5970 N.am  143  ALA143     -0.1965
    184  CA        37.9270  -92.7800  -35.8420 C.3   143  ALA143      0.1728
    185  C         37.2190  -92.7040  -34.4990 C.2   143  ALA143      0.2616
    186  O         36.2420  -91.9780  -34.3440 O.2   143  ALA143     -0.2715
    187  CB        37.3080  -93.8410  -36.7330 C.3   143  ALA143      0.0334
    188  N         37.7360  -93.4370  -33.5160 N.am  144  LYS144     -0.1977
    189  CA        37.1010  -93.4860  -32.2030 C.3   144  LYS144      0.1596
    190  C         37.2970  -92.1780  -31.4630 C.2   144  LYS144      0.2287
    191  O         36.3230  -91.5270  -31.0900 O.2   144  LYS144     -0.2864
    192  CB        37.6320  -94.6580  -31.3830 C.3   144  LYS144      0.0298
    193  CG        36.7040  -95.1300  -30.2630 C.3   144  LYS144      0.0038
    194  CD        37.3360  -96.3280  -29.5330 C.3   144  LYS144      0.0206
    195  CE        36.6430  -96.6430  -28.2240 C.3   144  LYS144      0.1093
    196  NZ        35.2550  -97.1790  -28.4170 N.3   144  LYS144     -0.1314
@<TRIPOS>BOND
     1   126   124    1
     2   124   125    1
     3   124   121    1
     4   121   120    1
     5   121   122    1
     6   112   113    1
     7   130   129    2
     8   120   114   am
     9   127   122   am
    10   127   128    1
    11   114   115    2
    12   114   113    1
    13   122   123    2
    14   139   138    2
    15   131   128    1
    16   113   116    1
    17   128   129    1
    18   129   132   am
    19   138   137    1
    20   116   117    1
    21   132   133    1
    22   135   134    2
    23   108   107    2
    24   133   134    1
    25   134   136   am
    26   111   109    1
    27   107   106    1
    28   136   137    1
    29   137   140    1
    30   118   117   ar
    31   117   119   ar
    32   109   106    1
    33   109   110    1
    34    27    26    1
    35    27    28    1
    36   140   141    1
    37   106   105    1
    38    26    25    1
    39   105   102   am
    40   141   142    1
    41   141   143    1
    42   103   102    2
    43    25    24    1
    44   102   101    1
    45    24    21    1
    46     1     2    1
    47    34    33    1
    48   104   101    1
    49     2     3    1
    50   101   100    1
    51    23    22    2
    52    21    22    1
    53    21    20    1
    54    22    29   am
    55    33    35    1
    56    33    30    1
    57    29    30    1
    58    30    31    1
    59    15    13    1
    60    92    91    1
    61     3     5   am
    62     3     4    2
    63    96    95    2
    64   100    95   am
    65    13    14    1
    66    13    10    1
    67    20    18   am
    68     5     6    1
    69    95    94    1
    70    32    31    2
    71    31    36   am
    72    99    97    1
    73    91    89   ar
    74    91    90   ar
    75    89    87   ar
    76     9    10    1
    77     9     7   am
    78    18    19    2
    79    18    17    1
    80    10    11    1
    81    36    37    1
    82     6     7    1
    83    16    11   am
    84    16    17    1
    85    94    97    1
    86    94    93    1
    87    97    98    1
    88    11    12    2
    89     7     8    2
    90    90    88   ar
    91    87    86   ar
    92    38    37    1
    93    38    39    2
    94    93    83   am
    95    37    40    1
    96    88    86   ar
    97    86    85    1
    98   144   145    1
    99   148   149    1
   100   148   145    1
   101    83    84    2
   102    83    82    1
   103    41    40    1
   104    40    42    1
   105   151   149   am
   106   149   150    2
   107   145   146    1
   108    82    85    1
   109    82    81    1
   110   187   184    1
   111    59    58    1
   112    59    60    1
   113    75    74    2
   114   146   147    2
   115   146   152   am
   116    58    55    1
   117    81    74   am
   118    61    60   ar
   119   160   159    1
   120    74    73    1
   121   159   158    1
   122   184   183    1
   123   184   185    1
   124    60    62   ar
   125   183   179   am
   126   177   178    1
   127   152   153    1
   128   179   180    2
   129   179   178    1
   130    79    80    1
   131    79    78    1
   132   157   158    1
   133   157   156    1
   134    55    54    1
   135    55    56    1
   136    76    73    1
   137    76    77    1
   138   178   181    1
   139    54    45   am
   140    73    72    1
   141    57    56    2
   142   185   186    2
   143   185   188   am
   144   156   153    1
   145    56    63   am
   146   153   154    1
   147    78    77    1
   148    72    65   am
   149    51    49   ar
   150    51    53   ar
   151    44    45    1
   152    44    43    1
   153    44    47    1
   154    45    46    2
   155   188   189    1
   156    49    48   ar
   157   181   182    1
   158   154   155    2
   159    63    64    1
   160    65    66    2
   161    65    64    1
   162    53    52   ar
   163    48    47    1
   164    48    50   ar
   165    64    67    1
   166   189   190    1
   167   189   192    1
   168    52    50   ar
   169   190   191    2
   170   192   193    1
   171   167   166   ar
   172    67    68    1
   173   161   162    1
   174   176   174    1
   175   193   194    1
   176    68    69    1
   177   166   165    1
   178   166   168   ar
   179   174   173    1
   180   165   162    1
   181   173   175    1
   182   173   170    1
   183   194   195    1
   184   162   163    1
   185   169   163   am
   186   169   170    1
   187   172   171    2
   188    69    70    1
   189   163   164    2
   190   170   171    1
   191   196   195    1
   192    70    71    1
