@<TRIPOS>MOLECULE
tmp/3gk1A00.pdb
 89 89 0 0 0
SMALL
GASTEIGER

@<TRIPOS>ATOM
      1  N         -1.0930   11.5460    9.4170 N.3    42  HIS42      -0.1226
      2  CA        -1.1870   10.7770   10.6660 C.3    42  HIS42       0.1752
      3  C          0.1560   10.2230   11.1220 C.2    42  HIS42       0.2596
      4  O          0.3190    9.8750   12.2950 O.2    42  HIS42      -0.2718
      5  CB        -2.2020    9.6330   10.5720 C.3    42  HIS42       0.0759
      6  CG        -3.5800   10.0760   10.2030 C.ar   42  HIS42       0.0818
      7  ND1       -4.1230    9.8440    8.9590 N.ar   42  HIS42      -0.2268
      8  CD2       -4.5170   10.7610   10.9020 C.ar   42  HIS42       0.1154
      9  CE1       -5.3420   10.3500    8.9110 C.ar   42  HIS42       0.1986
     10  NE2       -5.6040   10.9160   10.0770 N.ar   42  HIS42      -0.2212
     11  N          1.1020   10.1270   10.2050 N.am   43  PHE43      -0.1962
     12  CA         2.4180    9.5550   10.5080 C.3    43  PHE43       0.1771
     13  C          3.4640   10.6310   10.7630 C.2    43  PHE43       0.2619
     14  O          4.3840   10.4260   11.5560 O.2    43  PHE43      -0.2715
     15  CB         2.8900    8.6190    9.3740 C.3    43  PHE43       0.0574
     16  CG         2.1010    7.3040    9.2770 C.ar   43  PHE43      -0.0200
     17  CD1        1.3760    6.8230   10.3400 C.ar   43  PHE43      -0.0042
     18  CD2        2.1390    6.5420    8.1360 C.ar   43  PHE43      -0.0042
     19  CE1        0.6680    5.6210   10.2430 C.ar   43  PHE43      -0.0003
     20  CE2        1.4260    5.3360    8.0470 C.ar   43  PHE43      -0.0003
     21  CZ         0.7000    4.8930    9.0920 C.ar   43  PHE43      -0.0000
     22  N          3.3320   11.7730   10.0920 N.am   44  LEU44      -0.1977
     23  CA         4.3690   12.8220   10.1630 C.3    44  LEU44       0.1596
     24  C          3.7830   14.1530   10.5530 C.2    44  LEU44       0.2287
     25  O          2.6520   14.4440   10.2010 O.2    44  LEU44      -0.2864
     26  CB         5.0940   12.9660    8.8150 C.3    44  LEU44       0.0297
     27  CG         5.8960   11.7580    8.3100 C.3    44  LEU44       0.0022
     28  CD1        6.5090   12.0710    6.9710 C.3    44  LEU44       0.0001
     29  CD2        6.9660   11.3250    9.2810 C.3    44  LEU44       0.0001
     30  N         12.1550    6.2560    1.3020 N.3    76  PHE76      -0.1241
     31  CA        11.3790    7.0550    2.2470 C.3    76  PHE76       0.1605
     32  C         10.1760    6.2610    2.7700 C.2    76  PHE76       0.2264
     33  O          9.9400    6.1880    3.9760 O.2    76  PHE76      -0.2867
     34  CB        10.9480    8.3420    1.5380 C.3    76  PHE76       0.0534
     35  CG        10.0950    9.2570    2.3540 C.ar   76  PHE76      -0.0203
     36  CD1       10.4070    9.5510    3.6700 C.ar   76  PHE76      -0.0042
     37  CD2        9.0100    9.8870    1.7680 C.ar   76  PHE76      -0.0042
     38  CE1        9.5970   10.4350    4.4390 C.ar   76  PHE76      -0.0003
     39  CE2        8.1940   10.7870    2.5130 C.ar   76  PHE76      -0.0003
     40  CZ         8.5090   11.0600    3.8470 C.ar   76  PHE76      -0.0000
     41  N         11.3280    3.6780    5.2410 N.3    79  MET79      -0.1230
     42  CA        11.6460    4.2700    6.5490 C.3    79  MET79       0.1702
     43  C         10.4050    4.4670    7.4310 C.2    79  MET79       0.2592
     44  O         10.4260    4.2150    8.6100 O.2    79  MET79      -0.2718
     45  CB        12.2850    5.6420    6.3680 C.3    79  MET79       0.0401
     46  CG        13.7210    5.6930    5.9220 C.3    79  MET79       0.0596
     47  SD        14.0400    7.4720    5.5650 S.3    79  MET79      -0.1393
     48  CE        15.4030    7.4520    4.3400 C.3    79  MET79       0.0692
     49  N          9.3260    4.9620    6.8440 N.am   80  ILE80      -0.1980
     50  CA         8.1020    5.2470    7.5930 C.3    80  ILE80       0.1595
     51  C          7.4540    3.9360    8.0460 C.2    80  ILE80       0.2287
     52  O          6.9580    3.8220    9.1760 O.2    80  ILE80      -0.2864
     53  CB         7.1140    6.0360    6.7170 C.3    80  ILE80       0.0276
     54  CG1        7.6840    7.4050    6.3900 C.3    80  ILE80       0.0022
     55  CG2        5.7220    6.1580    7.4040 C.3    80  ILE80       0.0022
     56  CD1        7.0130    7.9930    5.1710 C.3    80  ILE80       0.0001
     57  N          9.4260    2.4920   10.8690 N.3    83  ALA83      -0.1231
     58  CA         9.1410    3.2900   12.0760 C.3    83  ALA83       0.1694
     59  C          7.7650    2.9370   12.6510 C.2    83  ALA83       0.2592
     60  O          7.6080    2.7390   13.8500 O.2    83  ALA83      -0.2718
     61  CB         9.2210    4.7800   11.7570 C.3    83  ALA83       0.0304
     62  N          6.7690    2.8480   11.7720 N.am   84  CYS84      -0.1970
     63  CA         5.4410    2.4120   12.1780 C.3    84  CYS84       0.1712
     64  C          5.4470    0.9310   12.6310 C.2    84  CYS84       0.2296
     65  O          4.8490    0.5780   13.6790 O.2    84  CYS84      -0.2864
     66  CB         4.4270    2.6970   11.0610 C.3    84  CYS84       0.0983
     67  SG         2.7630    2.2690   11.5370 S.3    84  CYS84      -0.0798
     68  N          6.9240    0.8020   16.2370 N.3    87  PHE87      -0.1227
     69  CA         6.1630    1.5080   17.2580 C.3    87  PHE87       0.1736
     70  C          5.2880    0.4800   17.9910 C.2    87  PHE87       0.2595
     71  O          5.0260    0.6110   19.1920 O.2    87  PHE87      -0.2718
     72  CB         5.2930    2.6110   16.6320 C.3    87  PHE87       0.0547
     73  CG         4.5670    3.4570   17.6530 C.ar   87  PHE87      -0.0202
     74  CD1        5.1740    4.6030   18.1860 C.ar   87  PHE87      -0.0042
     75  CD2        3.2940    3.0900   18.1080 C.ar   87  PHE87      -0.0042
     76  CE1        4.5180    5.3840   19.1370 C.ar   87  PHE87      -0.0003
     77  CE2        2.6250    3.8590   19.0570 C.ar   87  PHE87      -0.0003
     78  CZ         3.2370    5.0090   19.5830 C.ar   87  PHE87      -0.0000
     79  N          4.8920   -0.5680   17.2670 N.am   88  PHE88      -0.1976
     80  CA         3.9150   -1.5630   17.7400 C.3    88  PHE88       0.1639
     81  C          4.5180   -2.9240   18.0640 C.2    88  PHE88       0.2290
     82  O          5.6080   -3.2490   17.5930 O.2    88  PHE88      -0.2864
     83  CB         2.7830   -1.6930   16.7040 C.3    88  PHE88       0.0560
     84  CG         1.9820   -0.4450   16.5770 C.ar   88  PHE88      -0.0200
     85  CD1        0.8400   -0.2670   17.3520 C.ar   88  PHE88      -0.0042
     86  CD2        2.4160    0.5880   15.7690 C.ar   88  PHE88      -0.0042
     87  CE1        0.1230    0.9100   17.2870 C.ar   88  PHE88      -0.0003
     88  CE2        1.7020    1.7710   15.6890 C.ar   88  PHE88      -0.0003
     89  CZ         0.5460    1.9320   16.4600 C.ar   88  PHE88      -0.0000
@<TRIPOS>BOND
     1    30    31    1
     2    34    31    1
     3    34    35    1
     4    37    35   ar
     5    37    39   ar
     6    31    32    1
     7    35    36   ar
     8    39    40   ar
     9    32    33    2
    10    36    38   ar
    11    40    38   ar
    12    48    47    1
    13    56    54    1
    14    41    42    1
    15    47    46    1
    16    46    45    1
    17    45    42    1
    18    54    53    1
    19    42    43    1
    20    53    55    1
    21    53    50    1
    22    49    43   am
    23    49    50    1
    24    28    27    1
    25    43    44    2
    26    50    51    1
    27    51    52    2
    28    20    18   ar
    29    20    21   ar
    30    18    16   ar
    31    27    26    1
    32    27    29    1
    33    26    23    1
    34     9     7   ar
    35     9    10   ar
    36     7     6   ar
    37    21    19   ar
    38    16    15    1
    39    16    17   ar
    40    15    12    1
    41     1     2    1
    42    10     8   ar
    43    22    23    1
    44    22    13   am
    45    23    24    1
    46    25    24    2
    47     6     5    1
    48     6     8   ar
    49    11    12    1
    50    11     3   am
    51    19    17   ar
    52    12    13    1
    53     5     2    1
    54     2     3    1
    55    13    14    2
    56    57    58    1
    57    66    67    1
    58    66    63    1
    59     3     4    2
    60    61    58    1
    61    62    63    1
    62    62    59   am
    63    58    59    1
    64    63    64    1
    65    64    65    2
    66    59    60    2
    67    88    86   ar
    68    88    89   ar
    69    86    84   ar
    70    68    69    1
    71    89    87   ar
    72    84    83    1
    73    84    85   ar
    74    72    69    1
    75    72    73    1
    76    83    80    1
    77    69    70    1
    78    79    80    1
    79    79    70   am
    80    87    85   ar
    81    82    81    2
    82    73    75   ar
    83    73    74   ar
    84    80    81    1
    85    70    71    2
    86    75    77   ar
    87    74    76   ar
    88    77    78   ar
    89    76    78   ar
