@<TRIPOS>MOLECULE
tmp/3gk2A00.pdb
 85 85 0 0 0
SMALL
GASTEIGER

@<TRIPOS>ATOM
      1  N         -0.4760   12.8150    6.9090 N.3    41  SER41      -0.1202
      2  CA        -0.8940   13.6870    8.0090 C.3    41  SER41       0.2020
      3  C         -1.0800   12.9680    9.3450 C.2    41  SER41       0.2619
      4  O         -1.1470   13.6110   10.3950 O.2    41  SER41      -0.2717
      5  CB        -2.1750   14.4370    7.6380 C.3    41  SER41       0.2103
      6  OG        -3.2640   13.5440    7.4890 O.3    41  SER41      -0.2182
      7  N         -1.1690   11.6400    9.3010 N.am   42  HIS42      -0.1961
      8  CA        -1.2730   10.8310   10.5150 C.3    42  HIS42       0.1787
      9  C          0.0600   10.2770   10.9710 C.2    42  HIS42       0.2620
     10  O          0.1850    9.8730   12.1150 O.2    42  HIS42      -0.2715
     11  CB        -2.2190    9.6480   10.3240 C.3    42  HIS42       0.0785
     12  CG        -3.6340   10.0390   10.0670 C.ar   42  HIS42       0.0821
     13  ND1       -4.1730   10.0660    8.8000 N.ar   42  HIS42      -0.2267
     14  CD2       -4.6260   10.4150   10.9070 C.ar   42  HIS42       0.1154
     15  CE1       -5.4360   10.4430    8.8700 C.ar   42  HIS42       0.1986
     16  NE2       -5.7360   10.6610   10.1370 N.ar   42  HIS42      -0.2212
     17  N          1.0390   10.2090   10.0770 N.am   43  PHE43      -0.1960
     18  CA         2.3250    9.6170   10.4340 C.3    43  PHE43       0.1771
     19  C          3.3760   10.6740   10.7500 C.2    43  PHE43       0.2619
     20  O          4.2700   10.4460   11.5670 O.2    43  PHE43      -0.2715
     21  CB         2.8350    8.6660    9.3400 C.3    43  PHE43       0.0574
     22  CG         1.9370    7.4740    9.0780 C.ar   43  PHE43      -0.0200
     23  CD1        0.9460    7.0930    9.9810 C.ar   43  PHE43      -0.0042
     24  CD2        2.1110    6.7140    7.9290 C.ar   43  PHE43      -0.0042
     25  CE1        0.1290    5.9920    9.7270 C.ar   43  PHE43      -0.0003
     26  CE2        1.3040    5.6090    7.6710 C.ar   43  PHE43      -0.0003
     27  CZ         0.3120    5.2490    8.5710 C.ar   43  PHE43      -0.0000
     28  N          3.2560   11.8310   10.1030 N.am   44  LEU44      -0.1963
     29  CA         4.2430   12.8960   10.2350 C.3    44  LEU44       0.1728
     30  C          3.6110   14.2330   10.5990 C.2    44  LEU44       0.2616
     31  O          2.4630   14.5030   10.2430 O.2    44  LEU44      -0.2715
     32  CB         5.0520   13.0340    8.9390 C.3    44  LEU44       0.0311
     33  CG         5.9590   11.8690    8.5240 C.3    44  LEU44       0.0022
     34  CD1        6.3690   12.0040    7.0670 C.3    44  LEU44       0.0001
     35  CD2        7.1850   11.7670    9.4260 C.3    44  LEU44       0.0001
     36  N          4.3730   15.0570   11.3180 N.am   45  GLU45      -0.1977
     37  CA         3.9900   16.4370   11.6150 C.3    45  GLU45       0.1602
     38  C          3.8930   17.2540   10.3390 C.2    45  GLU45       0.2287
     39  O          4.7100   17.0950    9.4300 O.2    45  GLU45      -0.2864
     40  CB         5.0270   17.0950   12.5200 C.3    45  GLU45       0.0415
     41  CG         4.8150   16.8670   13.9970 C.3    45  GLU45       0.1163
     42  CD         6.0450   17.2130   14.8180 C.2    45  GLU45       0.3649
     43  OE1        6.3280   16.4760   15.7850 O.co2  45  GLU45      -0.2457
     44  OE2        6.7340   18.2100   14.4970 O.co2  45  GLU45      -0.2457
     45  N          9.4120    5.0290    6.8420 N.3    80  ILE80      -0.1245
     46  CA         8.1590    5.2560    7.5640 C.3    80  ILE80       0.1561
     47  C          7.5410    3.9350    8.0170 C.2    80  ILE80       0.2260
     48  O          7.0560    3.8220    9.1450 O.2    80  ILE80      -0.2867
     49  CB         7.1380    6.0480    6.7030 C.3    80  ILE80       0.0252
     50  CG1        7.7210    7.3990    6.2830 C.3    80  ILE80       0.0019
     51  CG2        5.8240    6.2470    7.4580 C.3    80  ILE80       0.0019
     52  CD1        6.8770    8.1380    5.2670 C.3    80  ILE80       0.0001
     53  N          9.5720    2.5620   10.8930 N.3    83  ALA83      -0.1231
     54  CA         9.3120    3.3620   12.0920 C.3    83  ALA83       0.1694
     55  C          7.9650    3.0050   12.7240 C.2    83  ALA83       0.2592
     56  O          7.8260    2.9870   13.9480 O.2    83  ALA83      -0.2718
     57  CB         9.3730    4.8480   11.7620 C.3    83  ALA83       0.0304
     58  N          6.9820    2.7220   11.8730 N.am   84  CYS84      -0.1970
     59  CA         5.6430    2.3280   12.3050 C.3    84  CYS84       0.1712
     60  C          5.6290    0.8840   12.8090 C.2    84  CYS84       0.2296
     61  O          4.9170    0.5570   13.7590 O.2    84  CYS84      -0.2864
     62  CB         4.6510    2.5040   11.1510 C.3    84  CYS84       0.0983
     63  SG         2.9160    2.2850   11.5940 S.3    84  CYS84      -0.0798
     64  N          7.1600    0.7160   16.3020 N.3    87  PHE87      -0.1227
     65  CA         6.2700    1.3610   17.2600 C.3    87  PHE87       0.1736
     66  C          5.4290    0.3230   18.0070 C.2    87  PHE87       0.2595
     67  O          5.0240    0.5440   19.1500 O.2    87  PHE87      -0.2718
     68  CB         5.3660    2.3620   16.5350 C.3    87  PHE87       0.0547
     69  CG         4.6770    3.3330   17.4460 C.ar   87  PHE87      -0.0202
     70  CD1        5.3770    4.4000   18.0040 C.ar   87  PHE87      -0.0042
     71  CD2        3.3260    3.1910   17.7390 C.ar   87  PHE87      -0.0042
     72  CE1        4.7420    5.3050   18.8470 C.ar   87  PHE87      -0.0003
     73  CE2        2.6810    4.0900   18.5800 C.ar   87  PHE87      -0.0003
     74  CZ         3.3900    5.1510   19.1360 C.ar   87  PHE87      -0.0000
     75  N          5.1890   -0.8100   17.3510 N.am   88  PHE88      -0.1976
     76  CA         4.4070   -1.9040   17.9180 C.3    88  PHE88       0.1639
     77  C          5.2710   -3.1410   18.1290 C.2    88  PHE88       0.2290
     78  O          6.1740   -3.1430   18.9670 O.2    88  PHE88      -0.2864
     79  CB         3.2180   -2.2330   17.0110 C.3    88  PHE88       0.0560
     80  CG         2.3010   -1.0660   16.7680 C.ar   88  PHE88      -0.0200
     81  CD1        1.1970   -0.8520   17.5860 C.ar   88  PHE88      -0.0042
     82  CD2        2.5460   -0.1770   15.7270 C.ar   88  PHE88      -0.0042
     83  CE1        0.3500    0.2310   17.3680 C.ar   88  PHE88      -0.0003
     84  CE2        1.7080    0.9100   15.5030 C.ar   88  PHE88      -0.0003
     85  CZ         0.6080    1.1140   16.3270 C.ar   88  PHE88      -0.0000
@<TRIPOS>BOND
     1    52    50    1
     2    50    49    1
     3    49    51    1
     4    49    46    1
     5    45    46    1
     6     1     2    1
     7    34    33    1
     8     6     5    1
     9    46    47    1
    10     5     2    1
    11    26    24   ar
    12    26    27   ar
    13    24    22   ar
    14     2     3    1
    15    47    48    2
    16    33    32    1
    17    33    35    1
    18    27    25   ar
    19    13    15   ar
    20    13    12   ar
    21    15    16   ar
    22    32    29    1
    23    22    21    1
    24    22    23   ar
    25     7     3   am
    26     7     8    1
    27    21    18    1
    28     3     4    2
    29    39    38    2
    30    25    23   ar
    31    12    11    1
    32    12    14   ar
    33    17    18    1
    34    17     9   am
    35    28    29    1
    36    28    19   am
    37    16    14   ar
    38    29    30    1
    39    31    30    2
    40    11     8    1
    41    38    37    1
    42    18    19    1
    43     8     9    1
    44    30    36   am
    45    19    20    2
    46    53    54    1
    47     9    10    2
    48    62    63    1
    49    62    59    1
    50    36    37    1
    51    37    40    1
    52    57    54    1
    53    58    59    1
    54    58    55   am
    55    54    55    1
    56    59    60    1
    57    40    41    1
    58    55    56    2
    59    60    61    2
    60    41    42    1
    61    44    42   ar
    62    42    43   ar
    63    84    82   ar
    64    84    85   ar
    65    82    80   ar
    66    64    65    1
    67    85    83   ar
    68    68    65    1
    69    68    69    1
    70    80    79    1
    71    80    81   ar
    72    79    76    1
    73    65    66    1
    74    75    76    1
    75    75    66   am
    76    83    81   ar
    77    69    71   ar
    78    69    70   ar
    79    71    73   ar
    80    76    77    1
    81    70    72   ar
    82    66    67    2
    83    77    78    2
    84    73    74   ar
    85    72    74   ar
