@<TRIPOS>MOLECULE
tmp/3gk6A00.pdb
 147 143 0 0 0
SMALL
GASTEIGER

@<TRIPOS>ATOM
      1  N         17.5230   17.4350   22.1210 N.3    29  GLU29      -0.1245
      2  CA        17.9410   17.6440   23.5030 C.3    29  GLU29       0.1567
      3  C         17.6740   16.4240   24.3860 C.2    29  GLU29       0.2260
      4  O         18.3830   16.1900   25.3520 O.2    29  GLU29      -0.2867
      5  CB        17.3050   18.9210   24.0930 C.3    29  GLU29       0.0388
      6  CG        17.7160   20.1870   23.3570 C.3    29  GLU29       0.1160
      7  CD        19.2230   20.3760   23.2970 C.2    29  GLU29       0.3649
      8  OE1       19.8680   20.3510   24.3620 O.co2  29  GLU29      -0.2457
      9  OE2       19.7660   20.5640   22.1850 O.co2  29  GLU29      -0.2457
     10  N         22.4190   22.0880   24.2150 N.3    35  ILE35      -0.1231
     11  CA        22.2800   23.1470   25.2280 C.3    35  ILE35       0.1692
     12  C         23.3980   23.1080   26.2590 C.2    35  ILE35       0.2592
     13  O         23.9280   24.1470   26.6510 O.2    35  ILE35      -0.2718
     14  CB        20.8720   23.1360   25.8860 C.3    35  ILE35       0.0266
     15  CG1       19.8100   23.4840   24.8330 C.3    35  ILE35       0.0019
     16  CG2       20.7980   24.1090   27.0610 C.3    35  ILE35       0.0020
     17  CD1       18.3730   23.4120   25.3480 C.3    35  ILE35       0.0001
     18  N         23.7810   21.9050   26.6830 N.am   36  GLY36      -0.1957
     19  CA        24.9200   21.7600   27.5710 C.3    36  GLY36       0.1869
     20  C         26.1820   22.3650   26.9700 C.2    36  GLY36       0.2309
     21  O         26.9030   23.1030   27.6380 O.2    36  GLY36      -0.2863
     22  N         26.1730   26.1940   26.9630 N.3    39  TRP39      -0.1241
     23  CA        26.5670   26.7760   28.2460 C.3    39  TRP39       0.1605
     24  C         28.0580   26.6590   28.5640 C.2    39  TRP39       0.2264
     25  O         28.6350   27.5730   29.1490 O.2    39  TRP39      -0.2867
     26  CB        25.6830   26.2780   29.3960 C.3    39  TRP39       0.0550
     27  CG        24.3420   26.9350   29.3390 C.ar   39  TRP39       0.0003
     28  CD1       23.1800   26.4040   28.8510 C.ar   39  TRP39       0.0946
     29  CD2       24.0420   28.2760   29.7260 C.ar   39  TRP39       0.0152
     30  NE1       22.1660   27.3330   28.9320 N.ar   39  TRP39      -0.2442
     31  CE2       22.6700   28.4900   29.4680 C.ar   39  TRP39       0.0810
     32  CE3       24.7980   29.3170   30.2850 C.ar   39  TRP39       0.0012
     33  CZ2       22.0370   29.7060   29.7430 C.ar   39  TRP39       0.0191
     34  CZ3       24.1620   30.5270   30.5560 C.ar   39  TRP39       0.0001
     35  CH2       22.7960   30.7010   30.2860 C.ar   39  TRP39       0.0015
     36  N         29.6110   29.4380   26.8560 N.3    42  PHE42      -0.1227
     37  CA        29.3180   30.6580   27.6080 C.3    42  PHE42       0.1736
     38  C         30.2520   30.7730   28.8190 C.2    42  PHE42       0.2595
     39  O         30.8530   31.8240   29.0520 O.2    42  PHE42      -0.2718
     40  CB        27.8430   30.6870   28.0400 C.3    42  PHE42       0.0547
     41  CG        27.4410   31.9450   28.7720 C.ar   42  PHE42      -0.0202
     42  CD1       26.8660   33.0030   28.0950 C.ar   42  PHE42      -0.0042
     43  CD2       27.6300   32.0570   30.1390 C.ar   42  PHE42      -0.0042
     44  CE1       26.5010   34.1630   28.7660 C.ar   42  PHE42      -0.0003
     45  CE2       27.2680   33.2030   30.8130 C.ar   42  PHE42      -0.0003
     46  CZ        26.6960   34.2570   30.1260 C.ar   42  PHE42      -0.0000
     47  N         30.3910   29.6880   29.5790 N.am   43  TYR43      -0.1976
     48  CA        31.3070   29.6950   30.7150 C.3    43  TYR43       0.1639
     49  C         32.7210   30.0520   30.2540 C.2    43  TYR43       0.2290
     50  O         33.4150   30.8460   30.8910 O.2    43  TYR43      -0.2864
     51  CB        31.3280   28.3380   31.4230 C.3    43  TYR43       0.0560
     52  CG        29.9750   27.8540   31.8910 C.ar   43  TYR43      -0.0198
     53  CD1       28.9910   28.7500   32.3000 C.ar   43  TYR43      -0.0009
     54  CD2       29.6890   26.4940   31.9460 C.ar   43  TYR43      -0.0009
     55  CE1       27.7500   28.3000   32.7340 C.ar   43  TYR43       0.0417
     56  CE2       28.4590   26.0350   32.3810 C.ar   43  TYR43       0.0417
     57  CZ        27.4960   26.9400   32.7750 C.ar   43  TYR43       0.1957
     58  OH        26.2770   26.4740   33.2050 O.3    43  TYR43      -0.2866
     59  N         31.5410   34.2420   30.5120 N.3    47  ALA47      -0.1245
     60  CA        31.5200   34.4450   31.9570 C.3    47  ALA47       0.1562
     61  C         32.6520   35.3440   32.4810 C.2    47  ALA47       0.2260
     62  O         32.4130   36.1860   33.3450 O.2    47  ALA47      -0.2867
     63  CB        31.4910   33.1070   32.6990 C.3    47  ALA47       0.0290
     64  N         31.6630   38.9970   32.6170 N.3    50  LEU50      -0.1245
     65  CA        30.4900   39.4490   33.3620 C.3    50  LEU50       0.1561
     66  C         30.8730   40.2780   34.5830 C.2    50  LEU50       0.2260
     67  O         32.0130   40.2330   35.0450 O.2    50  LEU50      -0.2867
     68  CB        29.6350   38.2550   33.7990 C.3    50  LEU50       0.0270
     69  CG        29.1310   37.3500   32.6780 C.3    50  LEU50       0.0019
     70  CD1       28.4390   36.1050   33.2450 C.3    50  LEU50       0.0001
     71  CD2       28.2000   38.1220   31.7530 C.3    50  LEU50       0.0001
     72  N         21.9210   36.7660   34.0270 N.3    56  VAL56      -0.1245
     73  CA        22.1540   35.7090   33.0510 C.3    56  VAL56       0.1561
     74  C         20.8630   34.9750   32.7120 C.2    56  VAL56       0.2260
     75  O         20.0600   34.6750   33.5940 O.2    56  VAL56      -0.2867
     76  CB        23.2280   34.7260   33.5510 C.3    56  VAL56       0.0252
     77  CG1       23.4480   33.6170   32.5330 C.3    56  VAL56       0.0019
     78  CG2       24.5370   35.4910   33.8100 C.3    56  VAL56       0.0019
     79  N         14.7000   31.2430   24.7950 N.3    60  TYR60      -0.1241
     80  CA        14.1290   30.3390   23.8180 C.3    60  TYR60       0.1605
     81  C         13.2470   31.1650   22.8850 C.2    60  TYR60       0.2264
     82  O         12.2960   31.8100   23.3290 O.2    60  TYR60      -0.2867
     83  CB        13.3350   29.2470   24.5180 C.3    60  TYR60       0.0534
     84  CG        14.2120   28.3810   25.4060 C.ar   60  TYR60      -0.0201
     85  CD1       14.6670   27.1390   24.9650 C.ar   60  TYR60      -0.0009
     86  CD2       14.6120   28.8200   26.6670 C.ar   60  TYR60      -0.0009
     87  CE1       15.4670   26.3480   25.7650 C.ar   60  TYR60       0.0417
     88  CE2       15.4180   28.0350   27.4850 C.ar   60  TYR60       0.0417
     89  CZ        15.8410   26.7990   27.0220 C.ar   60  TYR60       0.1957
     90  OH        16.6380   26.0020   27.8110 O.3    60  TYR60      -0.2866
     91  N         22.2220   22.0530   37.7620 N.3   107  PRO107     -0.2116
     92  CA        21.0320   22.4420   36.9940 C.3   107  PRO107      0.1372
     93  C         19.8020   21.5750   37.2200 C.2   107  PRO107      0.2244
     94  O         18.8340   21.7770   36.5050 O.2   107  PRO107     -0.2868
     95  CB        21.4690   22.2530   35.5430 C.3   107  PRO107      0.0268
     96  CG        22.7020   21.3610   35.5950 C.3   107  PRO107      0.0207
     97  CD        23.0660   21.1030   37.0160 C.3   107  PRO107      0.0892
     98  N         16.5160   23.6670   37.1970 N.3   110  VAL110     -0.1231
     99  CA        15.9690   24.2210   35.9570 C.3   110  VAL110      0.1692
    100  C         15.3730   23.1230   35.0720 C.2   110  VAL110      0.2591
    101  O         14.3350   23.3140   34.4240 O.2   110  VAL110     -0.2718
    102  CB        16.9930   25.1010   35.1850 C.3   110  VAL110      0.0266
    103  CG1       18.1730   24.2740   34.7000 C.3   110  VAL110      0.0020
    104  CG2       16.3030   25.8340   34.0230 C.3   110  VAL110      0.0020
    105  N         16.0100   21.9530   35.0650 N.am  111  ILE111     -0.1980
    106  CA        15.4670   20.8450   34.3000 C.3   111  ILE111      0.1595
    107  C         14.0960   20.4610   34.8320 C.2   111  ILE111      0.2287
    108  O         13.1510   20.2520   34.0680 O.2   111  ILE111     -0.2864
    109  CB        16.4010   19.5870   34.3710 C.3   111  ILE111      0.0276
    110  CG1       17.7890   19.9180   33.7970 C.3   111  ILE111      0.0022
    111  CG2       15.7400   18.3990   33.6640 C.3   111  ILE111      0.0022
    112  CD1       18.8990   18.8750   34.1660 C.3   111  ILE111      0.0001
    113  N         11.2260   22.9530   34.1910 N.3   114  TRP114     -0.1241
    114  CA        10.6170   22.8600   32.8670 C.3   114  TRP114      0.1605
    115  C          9.4970   21.8160   32.8640 C.2   114  TRP114      0.2264
    116  O          8.5150   21.9670   32.1580 O.2   114  TRP114     -0.2867
    117  CB        11.6530   22.5670   31.7670 C.3   114  TRP114      0.0550
    118  CG        12.2870   23.7850   31.1920 C.ar  114  TRP114      0.0003
    119  CD1       13.5630   24.2380   31.4210 C.ar  114  TRP114      0.0946
    120  CD2       11.6820   24.7300   30.2990 C.ar  114  TRP114      0.0152
    121  NE1       13.7870   25.3980   30.7180 N.ar  114  TRP114     -0.2442
    122  CE2       12.6530   25.7190   30.0160 C.ar  114  TRP114      0.0810
    123  CE3       10.4180   24.8280   29.6970 C.ar  114  TRP114      0.0012
    124  CZ2       12.3960   26.8010   29.1650 C.ar  114  TRP114      0.0191
    125  CZ3       10.1640   25.9090   28.8430 C.ar  114  TRP114      0.0001
    126  CH2       11.1530   26.8750   28.5880 C.ar  114  TRP114      0.0015
    127  N         14.6740   31.4030   30.6780 N.3   134  GLU134     -0.1245
    128  CA        15.1660   31.0540   31.9940 C.3   134  GLU134      0.1567
    129  C         15.9000   32.2870   32.4990 C.2   134  GLU134      0.2260
    130  O         16.6460   32.8990   31.7480 O.2   134  GLU134     -0.2867
    131  CB        16.1850   29.9080   31.8840 C.3   134  GLU134      0.0388
    132  CG        15.5920   28.6250   31.3590 C.3   134  GLU134      0.1160
    133  CD        16.6260   27.7340   30.6880 C.2   134  GLU134      0.3649
    134  OE1       17.7910   28.1580   30.5160 O.co2 134  GLU134     -0.2457
    135  OE2       16.2450   26.6160   30.3320 O.co2 134  GLU134     -0.2457
    136  N         18.4830   33.1560   35.5550 N.3   136  TYR136     -0.1241
    137  CA        19.2640   32.5050   36.5950 C.3   136  TYR136      0.1605
    138  C         19.4580   33.4910   37.7310 C.2   136  TYR136      0.2264
    139  O         20.5120   34.1170   37.8780 O.2   136  TYR136     -0.2867
    140  CB        20.5750   31.9170   36.0290 C.3   136  TYR136      0.0534
    141  CG        20.2690   30.7720   35.0870 C.ar  136  TYR136     -0.0201
    142  CD1       20.1010   29.4760   35.5780 C.ar  136  TYR136     -0.0009
    143  CD2       20.0700   30.9890   33.7300 C.ar  136  TYR136     -0.0009
    144  CE1       19.7770   28.4360   34.7530 C.ar  136  TYR136      0.0417
    145  CE2       19.7410   29.9300   32.8770 C.ar  136  TYR136      0.0417
    146  CZ        19.6000   28.6540   33.4050 C.ar  136  TYR136      0.1957
    147  OH        19.2710   27.5810   32.6070 O.3   136  TYR136     -0.2866
@<TRIPOS>BOND
     1     1     2    1
     2     9     7   ar
     3    81    82    2
     4    81    80    1
     5     7     6    1
     6     7     8   ar
     7     6     5    1
     8     2     5    1
     9     2     3    1
    10    80    83    1
    11    80    79    1
    12    10    11    1
    13     3     4    2
    14    83    84    1
    15    15    17    1
    16    15    14    1
    17    85    84   ar
    18    85    87   ar
    19    11    14    1
    20    11    12    1
    21    84    86   ar
    22    87    89   ar
    23    14    16    1
    24    12    13    2
    25    12    18   am
    26    86    88   ar
    27    18    19    1
    28    36    37    1
    29    22    23    1
    30    20    19    1
    31    20    21    2
    32    89    88   ar
    33    89    90    1
    34    37    40    1
    35    37    38    1
    36    40    41    1
    37    42    44   ar
    38    42    41   ar
    39    23    24    1
    40    23    26    1
    41    24    25    2
    42   126   125   ar
    43   126   124   ar
    44    44    46   ar
    45    41    43   ar
    46    38    39    2
    47    38    47   am
    48   125   123   ar
    49    28    30   ar
    50    28    27   ar
    51    30    31   ar
    52   124   122   ar
    53    27    26    1
    54    27    29   ar
    55    31    29   ar
    56    31    33   ar
    57    47    48    1
    58   123   120   ar
    59    29    32   ar
    60    33    35   ar
    61   122   120   ar
    62   122   121   ar
    63    46    45   ar
    64    43    45   ar
    65    49    48    1
    66    49    50    2
    67    32    34   ar
    68    35    34   ar
    69   120   118   ar
    70   135   133   ar
    71    59    60    1
    72   134   133   ar
    73   127   128    1
    74   133   132    1
    75    48    51    1
    76   121   119   ar
    77   118   119   ar
    78   118   117    1
    79   132   131    1
    80    51    52    1
    81   130   129    2
    82    71    69    1
    83   117   114    1
    84   131   128    1
    85    52    54   ar
    86    52    53   ar
    87    54    56   ar
    88    60    61    1
    89    60    63    1
    90   128   129    1
    91   116   115    2
    92    53    55   ar
    93    56    57   ar
    94    61    62    2
    95    77    76    1
    96   147   146    1
    97    64    65    1
    98    69    70    1
    99    69    68    1
   100    74    73    1
   101    74    75    2
   102    55    57   ar
   103    57    58    1
   104   115   114    1
   105   114   113    1
   106   145   146   ar
   107   145   143   ar
   108    73    76    1
   109    73    72    1
   110    65    68    1
   111    65    66    1
   112   146   144   ar
   113    76    78    1
   114   111   109    1
   115   143   141   ar
   116   110   112    1
   117   110   109    1
   118   104   102    1
   119   108   107    2
   120   106   109    1
   121   106   107    1
   122   106   105    1
   123   101   100    2
   124    66    67    2
   125   103   102    1
   126   144   142   ar
   127   105   100   am
   128   100    99    1
   129   141   142   ar
   130   141   140    1
   131   102    99    1
   132    95    96    1
   133    95    92    1
   134   136   137    1
   135    96    97    1
   136    99    98    1
   137   140   137    1
   138    94    93    2
   139   137   138    1
   140    92    93    1
   141    92    91    1
   142    97    91    1
   143   138   139    2
