@<TRIPOS>MOLECULE
tmp/3gk7A00.pdb
 133 128 0 0 0
SMALL
GASTEIGER

@<TRIPOS>ATOM
      1  N         14.9330  -29.4640   -7.7970 N.3    81  PHE81      -0.1241
      2  CA        13.9300  -29.9100   -8.7680 C.3    81  PHE81       0.1605
      3  C         12.6400  -29.9430   -7.9690 C.2    81  PHE81       0.2264
      4  O         12.5610  -30.6230   -6.9440 O.2    81  PHE81      -0.2867
      5  CB        14.2420  -31.3250   -9.2610 C.3    81  PHE81       0.0534
      6  CG        13.4470  -31.7630  -10.4650 C.ar   81  PHE81      -0.0203
      7  CD1       14.0300  -31.7600  -11.7290 C.ar   81  PHE81      -0.0042
      8  CD2       12.1290  -32.2280  -10.3300 C.ar   81  PHE81      -0.0042
      9  CE1       13.3190  -32.1860  -12.8500 C.ar   81  PHE81      -0.0003
     10  CE2       11.4030  -32.6600  -11.4450 C.ar   81  PHE81      -0.0003
     11  CZ        11.9980  -32.6390  -12.7150 C.ar   81  PHE81      -0.0000
     12  N         21.2420  -31.8970  -13.3960 N.3   102  PHE102     -0.1241
     13  CA        21.3360  -33.1580  -12.6340 C.3   102  PHE102      0.1605
     14  C         22.7740  -33.7160  -12.5410 C.2   102  PHE102      0.2264
     15  O         23.2470  -34.0400  -11.4460 O.2   102  PHE102     -0.2867
     16  CB        20.3640  -34.1850  -13.2270 C.3   102  PHE102      0.0534
     17  CG        19.9400  -35.2800  -12.2700 C.ar  102  PHE102     -0.0203
     18  CD1       20.3350  -35.2870  -10.9280 C.ar  102  PHE102     -0.0042
     19  CD2       19.1310  -36.3130  -12.7330 C.ar  102  PHE102     -0.0042
     20  CE1       19.9360  -36.3210  -10.0710 C.ar  102  PHE102     -0.0003
     21  CE2       18.7300  -37.3490  -11.8850 C.ar  102  PHE102     -0.0003
     22  CZ        19.1200  -37.3370  -10.5480 C.ar  102  PHE102     -0.0000
     23  N         17.4570  -42.9390  -24.1000 N.3   213  GLN213     -0.1245
     24  CA        17.1540  -42.2890  -22.8370 C.3   213  GLN213      0.1566
     25  C         15.7250  -41.7680  -22.9130 C.2   213  GLN213      0.2260
     26  O         15.3470  -41.1140  -23.8920 O.2   213  GLN213     -0.2867
     27  CB        18.1200  -41.1350  -22.5570 C.3   213  GLN213      0.0367
     28  CG        17.8040  -40.3150  -21.2760 C.3   213  GLN213      0.0905
     29  CD        16.8820  -39.1200  -21.5310 C.2   213  GLN213      0.2608
     30  OE1       17.0190  -38.4170  -22.5360 O.2   213  GLN213     -0.2717
     31  NE2       15.9390  -38.8910  -20.6130 N.am  213  GLN213     -0.0878
     32  N         18.6630  -41.7620  -17.5760 N.3   238  GLU238     -0.1231
     33  CA        18.5560  -41.2890  -16.2100 C.3   238  GLU238      0.1699
     34  C         17.7160  -42.2730  -15.3740 C.2   238  GLU238      0.2592
     35  O         18.1260  -42.6910  -14.2810 O.2   238  GLU238     -0.2718
     36  CB        17.9460  -39.8990  -16.2460 C.3   238  GLU238      0.0402
     37  CG        18.1680  -39.0760  -15.0570 C.3   238  GLU238      0.1161
     38  CD        17.4950  -37.7430  -15.2370 C.2   238  GLU238      0.3649
     39  OE1       18.1910  -36.8010  -15.6540 O.co2 238  GLU238     -0.2457
     40  OE2       16.2700  -37.6540  -14.9920 O.co2 238  GLU238     -0.2457
     41  N         16.5720  -42.6850  -15.9180 N.am  239  MET239     -0.1979
     42  CA        15.7330  -43.7000  -15.2870 C.3   239  MET239      0.1605
     43  C         15.1420  -44.6620  -16.3100 C.2   239  MET239      0.2287
     44  O         15.1390  -44.3810  -17.5180 O.2   239  MET239     -0.2864
     45  CB        14.5880  -43.0270  -14.5290 C.3   239  MET239      0.0413
     46  CG        13.4230  -42.5900  -15.4420 C.3   239  MET239      0.0598
     47  SD        12.0920  -41.9130  -14.4680 S.3   239  MET239     -0.1393
     48  CE        12.2850  -40.1640  -14.8070 C.3   239  MET239      0.0692
     49  N         12.7850  -36.3320  -24.4590 N.3   310  ASN310     -0.1225
     50  CA        12.3660  -35.5280  -23.3090 C.3   310  ASN310      0.1785
     51  C         11.1850  -34.6380  -23.6560 C.2   310  ASN310      0.2597
     52  O         10.9450  -34.3520  -24.8220 O.2   310  ASN310     -0.2718
     53  CB        13.5470  -34.7110  -22.7670 C.3   310  ASN310      0.1169
     54  CG        14.6280  -35.6010  -22.1760 C.2   310  ASN310      0.2627
     55  OD1       14.5480  -36.0110  -21.0130 O.2   310  ASN310     -0.2716
     56  ND2       15.6150  -35.9340  -22.9830 N.am  310  ASN310     -0.0877
     57  N         10.4290  -34.2270  -22.6490 N.am  311  ALA311     -0.1966
     58  CA         9.2400  -33.3910  -22.8750 C.3   311  ALA311      0.1728
     59  C          9.4980  -31.9170  -22.5490 C.2   311  ALA311      0.2616
     60  O         10.3880  -31.5900  -21.7520 O.2   311  ALA311     -0.2715
     61  CB         8.0580  -33.9350  -22.0610 C.3   311  ALA311      0.0334
     62  N          8.7180  -31.0200  -23.1600 N.am  312  CYS312     -0.1954
     63  CA         8.7850  -29.6130  -22.7820 C.3   312  CYS312      0.1843
     64  C          7.4070  -29.0160  -22.5820 C.2   312  CYS312      0.2625
     65  O          6.4050  -29.7260  -22.6960 O.2   312  CYS312     -0.2714
     66  CB         9.5850  -28.8060  -23.7940 C.3   312  CYS312      0.0997
     67  SG         8.8470  -28.7470  -25.4170 S.3   312  CYS312     -0.0797
     68  N          7.3680  -27.7180  -22.2730 N.am  313  LEU313     -0.1977
     69  CA         6.1060  -27.0110  -22.0410 C.3   313  LEU313      0.1596
     70  C          5.7300  -26.0530  -23.1790 C.2   313  LEU313      0.2287
     71  O          4.5620  -25.9190  -23.5140 O.2   313  LEU313     -0.2864
     72  CB         6.1560  -26.2500  -20.7080 C.3   313  LEU313      0.0297
     73  CG         6.2120  -27.1490  -19.4640 C.3   313  LEU313      0.0022
     74  CD1        6.4090  -26.3320  -18.2040 C.3   313  LEU313      0.0001
     75  CD2        4.9610  -28.0090  -19.3390 C.3   313  LEU313      0.0001
     76  N         10.9000  -25.8230  -20.4020 N.3   323  SER323     -0.1217
     77  CA        10.4920  -27.1610  -19.9670 C.3   323  SER323      0.1889
     78  C         10.1270  -27.2610  -18.4960 C.2   323  SER323      0.2288
     79  O          9.5960  -28.3000  -18.0740 O.2   323  SER323     -0.2866
     80  CB        11.5840  -28.2010  -20.2680 C.3   323  SER323      0.2089
     81  OG        11.9580  -28.1590  -21.6280 O.3   323  SER323     -0.2183
     82  N          7.8790  -25.0520  -11.9700 N.3   331  PHE331     -0.1227
     83  CA         7.0410  -26.2290  -12.1110 C.3   331  PHE331      0.1736
     84  C          7.7930  -27.5190  -11.7460 C.2   331  PHE331      0.2596
     85  O          7.2800  -28.3610  -10.9900 O.2   331  PHE331     -0.2718
     86  CB         6.4930  -26.2760  -13.5400 C.3   331  PHE331      0.0547
     87  CG         5.4960  -27.3590  -13.7670 C.ar  331  PHE331     -0.0202
     88  CD1        4.1950  -27.2370  -13.2820 C.ar  331  PHE331     -0.0042
     89  CD2        5.8510  -28.5120  -14.4690 C.ar  331  PHE331     -0.0042
     90  CE1        3.2620  -28.2650  -13.4900 C.ar  331  PHE331     -0.0003
     91  CE2        4.9220  -29.5360  -14.6890 C.ar  331  PHE331     -0.0003
     92  CZ         3.6300  -29.4100  -14.1920 C.ar  331  PHE331     -0.0000
     93  N          9.0100  -27.6720  -12.2710 N.am  332  SER332     -0.1938
     94  CA         9.8030  -28.8880  -12.0530 C.3   332  SER332      0.2055
     95  C         11.2940  -28.5340  -11.9280 C.2   332  SER332      0.2644
     96  O         11.7080  -27.9430  -10.9370 O.2   332  SER332     -0.2714
     97  CB         9.5360  -29.9090  -13.1640 C.3   332  SER332      0.2130
     98  OG         9.7260  -29.3200  -14.4420 O.3   332  SER332     -0.2179
     99  N         12.0880  -28.8810  -12.9320 N.am  333  GLY333     -0.1939
    100  CA        13.4890  -28.4400  -12.9900 C.3   333  GLY333      0.2014
    101  C         14.0770  -28.9120  -14.3050 C.2   333  GLY333      0.2639
    102  O         13.4230  -29.6770  -15.0310 O.2   333  GLY333     -0.2714
    103  N         15.3010  -28.4840  -14.6160 N.am  334  VAL334     -0.1963
    104  CA        15.9790  -28.9710  -15.8300 C.3   334  VAL334      0.1727
    105  C         16.2250  -30.4830  -15.7360 C.2   334  VAL334      0.2617
    106  O         16.1270  -31.1820  -16.7380 O.2   334  VAL334     -0.2715
    107  CB        17.3040  -28.1980  -16.1320 C.3   334  VAL334      0.0290
    108  CG1       18.2870  -28.3380  -14.9800 C.3   334  VAL334      0.0023
    109  CG2       17.9370  -28.6730  -17.4410 C.3   334  VAL334      0.0023
    110  N         16.4900  -30.9900  -14.5300 N.am  335  GLY335     -0.1940
    111  CA        16.7960  -32.4140  -14.3710 C.3   335  GLY335      0.2014
    112  C         17.9530  -32.7480  -15.3000 C.2   335  GLY335      0.2639
    113  O         18.9480  -32.0460  -15.3100 O.2   335  GLY335     -0.2714
    114  N         17.7990  -33.7920  -16.1040 N.am  336  GLY336     -0.1939
    115  CA        18.8690  -34.2290  -17.0070 C.3   336  GLY336      0.2014
    116  C         18.5840  -33.9050  -18.4630 C.2   336  GLY336      0.2638
    117  O         19.2270  -34.4530  -19.3630 O.2   336  GLY336     -0.2714
    118  N         17.6180  -33.0240  -18.7050 N.am  337  GLN337     -0.1977
    119  CA        17.1830  -32.7410  -20.0800 C.3   337  GLN337      0.1601
    120  C         18.3470  -32.2220  -20.9370 C.2   337  GLN337      0.2287
    121  O         18.6350  -32.7600  -22.0270 O.2   337  GLN337     -0.2864
    122  CB        16.0100  -31.7510  -20.1030 C.3   337  GLN337      0.0394
    123  CG        15.6170  -31.3550  -21.5380 C.3   337  GLN337      0.0908
    124  CD        14.3170  -30.5900  -21.6110 C.2   337  GLN337      0.2608
    125  OE1       14.2900  -29.4200  -22.0060 O.2   337  GLN337     -0.2717
    126  NE2       13.2190  -31.2560  -21.2480 N.am  337  GLN337     -0.0878
    127  N         14.9320  -23.5650  -20.7170 N.3   384  THR384     -0.1218
    128  CA        15.5610  -24.7980  -20.2260 C.3   384  THR384      0.1862
    129  C         16.6440  -25.2580  -21.2130 C.2   384  THR384      0.2287
    130  O         17.8090  -25.4080  -20.8530 O.2   384  THR384     -0.2866
    131  CB        14.5090  -25.9080  -20.0110 C.3   384  THR384      0.1770
    132  OG1       13.4200  -25.3810  -19.2340 O.3   384  THR384     -0.2211
    133  CG2       15.1200  -27.1170  -19.2950 C.3   384  THR384      0.0375
@<TRIPOS>BOND
     1    67    66    1
     2    52    51    2
     3    49    50    1
     4    23    24    1
     5    26    25    2
     6    66    63    1
     7    51    50    1
     8    51    57   am
     9    71    70    2
    10    50    53    1
    11    70    69    1
    12    62    63    1
    13    62    59   am
    14    56    54   am
    15    25    24    1
    16    58    57    1
    17    58    59    1
    18    58    61    1
    19    24    27    1
    20    63    64    1
    21    53    54    1
    22    65    64    2
    23    64    68   am
    24    27    28    1
    25    59    60    2
    26    30    29    2
    27    68    69    1
    28    54    55    2
    29    69    72    1
    30   121   120    2
    31   125   124    2
    32    81    80    1
    33   124   123    1
    34   124   126   am
    35   123   122    1
    36    29    28    1
    37    29    31   am
    38   129   130    2
    39   129   128    1
    40   120   119    1
    41   127   128    1
    42    72    73    1
    43    76    77    1
    44    80    77    1
    45   128   131    1
    46   122   119    1
    47   119   118    1
    48   131   133    1
    49   131   132    1
    50    77    78    1
    51    73    75    1
    52    73    74    1
    53   117   116    2
    54   118   116   am
    55    78    79    2
    56   116   115    1
    57    32    33    1
    58    44    43    2
    59   109   107    1
    60   115   114    1
    61   106   105    2
    62    43    42    1
    63    36    33    1
    64    36    37    1
    65    33    34    1
    66   107   104    1
    67   107   108    1
    68   114   112   am
    69    41    34   am
    70    41    42    1
    71   104   105    1
    72   104   103    1
    73   105   110   am
    74    39    38   ar
    75    46    45    1
    76    46    47    1
    77    34    35    2
    78   113   112    2
    79   112   111    1
    80    42    45    1
    81    38    37    1
    82    38    40   ar
    83   102   101    2
    84    48    47    1
    85    91    89   ar
    86    91    92   ar
    87   103   101   am
    88   110   111    1
    89    89    87   ar
    90    98    97    1
    91   101   100    1
    92    92    90   ar
    93    87    86    1
    94    87    88   ar
    95    86    83    1
    96    90    88   ar
    97    12    13    1
    98    16    13    1
    99    16    17    1
   100    97    94    1
   101   100    99    1
   102    99    95   am
   103     9    11   ar
   104     9     7   ar
   105    19    17   ar
   106    19    21   ar
   107    11    10   ar
   108    13    14    1
   109    14    15    2
   110    93    94    1
   111    93    84   am
   112    17    18   ar
   113    83    82    1
   114    83    84    1
   115    94    95    1
   116    95    96    2
   117    21    22   ar
   118    84    85    2
   119     7     6   ar
   120    10     8   ar
   121    18    20   ar
   122    22    20   ar
   123     6     8   ar
   124     6     5    1
   125     5     2    1
   126     2     3    1
   127     2     1    1
   128     3     4    2
