@<TRIPOS>MOLECULE
tmp/3gkaB00.pdb
 235 233 0 0 0
SMALL
GASTEIGER

@<TRIPOS>ATOM
      1  N        -12.9040    9.4190   47.8170 N.3    23  ALA23      -0.1231
      2  CA       -11.4970    9.0750   47.9480 C.3    23  ALA23       0.1679
      3  C        -11.2190    8.4630   49.3190 C.2    23  ALA23       0.2434
      4  O        -11.9730    8.6930   50.2650 O.2    23  ALA23      -0.2733
      5  CB       -10.6300   10.3270   47.7430 C.3    23  ALA23       0.0304
      6  N        -10.1190    7.6970   49.4310 N.am   24  PRO24      -0.2718
      7  CA        -9.6960    7.1490   50.7130 C.3    24  PRO24       0.1535
      8  C         -9.2560    8.2540   51.6690 C.2    24  PRO24       0.2598
      9  O         -8.4090    9.0850   51.3100 O.2    24  PRO24      -0.2715
     10  CB        -8.5200    6.2380   50.3360 C.3    24  PRO24       0.0310
     11  CG        -8.0240    6.7670   49.0550 C.3    24  PRO24       0.0237
     12  CD        -9.1970    7.3180   48.3440 C.3    24  PRO24       0.0939
     13  N         -9.8340    8.2620   52.8670 N.am   25  LEU25      -0.1964
     14  CA        -9.5770    9.3040   53.8470 C.3    25  LEU25       0.1728
     15  C         -9.3280    8.7070   55.2360 C.2    25  LEU25       0.2617
     16  O        -10.2570    8.2850   55.9100 O.2    25  LEU25      -0.2715
     17  CB       -10.7620   10.2740   53.9040 C.3    25  LEU25       0.0311
     18  CG       -11.0560   11.0400   52.6180 C.3    25  LEU25       0.0022
     19  CD1      -12.4680   11.6110   52.6210 C.3    25  LEU25       0.0001
     20  CD2      -10.0050   12.1060   52.3980 C.3    25  LEU25       0.0001
     21  N         -8.0610    8.6540   55.6320 N.am   26  THR26      -0.1937
     22  CA        -7.6680    8.3650   57.0010 C.3    26  THR26       0.2028
     23  C         -8.2720    9.4240   57.9300 C.2    26  THR26       0.2642
     24  O         -8.0590   10.6210   57.7390 O.2    26  THR26      -0.2714
     25  CB        -6.1260    8.3650   57.1320 C.3    26  THR26       0.1808
     26  OG1       -5.5890    7.2270   56.4480 O.3    26  THR26      -0.2208
     27  CG2       -5.6830    8.3250   58.5820 C.3    26  THR26       0.0379
     28  N         -9.0500    8.9660   58.9090 N.am   27  ARG27      -0.1977
     29  CA        -9.6900    9.8390   59.8990 C.3    27  ARG27       0.1597
     30  C         -9.3130    9.4890   61.3470 C.2    27  ARG27       0.2287
     31  O         -9.5040   10.2950   62.2540 O.2    27  ARG27      -0.2864
     32  CB       -11.2090    9.7770   59.7370 C.3    27  ARG27       0.0334
     33  CG       -11.7220   10.0260   58.3200 C.3    27  ARG27       0.0492
     34  CD       -11.2790   11.3680   57.7200 C.3    27  ARG27       0.2205
     35  NE       -11.6720   12.5040   58.5420 N.pl3  27  ARG27      -0.0865
     36  CZ       -12.9050   13.0170   58.6230 C.cat  27  ARG27       0.5346
     37  NH1      -13.9150   12.4940   57.9410 N.pl3  27  ARG27       0.1354
     38  NH2      -13.1330   14.0600   59.4190 N.pl3  27  ARG27       0.1354
     39  N         -7.1920    4.2100   54.4310 N.3    57  ALA57      -0.1245
     40  CA        -6.0640    3.2900   54.4240 C.3    57  ALA57       0.1562
     41  C         -6.1430    2.4120   55.6650 C.2    57  ALA57       0.2260
     42  O         -6.2460    2.9180   56.7770 O.2    57  ALA57      -0.2867
     43  CB        -4.7530    4.0570   54.4140 C.3    57  ALA57       0.0290
     44  N         -9.0730   -0.2310   51.3270 N.3    99  GLN99      -0.1245
     45  CA        -7.7480    0.1320   50.8530 C.3    99  GLN99       0.1566
     46  C         -6.7100   -0.5610   51.7180 C.2    99  GLN99       0.2260
     47  O         -6.6440   -0.3110   52.9240 O.2    99  GLN99      -0.2867
     48  CB        -7.5280    1.6500   50.8860 C.3    99  GLN99       0.0367
     49  CG        -6.1530    2.0670   50.3390 C.3    99  GLN99       0.0905
     50  CD        -5.9320    3.5620   50.3400 C.2    99  GLN99       0.2608
     51  OE1       -5.9380    4.2000   51.3950 O.2    99  GLN99      -0.2717
     52  NE2       -5.7090    4.1290   49.1570 N.am   99  GLN99      -0.0878
     53  N         -3.0420   -1.3770   53.1060 N.3   101  TRP101     -0.1241
     54  CA        -2.0170   -0.3860   53.4560 C.3   101  TRP101      0.1605
     55  C         -0.8130   -0.9650   54.1870 C.2   101  TRP101      0.2264
     56  O         -0.9570   -1.8240   55.0630 O.2   101  TRP101     -0.2867
     57  CB        -2.6610    0.6320   54.3830 C.3   101  TRP101      0.0550
     58  CG        -1.9600    1.9340   54.5640 C.ar  101  TRP101      0.0003
     59  CD1       -1.0700    2.5260   53.7170 C.ar  101  TRP101      0.0946
     60  CD2       -2.1640    2.8540   55.6410 C.ar  101  TRP101      0.0152
     61  NE1       -0.6890    3.7470   54.2160 N.ar  101  TRP101     -0.2442
     62  CE2       -1.3550    3.9810   55.3880 C.ar  101  TRP101      0.0810
     63  CE3       -2.9540    2.8370   56.7940 C.ar  101  TRP101      0.0012
     64  CZ2       -1.3080    5.0830   56.2510 C.ar  101  TRP101      0.0191
     65  CZ3       -2.9040    3.9400   57.6610 C.ar  101  TRP101      0.0001
     66  CH2       -2.0860    5.0370   57.3830 C.ar  101  TRP101      0.0015
     67  N         -2.9400    0.2650   48.0460 N.3   174  HIS174     -0.1241
     68  CA        -2.3540    1.5860   48.2440 C.3   174  HIS174      0.1621
     69  C         -0.9030    1.5720   47.7470 C.2   174  HIS174      0.2264
     70  O          0.0390    1.2870   48.5060 O.2   174  HIS174     -0.2867
     71  CB        -2.4170    1.9960   49.7290 C.3   174  HIS174      0.0745
     72  CG        -2.2950    3.4700   49.9550 C.ar  174  HIS174      0.0817
     73  ND1       -1.6940    4.3140   49.0480 N.ar  174  HIS174     -0.2268
     74  CD2       -2.6910    4.2510   50.9880 C.ar  174  HIS174      0.1154
     75  CE1       -1.7350    5.5520   49.5070 C.ar  174  HIS174      0.1986
     76  NE2       -2.3370    5.5410   50.6820 N.ar  174  HIS174     -0.2212
     77  N          1.4060    7.7680   47.5490 N.3   177  ASN177     -0.1240
     78  CA         1.6700    8.6780   48.6630 C.3   177  ASN177      0.1653
     79  C          2.8800    8.3440   49.5240 C.2   177  ASN177      0.2266
     80  O          2.9460    8.7280   50.6910 O.2   177  ASN177     -0.2867
     81  CB         0.4210    8.8120   49.5300 C.3   177  ASN177      0.1155
     82  CG        -0.7490    9.3860   48.7700 C.2   177  ASN177      0.2627
     83  OD1       -0.5830    9.9730   47.6910 O.2   177  ASN177     -0.2716
     84  ND2       -1.9470    9.2220   49.3230 N.am  177  ASN177     -0.0877
     85  N          4.0790    5.5000   50.6950 N.3   179  TYR179     -0.1241
     86  CA         4.0470    4.3840   51.6310 C.3   179  TYR179      0.1605
     87  C          4.7710    3.1750   50.9950 C.2   179  TYR179      0.2264
     88  O          5.4220    3.3310   49.9690 O.2   179  TYR179     -0.2867
     89  CB         2.6060    4.1180   52.0920 C.3   179  TYR179      0.0534
     90  CG         2.0300    5.3130   52.8490 C.ar  179  TYR179     -0.0201
     91  CD1        1.0420    6.1190   52.2870 C.ar  179  TYR179     -0.0009
     92  CD2        2.5110    5.6580   54.1110 C.ar  179  TYR179     -0.0009
     93  CE1        0.5310    7.2210   52.9810 C.ar  179  TYR179      0.0417
     94  CE2        2.0210    6.7640   54.8030 C.ar  179  TYR179      0.0417
     95  CZ         1.0370    7.5400   54.2330 C.ar  179  TYR179      0.1957
     96  OH         0.5470    8.6270   54.9220 O.3   179  TYR179     -0.2866
     97  N         -4.1140    2.1770   43.6360 N.3   226  HIS226     -0.1241
     98  CA        -3.9650    3.6060   43.8620 C.3   226  HIS226      0.1621
     99  C         -2.5350    4.0330   43.5680 C.2   226  HIS226      0.2264
    100  O         -1.5950    3.4550   44.1120 O.2   226  HIS226     -0.2867
    101  CB        -4.3030    3.9130   45.3120 C.3   226  HIS226      0.0745
    102  CG        -4.3320    5.3690   45.6350 C.ar  226  HIS226      0.0817
    103  ND1       -4.4350    6.3480   44.6720 N.ar  226  HIS226     -0.2268
    104  CD2       -4.2970    6.0110   46.8250 C.ar  226  HIS226      0.1154
    105  CE1       -4.4420    7.5330   45.2560 C.ar  226  HIS226      0.1986
    106  NE2       -4.3650    7.3550   46.5620 N.ar  226  HIS226     -0.2212
    107  N         -6.7470    4.3540   40.1240 N.3   261  PHE261     -0.1241
    108  CA        -7.0450    5.6340   40.7690 C.3   261  PHE261      0.1605
    109  C         -5.7330    6.3800   40.8270 C.2   261  PHE261      0.2264
    110  O         -4.7680    5.8750   41.4020 O.2   261  PHE261     -0.2867
    111  CB        -7.5750    5.3940   42.1890 C.3   261  PHE261      0.0534
    112  CG        -7.8460    6.6550   42.9960 C.ar  261  PHE261     -0.0203
    113  CD1       -9.0610    6.8320   43.6200 C.ar  261  PHE261     -0.0042
    114  CD2       -6.8830    7.6420   43.1630 C.ar  261  PHE261     -0.0042
    115  CE1       -9.3220    7.9800   44.3890 C.ar  261  PHE261     -0.0003
    116  CE2       -7.1420    8.7860   43.9240 C.ar  261  PHE261     -0.0003
    117  CZ        -8.3560    8.9460   44.5360 C.ar  261  PHE261     -0.0000
    118  N         -4.1230    9.8750   42.1980 N.3   263  ARG263     -0.1245
    119  CA        -4.0700   11.1850   42.8280 C.3   263  ARG263      0.1563
    120  C         -3.0550   11.9920   42.0350 C.2   263  ARG263      0.2260
    121  O         -1.8500   11.7400   42.1230 O.2   263  ARG263     -0.2867
    122  CB        -3.6650   11.1350   44.3060 C.3   263  ARG263      0.0307
    123  CG        -3.5590   12.5290   44.9120 C.3   263  ARG263      0.0489
    124  CD        -3.0820   12.5610   46.3550 C.3   263  ARG263      0.2205
    125  NE        -1.7080   12.1050   46.5640 N.pl3 263  ARG263     -0.0865
    126  CZ        -0.6070   12.8130   46.3130 C.cat 263  ARG263      0.5346
    127  NH1       -0.6640   14.0380   45.7870 N.pl3 263  ARG263      0.1354
    128  NH2        0.5830   12.2750   46.5740 N.pl3 263  ARG263      0.1354
    129  N         -8.4410   12.4710   40.4370 N.3   286  ASN286     -0.1225
    130  CA        -8.5610   13.0040   41.7850 C.3   286  ASN286      0.1785
    131  C         -7.5260   14.0890   42.0820 C.2   286  ASN286      0.2597
    132  O         -6.4280   14.0690   41.5320 O.2   286  ASN286     -0.2718
    133  CB        -8.4130   11.8700   42.8120 C.3   286  ASN286      0.1169
    134  CG        -8.1570   12.3850   44.2180 C.2   286  ASN286      0.2627
    135  OD1       -7.0330   12.3160   44.7160 O.2   286  ASN286     -0.2716
    136  ND2       -9.1910   12.9390   44.8510 N.am  286  ASN286     -0.0877
    137  N         -7.9100   15.0110   42.9650 N.am  287  GLU287     -0.1965
    138  CA        -7.0520   16.0570   43.5580 C.3   287  GLU287      0.1733
    139  C         -7.4370   17.4230   43.0080 C.2   287  GLU287      0.2616
    140  O         -7.2570   17.7020   41.8250 O.2   287  GLU287     -0.2715
    141  CB        -5.5340   15.8080   43.4030 C.3   287  GLU287      0.0429
    142  CG        -4.6910   16.7000   44.3120 C.3   287  GLU287      0.1163
    143  CD        -3.2090   16.3210   44.3660 C.2   287  GLU287      0.3649
    144  OE1       -2.5770   16.1290   43.2970 O.co2 287  GLU287     -0.2457
    145  OE2       -2.6650   16.2450   45.4920 O.co2 287  GLU287     -0.2457
    146  N         -7.9990   18.2510   43.8850 N.am  288  ASN288     -0.1958
    147  CA        -8.3750   19.6340   43.5790 C.3   288  ASN288      0.1819
    148  C         -9.4830   19.7810   42.5320 C.2   288  ASN288      0.2621
    149  O         -9.6880   20.8670   41.9970 O.2   288  ASN288     -0.2715
    150  CB        -7.1340   20.4550   43.1860 C.3   288  ASN288      0.1195
    151  CG        -6.0780   20.4760   44.2830 C.2   288  ASN288      0.2630
    152  OD1       -6.3770   20.2320   45.4610 O.2   288  ASN288     -0.2716
    153  ND2       -4.8410   20.7920   43.9090 N.am  288  ASN288     -0.0877
    154  N        -10.2190   18.7080   42.2620 N.am  289  PHE289     -0.1974
    155  CA       -11.3310   18.7810   41.3120 C.3   289  PHE289      0.1639
    156  C        -12.5310   19.5510   41.8470 C.2   289  PHE289      0.2290
    157  O        -12.8570   19.4780   43.0250 O.2   289  PHE289     -0.2864
    158  CB       -11.7520   17.3810   40.8510 C.3   289  PHE289      0.0560
    159  CG       -10.8830   16.8410   39.7790 C.ar  289  PHE289     -0.0200
    160  CD1       -9.6670   16.2690   40.0900 C.ar  289  PHE289     -0.0042
    161  CD2      -11.2440   16.9700   38.4460 C.ar  289  PHE289     -0.0042
    162  CE1       -8.8340   15.7930   39.1000 C.ar  289  PHE289     -0.0003
    163  CE2      -10.4190   16.4950   37.4470 C.ar  289  PHE289     -0.0003
    164  CZ        -9.2070   15.9060   37.7790 C.ar  289  PHE289     -0.0000
    165  N        -12.8560   11.2720   41.8770 N.3   307  ALA307     -0.1231
    166  CA       -12.9160   11.1060   43.3180 C.3   307  ALA307      0.1694
    167  C        -12.6470   12.4300   44.0260 C.2   307  ALA307      0.2592
    168  O        -11.7820   13.2120   43.6140 O.2   307  ALA307     -0.2718
    169  CB       -11.9350   10.0580   43.7670 C.3   307  ALA307      0.0304
    170  N        -13.4110   12.6670   45.0910 N.am  308  TRP308     -0.1962
    171  CA       -13.2220   13.8030   45.9830 C.3   308  TRP308      0.1771
    172  C        -12.8390   13.2820   47.3580 C.2   308  TRP308      0.2620
    173  O        -13.4100   12.3010   47.8460 O.2   308  TRP308     -0.2715
    174  CB       -14.5140   14.6210   46.1030 C.3   308  TRP308      0.0590
    175  CG       -14.7210   15.5250   44.9540 C.ar  308  TRP308      0.0006
    176  CD1      -14.2800   16.8060   44.8370 C.ar  308  TRP308      0.0946
    177  CD2      -15.3920   15.2190   43.7360 C.ar  308  TRP308      0.0152
    178  NE1      -14.6400   17.3250   43.6290 N.ar  308  TRP308     -0.2442
    179  CE2      -15.3220   16.3680   42.9240 C.ar  308  TRP308      0.0810
    180  CE3      -16.0340   14.0840   43.2430 C.ar  308  TRP308      0.0012
    181  CZ2      -15.8830   16.4210   41.6530 C.ar  308  TRP308      0.0191
    182  CZ3      -16.5920   14.1360   41.9770 C.ar  308  TRP308      0.0001
    183  CH2      -16.5160   15.2970   41.2000 C.ar  308  TRP308      0.0015
    184  N        -11.8820   13.9620   47.9820 N.am  309  GLY309     -0.1940
    185  CA       -11.4760   13.6510   49.3400 C.3   309  GLY309      0.2014
    186  C        -12.0740   14.6470   50.3130 C.2   309  GLY309      0.2639
    187  O        -13.0620   14.3570   50.9920 O.2   309  GLY309     -0.2714
    188  N        -11.4760   15.8330   50.3690 N.am  310  LYS310     -0.1963
    189  CA       -11.8760   16.8460   51.3480 C.3   310  LYS310      0.1728
    190  C        -13.3430   17.2740   51.2230 C.2   310  LYS310      0.2616
    191  O        -14.0010   17.4970   52.2350 O.2   310  LYS310     -0.2715
    192  CB       -10.9440   18.0480   51.2780 C.3   310  LYS310      0.0311
    193  CG        -9.5420   17.7320   51.7800 C.3   310  LYS310      0.0038
    194  CD        -8.6770   18.9810   51.9550 C.3   310  LYS310      0.0206
    195  CE        -8.2360   19.5650   50.6210 C.3   310  LYS310      0.1093
    196  NZ        -7.4390   18.5830   49.8270 N.3   310  LYS310     -0.1314
    197  N        -13.8740   17.3700   50.0070 N.am  311  LEU311     -0.1977
    198  CA       -15.3040   17.6630   49.8620 C.3   311  LEU311      0.1596
    199  C        -16.2430   16.5730   50.4150 C.2   311  LEU311      0.2287
    200  O        -17.3330   16.9040   50.8630 O.2   311  LEU311     -0.2864
    201  CB       -15.6690   18.0460   48.4180 C.3   311  LEU311      0.0297
    202  CG       -15.2320   19.4780   48.0270 C.3   311  LEU311      0.0022
    203  CD1      -15.6360   19.8250   46.5950 C.3   311  LEU311      0.0001
    204  CD2      -15.7740   20.5280   49.0160 C.3   311  LEU311      0.0001
    205  N        -15.4570   14.6940   53.0830 N.3   313  ILE313     -0.1245
    206  CA       -15.3490   14.9050   54.5200 C.3   313  ILE313      0.1561
    207  C        -16.4630   15.8440   54.9860 C.2   313  ILE313      0.2260
    208  O        -17.1870   15.5400   55.9360 O.2   313  ILE313     -0.2867
    209  CB       -13.9860   15.5160   54.9100 C.3   313  ILE313      0.0252
    210  CG1      -12.8530   14.5100   54.6650 C.3   313  ILE313      0.0019
    211  CG2      -14.0060   15.9780   56.3750 C.3   313  ILE313      0.0019
    212  CD1      -11.4540   15.0670   54.9460 C.3   313  ILE313      0.0001
    213  N         -9.9810   16.9480   60.9750 N.3   336  PHE336     -0.1227
    214  CA        -9.7430   15.8080   60.0780 C.3   336  PHE336      0.1736
    215  C         -9.2990   14.5600   60.8440 C.2   336  PHE336      0.2595
    216  O         -9.7220   13.4460   60.5170 O.2   336  PHE336     -0.2718
    217  CB        -8.6950   16.1350   58.9970 C.3   336  PHE336      0.0547
    218  CG        -9.1750   17.0800   57.9100 C.ar  336  PHE336     -0.0202
    219  CD1      -10.4970   17.5140   57.8340 C.ar  336  PHE336     -0.0042
    220  CD2       -8.2880   17.5000   56.9280 C.ar  336  PHE336     -0.0042
    221  CE1      -10.9120   18.3590   56.8270 C.ar  336  PHE336     -0.0003
    222  CE2       -8.7010   18.3520   55.9080 C.ar  336  PHE336     -0.0003
    223  CZ       -10.0190   18.7790   55.8610 C.ar  336  PHE336     -0.0000
    224  N         -8.4570   14.7460   61.8600 N.am  337  TYR337     -0.1976
    225  CA        -7.8690   13.6230   62.5890 C.3   337  TYR337      0.1639
    226  C         -8.2250   13.5590   64.0830 C.2   337  TYR337      0.2290
    227  O         -7.7450   12.6690   64.7850 O.2   337  TYR337     -0.2864
    228  CB        -6.3450   13.6480   62.4380 C.3   337  TYR337      0.0560
    229  CG        -5.8400   13.6250   61.0100 C.ar  337  TYR337     -0.0198
    230  CD1       -5.2800   14.7600   60.4320 C.ar  337  TYR337     -0.0009
    231  CD2       -5.8980   12.4610   60.2460 C.ar  337  TYR337     -0.0009
    232  CE1       -4.7970   14.7430   59.1290 C.ar  337  TYR337      0.0417
    233  CE2       -5.4160   12.4250   58.9370 C.ar  337  TYR337      0.0417
    234  CZ        -4.8690   13.5680   58.3800 C.ar  337  TYR337      0.1957
    235  OH        -4.3880   13.5490   57.0810 O.3   337  TYR337     -0.2866
@<TRIPOS>BOND
     1   163   164   ar
     2   163   161   ar
     3   164   162   ar
     4   161   159   ar
     5   162   160   ar
     6   159   160   ar
     7   159   158    1
     8   107   108    1
     9   129   130    1
    10   108   109    1
    11   108   111    1
    12   109   110    2
    13   158   155    1
    14   183   181   ar
    15   183   182   ar
    16   155   156    1
    17   155   154    1
    18   132   131    2
    19   181   179   ar
    20   130   131    1
    21   130   133    1
    22   140   139    2
    23   156   157    2
    24   165   166    1
    25   182   180   ar
    26   149   148    2
    27   120   121    2
    28   120   119    1
    29   131   137   am
    30   111   112    1
    31   118   119    1
    32   154   148   am
    33   148   147    1
    34   133   134    1
    35   119   122    1
    36   179   178   ar
    37   179   177   ar
    38   137   138    1
    39   112   114   ar
    40   112   113   ar
    41   139   138    1
    42   139   146   am
    43   114   116   ar
    44   150   147    1
    45   150   151    1
    46   180   177   ar
    47   144   143   ar
    48   166   169    1
    49   166   167    1
    50   141   138    1
    51   141   142    1
    52    99    98    1
    53    99   100    2
    54   147   146    1
    55   168   167    2
    56   113   115   ar
    57   178   176   ar
    58    97    98    1
    59   177   175   ar
    60    98   101    1
    61   153   151   am
    62   116   117   ar
    63   167   170   am
    64   134   135    2
    65   134   136   am
    66   151   152    2
    67   122   123    1
    68   142   143    1
    69   143   145   ar
    70   115   117   ar
    71   103   105   ar
    72   103   102   ar
    73   176   175   ar
    74   123   124    1
    75   175   174    1
    76   170   171    1
    77   105   106   ar
    78   101   102    1
    79   102   104   ar
    80   127   126    1
    81   171   174    1
    82   171   172    1
    83   126   125    2
    84   126   128    1
    85   124   125    1
    86   106   104   ar
    87   203   202    1
    88   172   173    2
    89   172   184   am
    90    77    78    1
    91    83    82    2
    92     5     2    1
    93    69    68    1
    94    69    70    2
    95     1     2    1
    96     2     3    1
    97   184   185    1
    98   202   201    1
    99   202   204    1
   100    67    68    1
   101    68    71    1
   102    12    11    1
   103    12     6    1
   104   201   198    1
   105    78    79    1
   106    78    81    1
   107    82    84   am
   108    82    81    1
   109    73    75   ar
   110    73    72   ar
   111    11    10    1
   112    52    50   am
   113     3     6   am
   114     3     4    2
   115   185   186    1
   116     6     7    1
   117    75    76   ar
   118    79    80    2
   119    71    72    1
   120   196   195    1
   121   198   197    1
   122   198   199    1
   123    72    74   ar
   124    88    87    2
   125   197   190   am
   126   186   188   am
   127   186   187    2
   128    10     7    1
   129    49    50    1
   130    49    48    1
   131    50    51    2
   132   188   189    1
   133   199   200    2
   134   195   194    1
   135    76    74   ar
   136    85    86    1
   137     7     8    1
   138    45    48    1
   139    45    44    1
   140    45    46    1
   141    87    86    1
   142   190   189    1
   143   190   191    2
   144   192   189    1
   145   192   193    1
   146     9     8    2
   147    86    89    1
   148     8    13   am
   149    46    47    2
   150   193   194    1
   151    89    90    1
   152    91    90   ar
   153    91    93   ar
   154    20    18    1
   155    18    19    1
   156    18    17    1
   157    90    92   ar
   158    13    14    1
   159    93    95   ar
   160   205   206    1
   161    53    54    1
   162    54    55    1
   163    54    57    1
   164    59    61   ar
   165    59    58   ar
   166    14    17    1
   167    14    15    1
   168    92    94   ar
   169    55    56    2
   170    61    62   ar
   171    95    94   ar
   172    95    96    1
   173    57    58    1
   174    43    40    1
   175    40    39    1
   176    40    41    1
   177   206   209    1
   178   206   207    1
   179    58    60   ar
   180   210   209    1
   181   210   212    1
   182   209   211    1
   183   207   208    2
   184    15    21   am
   185    15    16    2
   186    62    60   ar
   187    62    64   ar
   188    21    22    1
   189    60    63   ar
   190    41    42    2
   191   223   222   ar
   192   223   221   ar
   193   222   220   ar
   194    64    66   ar
   195    26    25    1
   196    63    65   ar
   197   221   219   ar
   198   220   218   ar
   199    22    25    1
   200    22    23    1
   201   235   234    1
   202    25    27    1
   203    66    65   ar
   204    34    33    1
   205    34    35    1
   206    24    23    2
   207   219   218   ar
   208   218   217    1
   209    23    28   am
   210    37    36    1
   211    33    32    1
   212   234   233   ar
   213   234   232   ar
   214    35    36    2
   215    36    38    1
   216    28    29    1
   217   233   231   ar
   218   217   214    1
   219   232   230   ar
   220    32    29    1
   221    29    30    1
   222   214   215    1
   223   214   213    1
   224   231   229   ar
   225   230   229   ar
   226   216   215    2
   227   215   224   am
   228   229   228    1
   229    30    31    2
   230   224   225    1
   231   228   225    1
   232   225   226    1
   233   226   227    2
