@<TRIPOS>MOLECULE
tmp/3gkiA02.pdb
 218 211 0 0 0
SMALL
GASTEIGER

@<TRIPOS>ATOM
      1  N        -34.9240  -32.2490   17.6580 N.3     5  TRP5       -0.1241
      2  CA       -36.2730  -31.7320   17.4520 C.3     5  TRP5        0.1605
      3  C        -37.3120  -32.8250   17.2790 C.2     5  TRP5        0.2264
      4  O        -36.9720  -34.0030   17.1290 O.2     5  TRP5       -0.2867
      5  CB       -36.3140  -30.7200   16.2920 C.3     5  TRP5        0.0550
      6  CG       -35.9730  -31.2260   14.9380 C.ar    5  TRP5        0.0003
      7  CD1      -36.2450  -32.4560   14.4080 C.ar    5  TRP5        0.0946
      8  CD2      -35.4160  -30.4500   13.8860 C.ar    5  TRP5        0.0152
      9  NE1      -35.8310  -32.5060   13.0840 N.ar    5  TRP5       -0.2442
     10  CE2      -35.2930  -31.2890   12.7610 C.ar    5  TRP5        0.0810
     11  CE3      -34.9530  -29.1190   13.8060 C.ar    5  TRP5        0.0012
     12  CZ2      -34.7770  -30.8340   11.5430 C.ar    5  TRP5        0.0191
     13  CZ3      -34.4170  -28.6770   12.6060 C.ar    5  TRP5        0.0001
     14  CH2      -34.3420  -29.5310   11.4910 C.ar    5  TRP5        0.0015
     15  N        -43.6190  -29.8370   14.4840 N.3     8  GLU8       -0.1245
     16  CA       -43.5270  -28.4300   14.0820 C.3     8  GLU8        0.1567
     17  C        -44.0750  -27.4950   15.1290 C.2     8  GLU8        0.2260
     18  O        -45.0290  -27.8300   15.8310 O.2     8  GLU8       -0.2867
     19  CB       -44.2560  -28.2000   12.7740 C.3     8  GLU8        0.0388
     20  CG       -43.5320  -28.8900   11.6370 C.3     8  GLU8        0.1160
     21  CD       -44.0880  -28.5550   10.2760 C.2     8  GLU8        0.3649
     22  OE1      -43.5030  -29.0850    9.3010 O.co2   8  GLU8       -0.2457
     23  OE2      -45.1020  -27.8120   10.1840 O.co2   8  GLU8       -0.2457
     24  N        -42.4130  -23.0900    8.8180 N.3    17  ARG17      -0.1245
     25  CA       -42.4290  -23.3340   10.2340 C.3    17  ARG17       0.1563
     26  C        -41.0540  -23.7000   10.7620 C.2    17  ARG17       0.2260
     27  O        -40.2440  -24.3470   10.0820 O.2    17  ARG17      -0.2867
     28  CB       -43.3520  -24.5120   10.5520 C.3    17  ARG17       0.0307
     29  CG       -44.7990  -24.3480   10.0770 C.3    17  ARG17       0.0489
     30  CD       -45.6870  -24.1450   11.2480 C.3    17  ARG17       0.2205
     31  NE       -46.9990  -23.6140   10.8730 N.pl3  17  ARG17      -0.0865
     32  CZ       -47.8030  -23.0160   11.7210 C.cat  17  ARG17       0.5346
     33  NH1      -47.4430  -22.8910   13.0050 N.pl3  17  ARG17       0.1354
     34  NH2      -48.9710  -22.5250   11.2880 N.pl3  17  ARG17       0.1354
     35  N        -39.2430  -26.1030   13.6630 N.3    19  ASN19      -0.1240
     36  CA       -39.5270  -27.3270   14.3960 C.3    19  ASN19       0.1653
     37  C        -39.3910  -27.1110   15.9230 C.2    19  ASN19       0.2266
     38  O        -38.7050  -26.1920   16.3730 O.2    19  ASN19      -0.2867
     39  CB       -38.5780  -28.4270   13.9110 C.3    19  ASN19       0.1155
     40  CG       -38.8090  -28.7960   12.4580 C.2    19  ASN19       0.2627
     41  OD1      -39.9500  -28.8860   12.0120 O.2    19  ASN19      -0.2716
     42  ND2      -37.7360  -28.9830   11.7100 N.am   19  ASN19      -0.0877
     43  N        -43.7860  -33.2570    9.8540 N.3    57  GLN57      -0.1245
     44  CA       -42.4980  -32.8890    9.2950 C.3    57  GLN57       0.1566
     45  C        -42.2270  -33.5970    7.9810 C.2    57  GLN57       0.2260
     46  O        -41.6280  -33.0170    7.0690 O.2    57  GLN57      -0.2867
     47  CB       -41.3850  -33.2330   10.2820 C.3    57  GLN57       0.0367
     48  CG       -41.3090  -32.2670   11.4310 C.3    57  GLN57       0.0905
     49  CD       -40.2890  -32.7200   12.4390 C.2    57  GLN57       0.2608
     50  OE1      -40.5970  -33.5240   13.3000 O.2    57  GLN57      -0.2717
     51  NE2      -39.0600  -32.2240   12.3150 N.am   57  GLN57      -0.0878
     52  N        -44.2230  -31.8670    5.3580 N.3    60  THR60      -0.1203
     53  CA       -43.5630  -30.6170    5.0250 C.3    60  THR60       0.1994
     54  C        -42.3320  -30.8860    4.1400 C.2    60  THR60       0.2617
     55  O        -42.1030  -30.1690    3.1560 O.2    60  THR60      -0.2717
     56  CB       -43.2080  -29.8500    6.3250 C.3    60  THR60       0.1784
     57  OG1      -44.4300  -29.4800    6.9880 O.3    60  THR60      -0.2211
     58  CG2      -42.3820  -28.6010    6.0440 C.3    60  THR60       0.0376
     59  N        -41.5390  -31.9070    4.4790 N.am   61  LEU61      -0.1979
     60  CA       -40.3810  -32.2700    3.6450 C.3    61  LEU61       0.1596
     61  C        -40.8180  -32.5390    2.1940 C.2    61  LEU61       0.2287
     62  O        -40.1890  -32.0520    1.2570 O.2    61  LEU61      -0.2864
     63  CB       -39.6800  -33.5070    4.2310 C.3    61  LEU61       0.0297
     64  CG       -38.5120  -34.1040    3.4380 C.3    61  LEU61       0.0022
     65  CD1      -37.4540  -33.0320    3.1820 C.3    61  LEU61       0.0001
     66  CD2      -37.9360  -35.3390    4.1930 C.3    61  LEU61       0.0001
     67  N        -41.6540  -29.3780    0.4510 N.3    64  ASN64      -0.1225
     68  CA       -40.4850  -28.5510    0.2010 C.3    64  ASN64       0.1785
     69  C        -39.5170  -29.0830   -0.8430 C.2    64  ASN64       0.2597
     70  O        -38.6310  -28.3620   -1.2760 O.2    64  ASN64      -0.2718
     71  CB       -39.7790  -28.1960    1.4910 C.3    64  ASN64       0.1169
     72  CG       -40.3940  -26.9960    2.1530 C.2    64  ASN64       0.2627
     73  OD1      -40.7400  -26.0200    1.4970 O.2    64  ASN64      -0.2716
     74  ND2      -40.5330  -27.0570    3.4580 N.am   64  ASN64      -0.0877
     75  N        -39.7100  -30.3280   -1.2560 N.am   65  LEU65      -0.1980
     76  CA       -38.8150  -30.9920   -2.2000 C.3    65  LEU65       0.1596
     77  C        -39.1900  -30.7040   -3.6450 C.2    65  LEU65       0.2287
     78  O        -38.4900  -31.1320   -4.5570 O.2    65  LEU65      -0.2864
     79  CB       -38.8330  -32.5070   -1.9630 C.3    65  LEU65       0.0297
     80  CG       -37.6670  -33.1340   -1.1830 C.3    65  LEU65       0.0022
     81  CD1      -36.7830  -32.1330   -0.4250 C.3    65  LEU65       0.0001
     82  CD2      -38.1860  -34.2170   -0.2560 C.3    65  LEU65       0.0001
     83  N        -39.0350  -28.0250   -5.5820 N.3    67  LEU67      -0.1231
     84  CA       -38.1120  -27.2920   -6.4750 C.3    67  LEU67       0.1678
     85  C        -36.8800  -28.1080   -6.8310 C.2    67  LEU67       0.2434
     86  O        -36.5080  -28.1490   -8.0050 O.2    67  LEU67      -0.2733
     87  CB       -37.7760  -25.8760   -5.9870 C.3    67  LEU67       0.0284
     88  CG       -38.9440  -24.8870   -6.1810 C.3    67  LEU67       0.0019
     89  CD1      -38.5710  -23.4580   -5.7740 C.3    67  LEU67       0.0001
     90  CD2      -39.4860  -24.9030   -7.6160 C.3    67  LEU67       0.0001
     91  N        -36.2520  -28.7860   -5.8440 N.am   68  PRO68      -0.2729
     92  CA       -35.2120  -29.7480   -6.2580 C.3    68  PRO68       0.1401
     93  C        -35.7390  -30.7400   -7.2710 C.2    68  PRO68       0.2269
     94  O        -35.0580  -31.0530   -8.2480 O.2    68  PRO68      -0.2865
     95  CB       -34.8560  -30.4710   -4.9590 C.3    68  PRO68       0.0296
     96  CG       -35.1620  -29.4920   -3.9000 C.3    68  PRO68       0.0237
     97  CD       -36.3490  -28.6870   -4.3760 C.3    68  PRO68       0.0939
     98  N        -31.5490  -34.4600    3.3240 N.3    86  PHE86      -0.1241
     99  CA       -32.6930  -33.9380    4.0340 C.3    86  PHE86       0.1605
    100  C        -33.3670  -34.9320    4.9610 C.2    86  PHE86       0.2264
    101  O        -33.8110  -34.5260    6.0110 O.2    86  PHE86      -0.2867
    102  CB       -33.6790  -33.3380    3.0550 C.3    86  PHE86       0.0534
    103  CG       -33.1710  -32.0350    2.4910 C.ar   86  PHE86      -0.0203
    104  CD1      -33.2010  -30.8820    3.2710 C.ar   86  PHE86      -0.0042
    105  CD2      -32.5920  -31.9770    1.2550 C.ar   86  PHE86      -0.0042
    106  CE1      -32.6990  -29.6760    2.7640 C.ar   86  PHE86      -0.0003
    107  CE2      -32.0990  -30.7610    0.7370 C.ar   86  PHE86      -0.0003
    108  CZ       -32.1570  -29.6380    1.4820 C.ar   86  PHE86      -0.0000
    109  N        -31.3060  -35.1420    8.2250 N.3    89  LEU89      -0.1231
    110  CA       -31.5350  -33.8970    8.9780 C.3    89  LEU89       0.1693
    111  C        -32.8900  -33.9480    9.6650 C.2    89  LEU89       0.2592
    112  O        -33.0180  -33.6170   10.8720 O.2    89  LEU89      -0.2718
    113  CB       -31.4750  -32.6930    7.9920 C.3    89  LEU89       0.0284
    114  CG       -32.0270  -31.3440    8.4880 C.3    89  LEU89       0.0019
    115  CD1      -31.2370  -30.8000    9.6640 C.3    89  LEU89       0.0001
    116  CD2      -32.0130  -30.3210    7.3420 C.3    89  LEU89       0.0001
    117  N        -33.9040  -34.3750    8.9130 N.am   90  THR90      -0.1953
    118  CA       -35.2660  -34.2680    9.3720 C.3    90  THR90       0.1897
    119  C        -35.5920  -35.3200   10.4260 C.2    90  THR90       0.2313
    120  O        -36.2220  -34.9880   11.4550 O.2    90  THR90      -0.2863
    121  CB       -36.2720  -34.3470    8.2100 C.3    90  THR90       0.1794
    122  OG1      -35.9490  -33.3240    7.2600 O.3    90  THR90      -0.2208
    123  CG2      -37.7180  -34.1320    8.6870 C.3    90  THR90       0.0378
    124  N        -29.6180  -23.4750  -11.0830 N.3   153  LEU153     -0.1231
    125  CA       -30.9420  -23.0000  -10.6810 C.3   153  LEU153      0.1693
    126  C        -31.2310  -23.2850   -9.2170 C.2   153  LEU153      0.2591
    127  O        -32.2060  -22.7800   -8.6480 O.2   153  LEU153     -0.2718
    128  CB       -32.0260  -23.6010  -11.5720 C.3   153  LEU153      0.0284
    129  CG       -31.8010  -23.1870  -13.0330 C.3   153  LEU153      0.0019
    130  CD1      -32.4160  -24.1570  -14.0020 C.3   153  LEU153      0.0001
    131  CD2      -32.2470  -21.7550  -13.3150 C.3   153  LEU153      0.0001
    132  N        -30.3990  -24.1210   -8.6050 N.am  154  LEU154     -0.1980
    133  CA       -30.5650  -24.4450   -7.1930 C.3   154  LEU154      0.1596
    134  C        -29.4550  -23.9530   -6.2690 C.2   154  LEU154      0.2287
    135  O        -29.4090  -24.3330   -5.1100 O.2   154  LEU154     -0.2864
    136  CB       -30.6930  -25.9640   -7.0420 C.3   154  LEU154      0.0297
    137  CG       -31.9350  -26.5540   -7.6950 C.3   154  LEU154      0.0022
    138  CD1      -31.7260  -28.0210   -7.9130 C.3   154  LEU154      0.0001
    139  CD2      -33.1340  -26.3320   -6.7950 C.3   154  LEU154      0.0001
    140  N        -26.2160  -22.7640    0.3620 N.3   170  TYR170     -0.1227
    141  CA       -27.3320  -22.0060   -0.2180 C.3   170  TYR170      0.1736
    142  C        -28.7070  -22.6280    0.0430 C.2   170  TYR170      0.2595
    143  O        -29.6670  -21.9160    0.3950 O.2   170  TYR170     -0.2718
    144  CB       -27.1380  -21.8370   -1.7120 C.3   170  TYR170      0.0548
    145  CG       -28.3140  -21.1520   -2.3620 C.ar  170  TYR170     -0.0200
    146  CD1      -28.5110  -19.7840   -2.2320 C.ar  170  TYR170     -0.0009
    147  CD2      -29.2480  -21.8900   -3.0640 C.ar  170  TYR170     -0.0009
    148  CE1      -29.6300  -19.1540   -2.8510 C.ar  170  TYR170      0.0417
    149  CE2      -30.3340  -21.2890   -3.6600 C.ar  170  TYR170      0.0417
    150  CZ       -30.5200  -19.9450   -3.5490 C.ar  170  TYR170      0.1957
    151  OH       -31.6300  -19.4220   -4.1670 O.3   170  TYR170     -0.2866
    152  N        -28.8270  -23.9330   -0.1580 N.am  171  MET171     -0.1965
    153  CA       -30.1010  -24.6030   -0.0010 C.3   171  MET171      0.1736
    154  C        -30.5690  -24.5120    1.4310 C.2   171  MET171      0.2616
    155  O        -31.7730  -24.4920    1.6880 O.2   171  MET171     -0.2715
    156  CB       -30.0050  -26.0710   -0.4050 C.3   171  MET171      0.0427
    157  CG       -29.9840  -26.2650   -1.9030 C.3   171  MET171      0.0599
    158  SD       -30.1840  -28.0160   -2.3180 S.3   171  MET171     -0.1393
    159  CE       -28.6640  -28.6660   -1.5720 C.3   171  MET171      0.0692
    160  N        -29.6080  -24.4790    2.3580 N.am  172  PHE172     -0.1974
    161  CA       -29.9060  -24.4130    3.7690 C.3   172  PHE172      0.1639
    162  C        -30.1130  -22.9970    4.3200 C.2   172  PHE172      0.2290
    163  O        -30.2830  -22.8410    5.5300 O.2   172  PHE172     -0.2864
    164  CB       -28.7340  -25.0510    4.5500 C.3   172  PHE172      0.0560
    165  CG       -28.6930  -26.5570    4.5160 C.ar  172  PHE172     -0.0200
    166  CD1      -29.7450  -27.3140    4.0460 C.ar  172  PHE172     -0.0042
    167  CD2      -27.5760  -27.2190    5.0160 C.ar  172  PHE172     -0.0042
    168  CE1      -29.6720  -28.7150    4.0570 C.ar  172  PHE172     -0.0003
    169  CE2      -27.5060  -28.6020    5.0310 C.ar  172  PHE172     -0.0003
    170  CZ       -28.5610  -29.3420    4.5530 C.ar  172  PHE172     -0.0000
    171  N        -33.0210  -17.8880    0.8980 N.3   176  ASN176     -0.1240
    172  CA       -33.4180  -18.4080   -0.4290 C.3   176  ASN176      0.1653
    173  C        -34.9320  -18.4610   -0.6490 C.2   176  ASN176      0.2266
    174  O        -35.3920  -18.8210   -1.7370 O.2   176  ASN176     -0.2867
    175  CB       -32.7620  -19.7660   -0.7430 C.3   176  ASN176      0.1155
    176  CG       -33.3590  -20.9280    0.0730 C.2   176  ASN176      0.2627
    177  OD1      -34.5200  -20.8810    0.4920 O.2   176  ASN176     -0.2716
    178  ND2      -32.5580  -21.9620    0.3150 N.am  176  ASN176     -0.0877
    179  N        -37.1140  -20.4620    0.3960 N.3   178  GLN178     -0.1231
    180  CA       -37.6740  -21.8170    0.3890 C.3   178  GLN178      0.1698
    181  C        -37.4360  -22.5270    1.7250 C.2   178  GLN178      0.2592
    182  O        -38.3520  -23.1130    2.3280 O.2   178  GLN178     -0.2718
    183  CB       -37.0810  -22.6280   -0.7660 C.3   178  GLN178      0.0381
    184  CG       -37.7450  -23.9790   -0.9670 C.3   178  GLN178      0.0905
    185  CD       -39.2220  -23.8590   -1.3850 C.2   178  GLN178      0.2608
    186  OE1      -39.6250  -22.8940   -2.0350 O.2   178  GLN178     -0.2717
    187  NE2      -40.0270  -24.8500   -1.0070 N.am  178  GLN178     -0.0878
    188  N        -36.2100  -22.4520    2.1910 N.am  179  ALA179     -0.1966
    189  CA       -35.8600  -23.0040    3.4860 C.3   179  ALA179      0.1713
    190  C        -36.5890  -22.2200    4.5700 C.2   179  ALA179      0.2458
    191  O        -36.5300  -21.0110    4.6110 O.2   179  ALA179     -0.2730
    192  CB       -34.3800  -22.9300    3.6750 C.3   179  ALA179      0.0333
    193  N        -37.2850  -22.9190    5.4700 N.am  180  PRO180     -0.2716
    194  CA       -38.0290  -22.2120    6.4990 C.3   180  PRO180      0.1536
    195  C        -37.1370  -21.5790    7.5620 C.2   180  PRO180      0.2598
    196  O        -37.5520  -20.6180    8.2260 O.2   180  PRO180     -0.2715
    197  CB       -38.8980  -23.3060    7.1110 C.3   180  PRO180      0.0310
    198  CG       -38.2270  -24.5620    6.8130 C.3   180  PRO180      0.0237
    199  CD       -37.3600  -24.3840    5.6160 C.3   180  PRO180      0.0939
    200  N        -35.9260  -22.1170    7.7300 N.am  181  PHE181     -0.1974
    201  CA       -34.9820  -21.6370    8.7410 C.3   181  PHE181      0.1639
    202  C        -33.5710  -22.0130    8.3050 C.2   181  PHE181      0.2290
    203  O        -33.3640  -22.9430    7.5160 O.2   181  PHE181     -0.2864
    204  CB       -35.2710  -22.2290   10.1410 C.3   181  PHE181      0.0560
    205  CG       -35.4040  -23.7320   10.1470 C.ar  181  PHE181     -0.0200
    206  CD1      -34.2720  -24.5540   10.2460 C.ar  181  PHE181     -0.0042
    207  CD2      -36.6630  -24.3280   10.0340 C.ar  181  PHE181     -0.0042
    208  CE1      -34.3990  -25.9380   10.2170 C.ar  181  PHE181     -0.0003
    209  CE2      -36.7970  -25.6980    9.9790 C.ar  181  PHE181     -0.0003
    210  CZ       -35.6670  -26.5160   10.0800 C.ar  181  PHE181     -0.0000
    211  N        -29.8540  -23.4840    8.2960 N.3   183  ILE183     -0.1245
    212  CA       -29.0170  -24.5370    8.8300 C.3   183  ILE183      0.1561
    213  C        -27.6200  -24.1620    8.3760 C.2   183  ILE183      0.2260
    214  O        -27.3950  -23.9090    7.1960 O.2   183  ILE183     -0.2867
    215  CB       -29.3980  -25.9310    8.2320 C.3   183  ILE183      0.0252
    216  CG1      -30.8710  -26.3080    8.5100 C.3   183  ILE183      0.0019
    217  CG2      -28.4660  -27.0250    8.7740 C.3   183  ILE183      0.0019
    218  CD1      -31.7610  -26.3090    7.2580 C.3   183  ILE183      0.0001
@<TRIPOS>BOND
     1   130   129    1
     2   131   129    1
     3   129   128    1
     4   128   125    1
     5   124   125    1
     6   125   126    1
     7   126   127    2
     8   126   132   am
     9   132   133    1
    10    94    93    2
    11    86    85    2
    12   138   137    1
    13   137   136    1
    14   137   139    1
    15    90    88    1
    16    93    92    1
    17   133   136    1
    18   133   134    1
    19    85    84    1
    20    85    91   am
    21    84    87    1
    22    84    83    1
    23   134   135    2
    24    92    91    1
    25    92    95    1
    26    88    87    1
    27    88    89    1
    28    91    97    1
    29    95    96    1
    30    78    77    2
    31    97    96    1
    32   151   150    1
    33   149   150   ar
    34   149   147   ar
    35    77    76    1
    36   150   148   ar
    37   147   145   ar
    38   148   146   ar
    39   145   146   ar
    40   145   144    1
    41   158   157    1
    42   158   159    1
    43    76    79    1
    44    76    75    1
    45   186   185    2
    46    79    80    1
    47   157   156    1
    48   174   173    2
    49   144   141    1
    50   185   187   am
    51   185   184    1
    52    70    69    2
    53    75    69   am
    54    80    81    1
    55    80    82    1
    56   184   183    1
    57    69    68    1
    58   183   180    1
    59   175   172    1
    60   175   176    1
    61   173   172    1
    62   172   171    1
    63   156   153    1
    64   141   142    1
    65   141   140    1
    66   152   153    1
    67   152   142   am
    68   153   154    1
    69   142   143    2
    70   176   178   am
    71   176   177    2
    72    68    67    1
    73    68    71    1
    74   180   179    1
    75   180   181    1
    76   107   105   ar
    77   107   108   ar
    78   105   103   ar
    79    62    61    2
    80   154   155    2
    81   154   160   am
    82   108   106   ar
    83    71    72    1
    84    73    72    2
    85   181   188   am
    86   181   182    2
    87    72    74   am
    88   188   189    1
    89    61    60    1
    90   160   161    1
    91   103   102    1
    92   103   104   ar
    93   106   104   ar
    94   102    99    1
    95    55    54    2
    96    65    64    1
    97    98    99    1
    98    64    66    1
    99    64    63    1
   100   189   192    1
   101   189   190    1
   102    60    63    1
   103    60    59    1
   104   161   162    1
   105   161   164    1
   106    99   100    1
   107   166   168   ar
   108   166   165   ar
   109   168   170   ar
   110    54    59   am
   111    54    53    1
   112   162   163    2
   113   165   164    1
   114   165   167   ar
   115   170   169   ar
   116   190   191    2
   117   190   193   am
   118   100   101    2
   119   167   169   ar
   120    53    52    1
   121    53    56    1
   122   193   199    1
   123   193   194    1
   124   199   198    1
   125    58    56    1
   126    56    57    1
   127   194   197    1
   128   194   195    1
   129   198   197    1
   130    46    45    2
   131   214   213    2
   132   218   216    1
   133   122   121    1
   134   116   114    1
   135   203   202    2
   136   195   200   am
   137   195   196    2
   138   200   201    1
   139    45    44    1
   140   113   114    1
   141   113   110    1
   142   121   123    1
   143   121   118    1
   144   109   110    1
   145   215   216    1
   146   215   217    1
   147   215   212    1
   148   211   212    1
   149   202   201    1
   150   213   212    1
   151   114   115    1
   152   201   204    1
   153    24    25    1
   154   117   118    1
   155   117   111   am
   156   110   111    1
   157    44    43    1
   158    44    47    1
   159    22    21   ar
   160   118   119    1
   161   111   112    2
   162   209   207   ar
   163   209   210   ar
   164   207   205   ar
   165    29    28    1
   166    29    30    1
   167   210   208   ar
   168    27    26    2
   169   204   205    1
   170   205   206   ar
   171    23    21   ar
   172   208   206   ar
   173    25    28    1
   174    25    26    1
   175    21    20    1
   176    47    48    1
   177   119   120    2
   178    31    30    1
   179    31    32    2
   180    34    32    1
   181    48    49    1
   182    14    12   ar
   183    14    13   ar
   184    12    10   ar
   185    20    19    1
   186    42    40   am
   187    32    33    1
   188    41    40    2
   189    51    49   am
   190    49    50    2
   191    40    39    1
   192    13    11   ar
   193    10     9   ar
   194    10     8   ar
   195    19    16    1
   196     9     7   ar
   197    35    36    1
   198    11     8   ar
   199     8     6   ar
   200    39    36    1
   201    16    15    1
   202    16    17    1
   203    36    37    1
   204     7     6   ar
   205     6     5    1
   206    17    18    2
   207    37    38    2
   208     5     2    1
   209     4     3    2
   210     3     2    1
   211     2     1    1
