@<TRIPOS>MOLECULE
tmp/3gkiA00.pdb
 116 117 0 0 0
SMALL
GASTEIGER

@<TRIPOS>ATOM
      1  N        -37.9210  -41.5780    2.6150 N.3    41  CYS41      -0.1221
      2  CA       -36.7810  -42.0100    3.4060 C.3    41  CYS41       0.1794
      3  C        -36.9060  -43.4980    3.7020 C.2    41  CYS41       0.2443
      4  O        -36.9000  -43.8810    4.8660 O.2    41  CYS41      -0.2733
      5  CB       -36.6970  -41.2230    4.7260 C.3    41  CYS41       0.0970
      6  SG       -36.8500  -39.3930    4.5890 S.3    41  CYS41      -0.0800
      7  N        -36.9920  -44.3440    2.6500 N.am   42  PRO42      -0.2718
      8  CA       -37.2310  -45.7730    2.8320 C.3    42  PRO42       0.1535
      9  C        -36.1290  -46.4560    3.6340 C.2    42  PRO42       0.2599
     10  O        -36.3520  -47.5220    4.2250 O.2    42  PRO42      -0.2715
     11  CB       -37.2560  -46.3230    1.3980 C.3    42  PRO42       0.0310
     12  CG       -36.5980  -45.3060    0.5760 C.3    42  PRO42       0.0237
     13  CD       -36.7920  -43.9900    1.2330 C.3    42  PRO42       0.0939
     14  N        -34.9480  -45.8370    3.6650 N.am   43  GLY43      -0.1941
     15  CA       -33.8370  -46.3570    4.4740 C.3    43  GLY43       0.2014
     16  C        -34.1730  -46.4410    5.9530 C.2    43  GLY43       0.2639
     17  O        -33.5880  -47.2350    6.6860 O.2    43  GLY43      -0.2714
     18  N        -35.1080  -45.6100    6.3970 N.am   44  PHE44      -0.1959
     19  CA       -35.5500  -45.6140    7.7900 C.3    44  PHE44       0.1771
     20  C        -36.7580  -46.5060    8.0160 C.2    44  PHE44       0.2620
     21  O        -37.2130  -46.6580    9.1680 O.2    44  PHE44      -0.2715
     22  CB       -35.9570  -44.1940    8.2090 C.3    44  PHE44       0.0574
     23  CG       -34.8230  -43.2040    8.2900 C.ar   44  PHE44      -0.0200
     24  CD1      -35.0510  -41.8750    7.9830 C.ar   44  PHE44      -0.0042
     25  CD2      -33.5510  -43.5790    8.7030 C.ar   44  PHE44      -0.0042
     26  CE1      -34.0270  -40.9230    8.0640 C.ar   44  PHE44      -0.0003
     27  CE2      -32.5220  -42.6280    8.7870 C.ar   44  PHE44      -0.0003
     28  CZ       -32.7810  -41.2990    8.4610 C.ar   44  PHE44      -0.0000
     29  N        -37.3060  -47.0680    6.9360 N.am   45  PHE45      -0.1960
     30  CA       -38.5620  -47.8040    7.0370 C.3    45  PHE45       0.1771
     31  C        -38.3430  -49.2620    7.4490 C.2    45  PHE45       0.2619
     32  O        -38.4450  -50.1710    6.6310 O.2    45  PHE45      -0.2715
     33  CB       -39.3600  -47.6920    5.7290 C.3    45  PHE45       0.0574
     34  CG       -40.7410  -48.2640    5.8130 C.ar   45  PHE45      -0.0200
     35  CD1      -41.1410  -49.2810    4.9500 C.ar   45  PHE45      -0.0042
     36  CD2      -41.6390  -47.8100    6.7830 C.ar   45  PHE45      -0.0042
     37  CE1      -42.4240  -49.8450    5.0390 C.ar   45  PHE45      -0.0003
     38  CE2      -42.9230  -48.3530    6.8780 C.ar   45  PHE45      -0.0003
     39  CZ       -43.3230  -49.3670    5.9990 C.ar   45  PHE45      -0.0000
     40  N        -38.0300  -49.4680    8.7250 N.am   46  PHE46      -0.1974
     41  CA       -37.8430  -50.8060    9.2780 C.3    46  PHE46       0.1639
     42  C        -38.0810  -50.7740   10.7950 C.2    46  PHE46       0.2290
     43  O        -38.1030  -49.7020   11.4140 O.2    46  PHE46      -0.2864
     44  CB       -36.4470  -51.3730    8.9210 C.3    46  PHE46       0.0560
     45  CG       -35.2970  -50.6380    9.5640 C.ar   46  PHE46      -0.0200
     46  CD1      -34.7790  -51.0640   10.7860 C.ar   46  PHE46      -0.0042
     47  CD2      -34.7230  -49.5260    8.9500 C.ar   46  PHE46      -0.0042
     48  CE1      -33.7190  -50.3810   11.3930 C.ar   46  PHE46      -0.0003
     49  CE2      -33.6650  -48.8350    9.5540 C.ar   46  PHE46      -0.0003
     50  CZ       -33.1640  -49.2690   10.7760 C.ar   46  PHE46      -0.0000
     51  N        -31.6580  -38.6980   -5.2440 N.3    80  TYR80      -0.1241
     52  CA       -31.6030  -39.6430   -4.1240 C.3    80  TYR80       0.1605
     53  C        -30.6610  -39.1870   -2.9840 C.2    80  TYR80       0.2264
     54  O        -31.0590  -39.2000   -1.8200 O.2    80  TYR80      -0.2867
     55  CB       -31.1770  -41.0180   -4.6450 C.3    80  TYR80       0.0534
     56  CG       -31.0000  -42.1000   -3.6090 C.ar   80  TYR80      -0.0201
     57  CD1      -32.1020  -42.6710   -2.9870 C.ar   80  TYR80      -0.0009
     58  CD2      -29.7390  -42.5630   -3.2640 C.ar   80  TYR80      -0.0009
     59  CE1      -31.9590  -43.6880   -2.0630 C.ar   80  TYR80       0.0417
     60  CE2      -29.5830  -43.5940   -2.3310 C.ar   80  TYR80       0.0417
     61  CZ       -30.7040  -44.1470   -1.7450 C.ar   80  TYR80       0.1957
     62  OH       -30.5970  -45.1650   -0.8120 O.3    80  TYR80      -0.2866
     63  N        -31.5710  -37.8680    0.7870 N.3    84  ASN84      -0.1240
     64  CA       -30.9810  -38.4620    1.9940 C.3    84  ASN84       0.1653
     65  C        -30.3790  -37.4170    2.9140 C.2    84  ASN84       0.2266
     66  O        -30.4630  -37.5410    4.1330 O.2    84  ASN84      -0.2867
     67  CB       -29.9620  -39.5520    1.6340 C.3    84  ASN84       0.1155
     68  CG       -30.6510  -40.8190    1.0770 C.2    84  ASN84       0.2627
     69  OD1      -31.8670  -40.9450    1.1620 O.2    84  ASN84      -0.2716
     70  ND2      -29.8740  -41.7310    0.4980 N.am   84  ASN84      -0.0877
     71  N        -33.4440  -36.2050    4.5760 N.3    87  CYS87      -0.1221
     72  CA       -34.0150  -37.2560    5.4540 C.3    87  CYS87       0.1808
     73  C        -33.2440  -37.3850    6.7610 C.2    87  CYS87       0.2601
     74  O        -33.8370  -37.5110    7.8210 O.2    87  CYS87      -0.2717
     75  CB       -33.9620  -38.6130    4.7900 C.3    87  CYS87       0.0970
     76  SG       -35.1910  -38.8160    3.5310 S.3    87  CYS87      -0.0800
     77  N        -31.9210  -37.3880    6.6760 N.am   88  GLU88      -0.1979
     78  CA       -31.0930  -37.5220    7.8840 C.3    88  GLU88       0.1602
     79  C        -31.2920  -36.3290    8.8060 C.2    88  GLU88       0.2287
     80  O        -31.4450  -36.4690   10.0120 O.2    88  GLU88      -0.2864
     81  CB       -29.6160  -37.6600    7.4940 C.3    88  GLU88       0.0415
     82  CG       -29.2760  -39.0270    6.9000 C.3    88  GLU88       0.1163
     83  CD       -29.2940  -40.1220    7.9450 C.2    88  GLU88       0.3649
     84  OE1      -28.8550  -39.8850    9.0990 O.co2  88  GLU88      -0.2457
     85  OE2      -29.7740  -41.2240    7.6230 O.co2  88  GLU88      -0.2457
     86  N        -32.7100  -41.0440   13.7760 N.3    93  PRO93      -0.2102
     87  CA       -32.7770  -41.3270   15.1990 C.3    93  PRO93       0.1504
     88  C        -31.4520  -41.0140   15.8890 C.2    93  PRO93       0.2575
     89  O        -31.3770  -41.0960   17.1120 O.2    93  PRO93      -0.2718
     90  CB       -33.0880  -42.8250   15.2520 C.3    93  PRO93       0.0282
     91  CG       -32.5570  -43.3810   13.9630 C.3    93  PRO93       0.0208
     92  CD       -32.7120  -42.2670   12.9600 C.3    93  PRO93       0.0893
     93  N        -30.4120  -40.6840   15.1270 N.am   94  ARG94      -0.1980
     94  CA       -29.1670  -40.2260   15.7590 C.3    94  ARG94       0.1597
     95  C        -28.7840  -38.7870   15.4560 C.2    94  ARG94       0.2287
     96  O        -27.5930  -38.4480   15.4260 O.2    94  ARG94      -0.2864
     97  CB       -27.9880  -41.1640   15.5250 C.3    94  ARG94       0.0334
     98  CG       -27.8440  -41.7640   14.1410 C.3    94  ARG94       0.0492
     99  CD       -27.1840  -43.1510   14.2960 C.3    94  ARG94       0.2205
    100  NE       -27.1370  -43.5580   15.7060 N.pl3  94  ARG94      -0.0865
    101  CZ       -26.9140  -44.8010   16.1480 C.cat  94  ARG94       0.5346
    102  NH1      -26.7270  -45.8060   15.2900 N.pl3  94  ARG94       0.1354
    103  NH2      -26.8810  -45.0430   17.4600 N.pl3  94  ARG94       0.1354
    104  N        -23.5320  -40.8500    5.1940 N.3   200  ASN200     -0.1225
    105  CA       -24.2540  -41.9210    4.5350 C.3   200  ASN200      0.1785
    106  C        -23.6590  -42.3100    3.1950 C.2   200  ASN200      0.2597
    107  O        -23.0280  -41.4820    2.5230 O.2   200  ASN200     -0.2718
    108  CB       -25.7220  -41.5350    4.3600 C.3   200  ASN200      0.1169
    109  CG       -26.5770  -42.0900    5.4620 C.2   200  ASN200      0.2627
    110  OD1      -26.4180  -41.7140    6.6350 O.2   200  ASN200     -0.2716
    111  ND2      -27.4760  -43.0120    5.1010 N.am  200  ASN200     -0.0877
    112  N        -23.8640  -43.5730    2.8160 N.am  201  ALA201     -0.1979
    113  CA       -23.4820  -44.0600    1.5130 C.3   201  ALA201      0.1597
    114  C        -24.2620  -43.2810    0.4710 C.2   201  ALA201      0.2287
    115  O        -25.4020  -42.8590    0.7160 O.2   201  ALA201     -0.2864
    116  CB       -23.7710  -45.5630    1.3840 C.3   201  ALA201      0.0319
@<TRIPOS>BOND
     1    51    52    1
     2    55    52    1
     3    55    56    1
     4    52    53    1
     5    56    58   ar
     6    56    57   ar
     7    58    60   ar
     8    57    59   ar
     9    53    54    2
    10    60    61   ar
    11    59    61   ar
    12    61    62    1
    13   114   115    2
    14   114   113    1
    15    70    68   am
    16    12    13    1
    17    12    11    1
    18    63    64    1
    19    68    69    2
    20    68    67    1
    21    13     7    1
    22   116   113    1
    23    11     8    1
    24   113   112    1
    25    67    64    1
    26    64    65    1
    27   107   106    2
    28     1     2    1
    29     7     8    1
    30     7     3   am
    31   112   106   am
    32     8     9    1
    33    65    66    2
    34   106   105    1
    35     2     3    1
    36     2     5    1
    37    76     6    1
    38    76    75    1
    39     9    14   am
    40     9    10    2
    41    14    15    1
    42     3     4    2
    43   108   105    1
    44   108   109    1
    45    15    16    1
    46   105   104    1
    47    71    72    1
    48     6     5    1
    49    75    72    1
    50    35    37   ar
    51    35    34   ar
    52    37    39   ar
    53   111   109   am
    54    72    73    1
    55   109   110    2
    56    33    34    1
    57    33    30    1
    58    34    36   ar
    59    16    18   am
    60    16    17    2
    61    39    38   ar
    62    18    19    1
    63    32    31    2
    64    77    73   am
    65    77    78    1
    66    73    74    2
    67    36    38   ar
    68    82    81    1
    69    82    83    1
    70    29    30    1
    71    29    20   am
    72    30    31    1
    73    31    40   am
    74    81    78    1
    75    85    83   ar
    76    19    20    1
    77    19    22    1
    78    78    79    1
    79    83    84   ar
    80    24    26   ar
    81    24    23   ar
    82    20    21    2
    83    26    28   ar
    84    22    23    1
    85    23    25   ar
    86    28    27   ar
    87    25    27   ar
    88    40    41    1
    89    79    80    2
    90    44    41    1
    91    44    45    1
    92    47    49   ar
    93    47    45   ar
    94    41    42    1
    95    49    50   ar
    96    45    46   ar
    97    50    48   ar
    98    46    48   ar
    99    42    43    2
   100    92    86    1
   101    92    91    1
   102    86    87    1
   103    91    90    1
   104    98    99    1
   105    98    97    1
   106    99   100    1
   107    93    94    1
   108    93    88   am
   109    87    90    1
   110    87    88    1
   111   102   101    1
   112    96    95    2
   113    95    94    1
   114    97    94    1
   115   100   101    2
   116    88    89    2
   117   101   103    1
