@<TRIPOS>MOLECULE
tmp/3gknB00.pdb
 102 100 0 0 0
SMALL
GASTEIGER

@<TRIPOS>ATOM
      1  N        -17.1440   13.6540    6.7850 N.3    20  LEU20      -0.1231
      2  CA       -15.9560   13.0610    7.3910 C.3    20  LEU20       0.1693
      3  C        -15.2860   14.0870    8.3000 C.2    20  LEU20       0.2592
      4  O        -15.8520   15.1460    8.5730 O.2    20  LEU20      -0.2718
      5  CB       -14.9790   12.6280    6.2960 C.3    20  LEU20       0.0284
      6  CG       -15.5670   11.7660    5.1770 C.3    20  LEU20       0.0019
      7  CD1      -14.5070   11.5060    4.1230 C.3    20  LEU20       0.0001
      8  CD2      -16.0900   10.4610    5.7490 C.3    20  LEU20       0.0001
      9  N        -14.0800   13.7750    8.7660 N.am   21  SER21      -0.1952
     10  CA       -13.3500   14.6870    9.6420 C.3    21  SER21       0.1924
     11  C        -12.5320   15.6700    8.8130 C.2    21  SER21       0.2314
     12  O        -12.3020   15.4530    7.6230 O.2    21  SER21      -0.2863
     13  CB       -12.4170   13.9050   10.5720 C.3    21  SER21       0.2116
     14  OG       -11.3320   13.3470    9.8530 O.3    21  SER21      -0.2180
     15  N        -14.4780   17.5320    5.6510 N.3    24  THR24      -0.1218
     16  CA       -14.5210   16.9020    4.3390 C.3    24  THR24       0.1862
     17  C        -15.7220   15.9760    4.2290 C.2    24  THR24       0.2287
     18  O        -16.4440   15.7590    5.2010 O.2    24  THR24      -0.2866
     19  CB       -13.2450   16.0790    4.0630 C.3    24  THR24       0.1770
     20  OG1      -13.1190   15.0450    5.0480 O.3    24  THR24      -0.2211
     21  CG2      -12.0140   16.9730    4.1050 C.3    24  THR24       0.0375
     22  N        -17.5890   12.6040    1.4570 N.3    26  THR26      -0.1218
     23  CA       -17.4730   11.6750    0.3490 C.3    26  THR26       0.1862
     24  C        -18.8870   11.1990    0.0330 C.2    26  THR26       0.2287
     25  O        -19.8500   11.6530    0.6540 O.2    26  THR26      -0.2866
     26  CB       -16.5740   10.4670    0.7130 C.3    26  THR26       0.1770
     27  OG1      -16.3420    9.6790   -0.4600 O.3    26  THR26      -0.2211
     28  CG2      -17.2300    9.6050    1.7810 C.3    26  THR26       0.0375
     29  N        -17.0530    5.9320   -4.4390 N.3    31  HIS31      -0.1241
     30  CA       -16.3950    4.6510   -4.1940 C.3    31  HIS31       0.1621
     31  C        -16.5180    3.6430   -5.3310 C.2    31  HIS31       0.2264
     32  O        -16.1650    2.4740   -5.1660 O.2    31  HIS31      -0.2867
     33  CB       -16.9270    4.0170   -2.9040 C.3    31  HIS31       0.0745
     34  CG       -16.5170    4.7430   -1.6600 C.ar   31  HIS31       0.0817
     35  ND1      -17.0150    5.9820   -1.3200 N.ar   31  HIS31      -0.2268
     36  CD2      -15.6340    4.4120   -0.6880 C.ar   31  HIS31       0.1154
     37  CE1      -16.4560    6.3840   -0.1920 C.ar   31  HIS31       0.1986
     38  NE2      -15.6130    5.4500    0.2120 N.ar   31  HIS31      -0.2212
     39  N        -13.5110   -0.9020    0.8990 N.3    65  LYS65      -0.1245
     40  CA       -13.4110    0.2560    1.7770 C.3    65  LYS65       0.1561
     41  C        -14.5000    0.0700    2.8260 C.2    65  LYS65       0.2260
     42  O        -15.5300   -0.5410    2.5490 O.2    65  LYS65      -0.2867
     43  CB       -13.6600    1.5520    1.0000 C.3    65  LYS65       0.0271
     44  CG       -12.5320    1.9370    0.0510 C.3    65  LYS65       0.0035
     45  CD       -11.2650    2.2610    0.8250 C.3    65  LYS65       0.0206
     46  CE       -10.1150    2.6110   -0.1080 C.3    65  LYS65       0.1093
     47  NZ        -8.8810    2.9580    0.6520 N.3    65  LYS65      -0.1314
     48  N         -8.7690   13.4380   15.9510 N.3    82  GLN82      -0.1231
     49  CA        -9.9700   13.4230   15.1260 C.3    82  GLN82       0.1698
     50  C         -9.8640   12.3270   14.0730 C.2    82  GLN82       0.2593
     51  O         -8.7660   11.9690   13.6460 O.2    82  GLN82      -0.2718
     52  CB       -10.1480   14.7770   14.4330 C.3    82  GLN82       0.0381
     53  CG       -10.2880   15.9600   15.3810 C.3    82  GLN82       0.0905
     54  CD       -11.5870   15.9370   16.1630 C.2    82  GLN82       0.2608
     55  OE1      -11.8520   16.8220   16.9760 O.2    82  GLN82      -0.2717
     56  NE2      -12.4070   14.9220   15.9180 N.am   82  GLN82      -0.0878
     57  N        -11.0090   11.7930   13.6620 N.am   83  GLY83      -0.1942
     58  CA       -11.0150   10.7530   12.6490 C.3    83  GLY83       0.2014
     59  C        -10.7720    9.3550   13.1820 C.2    83  GLY83       0.2639
     60  O        -10.6650    9.1460   14.3920 O.2    83  GLY83      -0.2714
     61  N        -10.6890    8.3960   12.2650 N.am   84  PHE84      -0.1959
     62  CA       -10.4600    6.9980   12.6130 C.3    84  PHE84       0.1771
     63  C         -9.7570    6.3130   11.4380 C.2    84  PHE84       0.2619
     64  O         -9.4800    6.9540   10.4220 O.2    84  PHE84      -0.2715
     65  CB       -11.7990    6.3120   12.9230 C.3    84  PHE84       0.0574
     66  CG       -11.6560    4.9690   13.5860 C.ar   84  PHE84      -0.0200
     67  CD1      -10.9450    4.8370   14.7760 C.ar   84  PHE84      -0.0042
     68  CD2      -12.2320    3.8360   13.0210 C.ar   84  PHE84      -0.0042
     69  CE1      -10.8090    3.5960   15.3920 C.ar   84  PHE84      -0.0003
     70  CE2      -12.1030    2.5910   13.6300 C.ar   84  PHE84      -0.0003
     71  CZ       -11.3890    2.4700   14.8190 C.ar   84  PHE84      -0.0000
     72  N         -9.4620    5.0220   11.5770 N.am   85  ALA85      -0.1963
     73  CA        -8.7770    4.2610   10.5300 C.3    85  ALA85       0.1728
     74  C         -9.5770    4.2550    9.2330 C.2    85  ALA85       0.2616
     75  O         -9.0150    4.1510    8.1380 O.2    85  ALA85      -0.2715
     76  CB        -8.5300    2.8420   10.9990 C.3    85  ALA85       0.0334
     77  N        -10.8950    4.3280    9.3740 N.am   86  PHE86      -0.1960
     78  CA       -11.8010    4.3990    8.2370 C.3    86  PHE86       0.1756
     79  C        -12.8680    5.3880    8.6830 C.2    86  PHE86       0.2461
     80  O        -13.0260    5.6410    9.8790 O.2    86  PHE86      -0.2730
     81  CB       -12.3870    3.0200    7.8730 C.3    86  PHE86       0.0574
     82  CG       -13.0570    2.3080    9.0090 C.ar   86  PHE86      -0.0200
     83  CD1      -14.3070    2.7100    9.4620 C.ar   86  PHE86      -0.0042
     84  CD2      -12.4350    1.2280    9.6270 C.ar   86  PHE86      -0.0042
     85  CE1      -14.9320    2.0490   10.5160 C.ar   86  PHE86      -0.0003
     86  CE2      -13.0480    0.5590   10.6810 C.ar   86  PHE86      -0.0003
     87  CZ       -14.2980    0.9700   11.1270 C.ar   86  PHE86      -0.0000
     88  N        -13.6060    5.9750    7.7350 N.am   87  PRO87      -0.2716
     89  CA       -14.6420    6.9480    8.0840 C.3    87  PRO87       0.1536
     90  C        -15.7570    6.4870    9.0140 C.2    87  PRO87       0.2598
     91  O        -16.3170    5.4010    8.8520 O.2    87  PRO87      -0.2715
     92  CB       -15.1880    7.3740    6.7210 C.3    87  PRO87       0.0310
     93  CG       -14.0350    7.1540    5.8000 C.3    87  PRO87       0.0237
     94  CD       -13.5040    5.8280    6.2740 C.3    87  PRO87       0.0939
     95  N        -16.0640    7.3310    9.9940 N.am   88  LEU88      -0.1978
     96  CA       -17.1520    7.0890   10.9300 C.3    88  LEU88       0.1596
     97  C        -18.1100    8.2450   10.6650 C.2    88  LEU88       0.2287
     98  O        -18.0590    9.2860   11.3260 O.2    88  LEU88      -0.2864
     99  CB       -16.6560    7.1130   12.3760 C.3    88  LEU88       0.0297
    100  CG       -15.8480    5.8780   12.7820 C.3    88  LEU88       0.0022
    101  CD1      -15.4000    6.0040   14.2300 C.3    88  LEU88       0.0001
    102  CD2      -16.7010    4.6280   12.5950 C.3    88  LEU88       0.0001
@<TRIPOS>BOND
     1    31    32    2
     2    31    30    1
     3    29    30    1
     4    30    33    1
     5    33    34    1
     6    34    35   ar
     7    34    36   ar
     8    35    37   ar
     9    36    38   ar
    10    27    26    1
    11    37    38   ar
    12    46    47    1
    13    46    45    1
    14    24    23    1
    15    24    25    2
    16    44    45    1
    17    44    43    1
    18    23    26    1
    19    23    22    1
    20    26    28    1
    21    39    40    1
    22    43    40    1
    23    40    41    1
    24    42    41    2
    25    19    21    1
    26    19    16    1
    27    19    20    1
    28     7     6    1
    29    17    16    1
    30    17    18    2
    31    16    15    1
    32     6     8    1
    33     6     5    1
    34    93    94    1
    35    93    92    1
    36    94    88    1
    37     5     2    1
    38    92    89    1
    39     1     2    1
    40     2     3    1
    41    12    11    2
    42    88    89    1
    43    88    79   am
    44    81    78    1
    45    81    82    1
    46    89    90    1
    47    75    74    2
    48    78    79    1
    49    78    77    1
    50     3     4    2
    51     3     9   am
    52    79    80    2
    53     9    10    1
    54    11    10    1
    55    91    90    2
    56    82    83   ar
    57    82    84   ar
    58    90    95   am
    59    74    77   am
    60    74    73    1
    61    83    85   ar
    62    84    86   ar
    63    10    13    1
    64    14    13    1
    65    95    96    1
    66    64    63    2
    67    85    87   ar
    68    73    76    1
    69    73    72    1
    70    97    96    1
    71    97    98    2
    72    86    87   ar
    73    96    99    1
    74    63    72   am
    75    63    62    1
    76    61    62    1
    77    61    59   am
    78    99   100    1
    79   102   100    1
    80    62    65    1
    81    58    59    1
    82    58    57    1
    83   100   101    1
    84    65    66    1
    85    68    66   ar
    86    68    70   ar
    87    59    60    2
    88    66    67   ar
    89    70    71   ar
    90    51    50    2
    91    57    50   am
    92    50    49    1
    93    52    49    1
    94    52    53    1
    95    67    69   ar
    96    71    69   ar
    97    49    48    1
    98    53    54    1
    99    56    54   am
   100    54    55    2
