@<TRIPOS>MOLECULE
tmp/3gkrA00.pdb
 269 267 0 0 0
SMALL
GASTEIGER

@<TRIPOS>ATOM
      1  N          1.4480    6.2480    9.2420 N.3    27  THR27      -0.1218
      2  CA         1.8930    4.8440    9.5630 C.3    27  THR27       0.1862
      3  C          0.9860    3.7570    8.9940 C.2    27  THR27       0.2287
      4  O          1.3400    2.5430    9.1330 O.2    27  THR27      -0.2866
      5  CB         2.0170    4.6450   11.0970 C.3    27  THR27       0.1770
      6  OG1        0.7480    4.8190   11.7300 O.3    27  THR27      -0.2211
      7  CG2        3.1050    5.6090   11.6650 C.3    27  THR27       0.0375
      8  N          4.9900    3.5920    4.6400 N.3    32  TRP32      -0.1241
      9  CA         5.5510    3.2400    5.9450 C.3    32  TRP32       0.1605
     10  C          6.2470    1.8850    5.8990 C.2    32  TRP32       0.2264
     11  O          7.2700    1.6580    6.5770 O.2    32  TRP32      -0.2867
     12  CB         4.4580    3.2570    7.0380 C.3    32  TRP32       0.0550
     13  CG         4.9920    3.4150    8.4540 C.ar   32  TRP32       0.0003
     14  CD1        4.7940    2.5760    9.4760 C.ar   32  TRP32       0.0946
     15  CD2        5.7860    4.5090    8.9390 C.ar   32  TRP32       0.0152
     16  NE1        5.4320    3.0660   10.6340 N.ar   32  TRP32      -0.2442
     17  CE2        6.0190    4.2710   10.3200 C.ar   32  TRP32       0.0810
     18  CE3        6.2520    5.7270    8.3570 C.ar   32  TRP32       0.0012
     19  CZ2        6.7800    5.1320   11.0950 C.ar   32  TRP32       0.0191
     20  CZ3        6.9890    6.5940    9.1440 C.ar   32  TRP32       0.0001
     21  CH2        7.2110    6.3120   10.5120 C.ar   32  TRP32       0.0015
     22  N          9.9580    0.9780    7.2220 N.3    36  LYS36      -0.1245
     23  CA        10.1950   -0.2380    8.0210 C.3    36  LYS36       0.1561
     24  C         10.4750   -1.4430    7.1530 C.2    36  LYS36       0.2260
     25  O          9.7640   -2.4320    7.1690 O.2    36  LYS36      -0.2867
     26  CB         9.0440   -0.4590    9.0450 C.3    36  LYS36       0.0271
     27  CG         9.0610    0.6760   10.0440 C.3    36  LYS36       0.0035
     28  CD         8.3820    0.3340   11.3370 C.3    36  LYS36       0.0206
     29  CE         8.1160    1.6330   12.2580 C.3    36  LYS36       0.1093
     30  NZ         9.2900    1.8960   13.1180 N.3    36  LYS36      -0.1314
     31  N         12.5050   -3.7990    7.1070 N.3    38  ASN38      -0.1225
     32  CA        12.8850   -5.0160    7.6860 C.3    38  ASN38       0.1785
     33  C         11.6540   -5.8100    8.1730 C.2    38  ASN38       0.2597
     34  O         11.8140   -6.9160    8.7200 O.2    38  ASN38      -0.2718
     35  CB        13.8850   -4.7280    8.8090 C.3    38  ASN38       0.1169
     36  CG        13.3610   -3.7450    9.8510 C.2    38  ASN38       0.2627
     37  OD1       12.6620   -2.7520    9.5310 O.2    38  ASN38      -0.2716
     38  ND2       13.7500   -3.9810   11.0920 N.am   38  ASN38      -0.0877
     39  N         10.4500   -5.2290    7.9930 N.am   39  TRP39      -0.1976
     40  CA         9.1510   -5.9290    8.3240 C.3    39  TRP39       0.1640
     41  C          8.5440   -6.3520    7.0260 C.2    39  TRP39       0.2290
     42  O          8.9160   -5.8280    5.9930 O.2    39  TRP39      -0.2864
     43  CB         8.2310   -4.9620    9.1040 C.3    39  TRP39       0.0576
     44  CG         8.7240   -4.6050   10.4510 C.ar   39  TRP39       0.0006
     45  CD1        9.8990   -3.9380   10.7500 C.ar   39  TRP39       0.0946
     46  CD2        8.0700   -4.8450   11.6830 C.ar   39  TRP39       0.0152
     47  NE1       10.0020   -3.7590   12.1310 N.ar   39  TRP39      -0.2442
     48  CE2        8.8780   -4.2840   12.7180 C.ar   39  TRP39       0.0810
     49  CE3        6.8560   -5.4600   12.0140 C.ar   39  TRP39       0.0012
     50  CZ2        8.5490   -4.4060   14.0950 C.ar   39  TRP39       0.0191
     51  CZ3        6.4740   -5.4990   13.4190 C.ar   39  TRP39       0.0001
     52  CH2        7.3400   -4.9940   14.4150 C.ar   39  TRP39       0.0015
     53  N          6.5260   -8.7440   11.9600 N.3    62  GLY62      -0.1210
     54  CA         7.9360   -8.7810   12.5080 C.3    62  GLY62       0.1956
     55  C          8.1930  -10.1070   13.2190 C.2    62  GLY62       0.2612
     56  O          7.2830  -10.8530   13.5640 O.2    62  GLY62      -0.2717
     57  N          9.4630  -10.4150   13.4140 N.am   63  ASP63      -0.1959
     58  CA         9.8260  -11.7150   14.0040 C.3    63  ASP63       0.1840
     59  C          9.6730  -11.6990   15.5300 C.2    63  ASP63       0.2622
     60  O          9.5920  -10.6270   16.0920 O.2    63  ASP63      -0.2715
     61  CB        11.2890  -12.0520   13.5990 C.3    63  ASP63       0.1450
     62  CG        11.3790  -12.5520   12.1660 C.2    63  ASP63       0.3671
     63  OD1       10.6580  -13.5060   11.7870 O.co2  63  ASP63      -0.2456
     64  OD2       12.2200  -12.0410   11.4350 O.co2  63  ASP63      -0.2456
     65  N          9.6360  -12.9150   16.1600 N.am   64  THR64      -0.1951
     66  CA         9.5730  -13.0380   17.6100 C.3    64  THR64       0.1897
     67  C         10.5090  -14.1940   17.9150 C.2    64  THR64       0.2313
     68  O         11.0350  -14.7960   17.0220 O.2    64  THR64      -0.2863
     69  CB         8.1720  -13.4890   18.0700 C.3    64  THR64       0.1794
     70  OG1        7.9550  -14.8390   17.6540 O.3    64  THR64      -0.2208
     71  CG2        7.0830  -12.5430   17.5030 C.3    64  THR64       0.0378
     72  N          4.7080  -11.4230   14.6030 N.3    70  PHE70      -0.1241
     73  CA         3.8800  -10.3840   15.2500 C.3    70  PHE70       0.1605
     74  C          3.3150   -9.5100   14.1270 C.2    70  PHE70       0.2264
     75  O          4.0820   -8.8900   13.3910 O.2    70  PHE70      -0.2867
     76  CB         4.8300   -9.5300   16.1670 C.3    70  PHE70       0.0534
     77  CG         4.1810   -8.2760   16.7100 C.ar   70  PHE70      -0.0203
     78  CD1        3.0540   -8.3310   17.5210 C.ar   70  PHE70      -0.0042
     79  CD2        4.7240   -7.0350   16.4970 C.ar   70  PHE70      -0.0042
     80  CE1        2.4210   -7.1650   18.0000 C.ar   70  PHE70      -0.0003
     81  CE2        4.1250   -5.8830   17.0150 C.ar   70  PHE70      -0.0003
     82  CZ         2.9790   -5.9190   17.7010 C.ar   70  PHE70      -0.0000
     83  N          1.2980   -6.1770   13.0890 N.3    72  TYR72      -0.1241
     84  CA         1.0090   -4.8860   13.6880 C.3    72  TYR72       0.1605
     85  C          0.5170   -3.8720   12.6330 C.2    72  TYR72       0.2264
     86  O          1.1910   -3.6560   11.6140 O.2    72  TYR72      -0.2867
     87  CB         2.3270   -4.4180   14.4150 C.3    72  TYR72       0.0534
     88  CG         2.2120   -3.0270   15.0070 C.ar   72  TYR72      -0.0201
     89  CD1        1.0550   -2.6390   15.7520 C.ar   72  TYR72      -0.0009
     90  CD2        3.2840   -2.1150   14.9140 C.ar   72  TYR72      -0.0009
     91  CE1        0.9810   -1.3460   16.3620 C.ar   72  TYR72       0.0417
     92  CE2        3.2410   -0.8210   15.5270 C.ar   72  TYR72       0.0417
     93  CZ         2.0950   -0.4890   16.2740 C.ar   72  TYR72       0.1957
     94  OH         1.9870    0.7720   16.7680 O.3    72  TYR72      -0.2866
     95  N          0.8990  -14.6230   15.5060 N.3   103  TYR103     -0.1241
     96  CA         0.2180  -15.0610   16.7170 C.3   103  TYR103      0.1605
     97  C         -0.8680  -14.0700   17.2120 C.2   103  TYR103      0.2264
     98  O         -1.7100  -14.4170   18.1150 O.2   103  TYR103     -0.2867
     99  CB         1.1740  -15.2720   17.8740 C.3   103  TYR103      0.0534
    100  CG         1.7510  -13.9990   18.5010 C.ar  103  TYR103     -0.0201
    101  CD1        1.2170  -13.5140   19.7440 C.ar  103  TYR103     -0.0009
    102  CD2        2.9230  -13.3910   18.0400 C.ar  103  TYR103     -0.0009
    103  CE1        1.7100  -12.3780   20.3460 C.ar  103  TYR103      0.0417
    104  CE2        3.4410  -12.2730   18.6520 C.ar  103  TYR103      0.0417
    105  CZ         2.8950  -11.7790   19.8270 C.ar  103  TYR103      0.1957
    106  OH         3.4210  -10.6660   20.4720 O.3   103  TYR103     -0.2866
    107  N         -2.3270   -6.8960   16.0520 N.3   106  ARG106     -0.1245
    108  CA        -2.5190   -5.7670   17.0050 C.3   106  ARG106      0.1563
    109  C         -2.7730   -4.4920   16.2150 C.2   106  ARG106      0.2260
    110  O         -2.0470   -4.2470   15.2510 O.2   106  ARG106     -0.2867
    111  CB        -1.2630   -5.6270   17.8900 C.3   106  ARG106      0.0307
    112  CG        -1.2380   -4.2910   18.6800 C.3   106  ARG106      0.0489
    113  CD        -0.0890   -4.3060   19.7770 C.3   106  ARG106      0.2205
    114  NE        -0.4090   -5.3870   20.7190 N.pl3 106  ARG106     -0.0865
    115  CZ         0.5280   -5.8570   21.5690 C.cat 106  ARG106      0.5346
    116  NH1        1.7980   -5.3890   21.4940 N.pl3 106  ARG106      0.1354
    117  NH2        0.2660   -6.8800   22.3590 N.pl3 106  ARG106      0.1354
    118  N          7.8440    0.0160   30.0930 N.3   137  GLY137     -0.1210
    119  CA         8.5680   -1.2680   30.1540 C.3   137  GLY137      0.1956
    120  C          8.2310   -2.3070   29.0700 C.2   137  GLY137      0.2611
    121  O          7.5230   -2.0280   28.0970 O.2   137  GLY137     -0.2717
    122  N          8.7600   -3.5200   29.2070 N.am  138  MET138     -0.1979
    123  CA         8.5380   -4.5080   28.1530 C.3   138  MET138      0.1605
    124  C          7.0520   -4.7540   27.9080 C.2   138  MET138      0.2287
    125  O          6.6660   -5.3170   26.8770 O.2   138  MET138     -0.2864
    126  CB         9.2910   -5.8320   28.3960 C.3   138  MET138      0.0413
    127  CG         9.8150   -6.0540   29.8130 C.3   138  MET138      0.0598
    128  SD         8.9770   -7.3910   30.7210 S.3   138  MET138     -0.1393
    129  CE        10.3810   -8.3400   31.3530 C.3   138  MET138      0.0692
    130  N          3.0700   -0.0390   22.5700 N.3   142  ILE142     -0.1231
    131  CA         4.0160    0.4490   21.6050 C.3   142  ILE142      0.1692
    132  C          3.9120    1.9600   21.3670 C.2   142  ILE142      0.2592
    133  O          4.9070    2.6760   21.3440 O.2   142  ILE142     -0.2718
    134  CB         3.8080   -0.2760   20.2060 C.3   142  ILE142      0.0266
    135  CG1        4.1400   -1.7860   20.4270 C.3   142  ILE142      0.0019
    136  CG2        4.7740    0.2900   19.1160 C.3   142  ILE142      0.0020
    137  CD1        3.6560   -2.6790   19.3400 C.3   142  ILE142      0.0001
    138  N          2.7000    2.4630   21.1860 N.am  143  GLN143     -0.1966
    139  CA         2.4990    3.9260   20.9950 C.3   143  GLN143      0.1718
    140  C          1.9740    4.4760   22.3440 C.2   143  GLN143      0.2458
    141  O          1.2130    3.8470   23.0340 O.2   143  GLN143     -0.2730
    142  CB         1.4420    4.1990   19.9220 C.3   143  GLN143      0.0407
    143  CG         1.7790    3.6690   18.5350 C.3   143  GLN143      0.0908
    144  CD         3.0500    4.2080   17.9600 C.2   143  GLN143      0.2608
    145  OE1        3.4200    5.3670   18.1590 O.2   143  GLN143     -0.2717
    146  NE2        3.7100    3.3690   17.1620 N.am  143  GLN143     -0.0878
    147  N          2.3630    5.7020   22.6930 N.am  144  PRO144     -0.2727
    148  CA         1.8370    6.2710   23.9340 C.3   144  PRO144      0.1402
    149  C          0.3300    6.4960   23.7370 C.2   144  PRO144      0.2269
    150  O         -0.1260    6.9050   22.6540 O.2   144  PRO144     -0.2865
    151  CB         2.5300    7.6770   24.0020 C.3   144  PRO144      0.0296
    152  CG         3.1370    7.8830   22.5900 C.3   144  PRO144      0.0237
    153  CD         3.5160    6.4650   22.2040 C.3   144  PRO144      0.0939
    154  N         20.1880   15.1080   16.0830 N.3   199  TYR199     -0.1241
    155  CA        19.5850   13.9170   16.6010 C.3   199  TYR199      0.1605
    156  C         20.5960   12.9920   17.2840 C.2   199  TYR199      0.2264
    157  O         20.3920   12.5800   18.4570 O.2   199  TYR199     -0.2867
    158  CB        18.8860   13.2280   15.3770 C.3   199  TYR199      0.0534
    159  CG        18.2610   11.8690   15.6570 C.ar  199  TYR199     -0.0201
    160  CD1       17.1300   11.7650   16.5250 C.ar  199  TYR199     -0.0009
    161  CD2       18.7470   10.7600   15.0540 C.ar  199  TYR199     -0.0009
    162  CE1       16.5050   10.5540   16.7350 C.ar  199  TYR199      0.0417
    163  CE2       18.1050    9.5310   15.1830 C.ar  199  TYR199      0.0417
    164  CZ        16.9860    9.4250   16.0730 C.ar  199  TYR199      0.1957
    165  OH        16.3640    8.2090   16.2210 O.3   199  TYR199     -0.2866
    166  N         21.3720    7.5240   25.0330 N.3   208  ILE208     -0.1231
    167  CA        20.3120    6.6670   24.4250 C.3   208  ILE208      0.1692
    168  C         20.6970    6.2880   23.0650 C.2   208  ILE208      0.2593
    169  O         21.6550    6.8570   22.5890 O.2   208  ILE208     -0.2718
    170  CB        18.9260    7.3670   24.4220 C.3   208  ILE208      0.0266
    171  CG1       18.9680    8.6940   23.7590 C.3   208  ILE208      0.0019
    172  CG2       18.5170    7.6270   25.9070 C.3   208  ILE208      0.0020
    173  CD1       17.4750    9.3240   23.5900 C.3   208  ILE208      0.0001
    174  N         19.9760    5.3100   22.4990 N.am  209  THR209     -0.1939
    175  CA        20.1470    4.9210   21.0720 C.3   209  THR209      0.2028
    176  C         19.5280    5.9130   20.0910 C.2   209  THR209      0.2642
    177  O         18.7420    6.7820   20.4910 O.2   209  THR209     -0.2714
    178  CB        19.4860    3.5380   20.8410 C.3   209  THR209      0.1808
    179  OG1       18.1010    3.6040   21.2170 O.3   209  THR209     -0.2208
    180  CG2       20.1640    2.4510   21.7310 C.3   209  THR209      0.0379
    181  N         19.8980    5.8240   18.8000 N.am  210  HIS210     -0.1959
    182  CA        19.1980    6.6080   17.7570 C.3   210  HIS210      0.1787
    183  C         19.0580    5.6990   16.5760 C.2   210  HIS210      0.2620
    184  O         19.8500    4.7310   16.4140 O.2   210  HIS210     -0.2715
    185  CB        20.1030    7.8430   17.4640 C.3   210  HIS210      0.0785
    186  CG        21.4360    7.4820   16.8650 C.ar  210  HIS210      0.0821
    187  ND1       22.6180    7.4450   17.6180 N.ar  210  HIS210     -0.2267
    188  CD2       21.8070    7.2110   15.5760 C.ar  210  HIS210      0.1154
    189  CE1       23.6380    7.1990   16.8150 C.ar  210  HIS210      0.1986
    190  NE2       23.1790    7.0080   15.5900 N.ar  210  HIS210     -0.2212
    191  N         18.0730    5.9460   15.7180 N.am  211  ARG211     -0.1964
    192  CA        17.9780    5.1840   14.4610 C.3   211  ARG211      0.1714
    193  C         19.0540    5.5970   13.4910 C.2   211  ARG211      0.2458
    194  O         19.5640    6.7440   13.4930 O.2   211  ARG211     -0.2730
    195  CB        16.6090    5.5000   13.8540 C.3   211  ARG211      0.0347
    196  CG        15.4530    4.9320   14.7030 C.3   211  ARG211      0.0492
    197  CD        14.1400    5.0470   13.8210 C.3   211  ARG211      0.2205
    198  NE        12.9560    4.6300   14.6060 N.pl3 211  ARG211     -0.0865
    199  CZ        12.4880    3.3890   14.6130 C.cat 211  ARG211      0.5346
    200  NH1       13.1160    2.3880   14.0430 N.pl3 211  ARG211      0.1354
    201  NH2       11.3760    3.1270   15.3190 N.pl3 211  ARG211      0.1354
    202  N         19.4620    4.6190   12.7060 N.am  212  PRO212     -0.2727
    203  CA        20.4900    4.9610   11.6710 C.3   212  PRO212      0.1402
    204  C         19.9150    5.9140   10.6180 C.2   212  PRO212      0.2269
    205  O         18.7020    5.9940   10.4040 O.2   212  PRO212     -0.2865
    206  CB        20.8550    3.6060   11.0340 C.3   212  PRO212      0.0296
    207  CG        19.7540    2.7170   11.3450 C.3   212  PRO212      0.0237
    208  CD        19.0520    3.1800   12.6570 C.3   212  PRO212      0.0939
    209  N         17.2450    5.0690    7.8920 N.3   215  TYR215     -0.1241
    210  CA        15.7760    5.0340    8.1390 C.3   215  TYR215      0.1605
    211  C         15.1310    6.3050    7.6210 C.2   215  TYR215      0.2264
    212  O         14.0790    6.2680    6.9950 O.2   215  TYR215     -0.2867
    213  CB        15.6250    4.9890    9.6810 C.3   215  TYR215      0.0534
    214  CG        14.2050    4.7700   10.2370 C.ar  215  TYR215     -0.0201
    215  CD1       13.6970    3.4700   10.3410 C.ar  215  TYR215     -0.0009
    216  CD2       13.4130    5.8350   10.5190 C.ar  215  TYR215     -0.0009
    217  CE1       12.3980    3.2300   10.7910 C.ar  215  TYR215      0.0417
    218  CE2       12.0860    5.6230   11.0020 C.ar  215  TYR215      0.0417
    219  CZ        11.6400    4.2890   11.1280 C.ar  215  TYR215      0.1957
    220  OH        10.3950    4.0440   11.6200 O.3   215  TYR215     -0.2866
    221  N          2.0720   15.9210   12.4300 N.3   253  TRP253     -0.1241
    222  CA         2.6010   15.2260   13.5720 C.3   253  TRP253      0.1605
    223  C          4.1000   15.5020   13.7210 C.2   253  TRP253      0.2264
    224  O          4.8760   15.1730   12.7990 O.2   253  TRP253     -0.2867
    225  CB         2.4000   13.6990   13.3330 C.3   253  TRP253      0.0550
    226  CG         2.9590   12.7480   14.3470 C.ar  253  TRP253      0.0003
    227  CD1        3.4650   13.0270   15.6380 C.ar  253  TRP253      0.0946
    228  CD2        3.0050   11.3110   14.2420 C.ar  253  TRP253      0.0152
    229  NE1        3.8900   11.8590   16.2390 N.ar  253  TRP253     -0.2442
    230  CE2        3.5320   10.8030   15.4760 C.ar  253  TRP253      0.0810
    231  CE3        2.4840   10.4190   13.3430 C.ar  253  TRP253      0.0012
    232  CZ2        3.7260    9.4140   15.6980 C.ar  253  TRP253      0.0191
    233  CZ3        2.6730    9.0350   13.5580 C.ar  253  TRP253      0.0001
    234  CH2        3.2750    8.5590   14.6840 C.ar  253  TRP253      0.0015
    235  N          7.1930   14.3450   14.8640 N.3   255  MET255     -0.1230
    236  CA         7.5730   12.9120   15.0590 C.3   255  MET255      0.1702
    237  C          8.9950   12.6880   15.5870 C.2   255  MET255      0.2592
    238  O          9.2160   11.8210   16.4240 O.2   255  MET255     -0.2718
    239  CB         7.3690   12.1970   13.7190 C.3   255  MET255      0.0401
    240  CG         7.5310   10.6770   13.9420 C.3   255  MET255      0.0596
    241  SD         7.5760    9.8630   12.3240 S.3   255  MET255     -0.1393
    242  CE         5.9600   10.6560   11.7590 C.3   255  MET255      0.0692
    243  N          9.9350   13.5250   15.1840 N.am  256  TYR256     -0.1976
    244  CA        11.3390   13.3860   15.5860 C.3   256  TYR256      0.1639
    245  C         11.9140   14.7470   15.9220 C.2   256  TYR256      0.2290
    246  O         11.5050   15.7760   15.3820 O.2   256  TYR256     -0.2864
    247  CB        12.2240   12.7510   14.4580 C.3   256  TYR256      0.0560
    248  CG        12.0190   11.2540   14.3840 C.ar  256  TYR256     -0.0198
    249  CD1       11.0610   10.7440   13.6090 C.ar  256  TYR256     -0.0009
    250  CD2       12.8460   10.3950   15.1270 C.ar  256  TYR256     -0.0009
    251  CE1       10.8400    9.3120   13.5860 C.ar  256  TYR256      0.0417
    252  CE2       12.6910    9.0500   15.0510 C.ar  256  TYR256      0.0417
    253  CZ        11.6860    8.5520   14.3200 C.ar  256  TYR256      0.1957
    254  OH        11.5320    7.1700   14.2710 O.3   256  TYR256     -0.2866
    255  N          4.1690  -14.4170   25.2010 N.3   332  LEU332     -0.1231
    256  CA         4.7880  -13.1510   24.8250 C.3   332  LEU332      0.1693
    257  C          4.1330  -11.9010   25.3830 C.2   332  LEU332      0.2591
    258  O          4.7320  -10.8980   25.3780 O.2   332  LEU332     -0.2718
    259  CB         4.8550  -12.9980   23.3060 C.3   332  LEU332      0.0284
    260  CG         5.6910  -14.0800   22.6680 C.3   332  LEU332      0.0019
    261  CD1        5.7280  -13.8260   21.1460 C.3   332  LEU332      0.0001
    262  CD2        7.1310  -14.2250   23.2550 C.3   332  LEU332      0.0001
    263  N          2.9100  -12.0210   25.8620 N.am  333  VAL333     -0.1980
    264  CA         2.1270  -10.8300   26.2090 C.3   333  VAL333      0.1595
    265  C          1.6410  -11.0840   27.6550 C.2   333  VAL333      0.2287
    266  O          0.9150  -12.0520   27.9530 O.2   333  VAL333     -0.2864
    267  CB         0.9670  -10.5770   25.2170 C.3   333  VAL333      0.0276
    268  CG1        0.1740   -9.2860   25.7150 C.3   333  VAL333      0.0022
    269  CG2        1.4380  -10.4280   23.8320 C.3   333  VAL333      0.0022
@<TRIPOS>BOND
     1     8     9    1
     2    10     9    1
     3    10    11    2
     4     9    12    1
     5    42    41    2
     6   212   211    2
     7    41    40    1
     8    12    13    1
     9    31    32    1
    10    24    25    2
    11    24    23    1
    12    22    23    1
    13   211   210    1
    14    32    33    1
    15    32    35    1
    16   209   210    1
    17    39    33   am
    18    39    40    1
    19    23    26    1
    20   210   213    1
    21    33    34    2
    22    40    43    1
    23    18    15   ar
    24    18    20   ar
    25    13    15   ar
    26    13    14   ar
    27    35    36    1
    28    15    17   ar
    29     3     4    2
    30     3     2    1
    31    26    27    1
    32    43    44    1
    33    20    21   ar
    34     1     2    1
    35    14    16   ar
    36    37    36    2
    37     2     5    1
    38   213   214    1
    39    36    38   am
    40    27    28    1
    41   214   215   ar
    42   214   216   ar
    43    17    16   ar
    44    17    19   ar
    45   215   217   ar
    46   205   204    2
    47    44    45   ar
    48    44    46   ar
    49    21    19   ar
    50   216   218   ar
    51   204   203    1
    52    45    47   ar
    53   217   219   ar
    54   218   219   ar
    55   206   207    1
    56   206   203    1
    57     5     7    1
    58     5     6    1
    59   219   220    1
    60    28    29    1
    61   207   208    1
    62    64    62   ar
    63    86    85    2
    64   203   202    1
    65    46    49   ar
    66    46    48   ar
    67   242   241    1
    68    63    62   ar
    69    53    54    1
    70    49    51   ar
    71    47    48   ar
    72    62    61    1
    73    29    30    1
    74   241   240    1
    75   221   222    1
    76    54    55    1
    77    85    84    1
    78   208   202    1
    79   202   193   am
    80    48    50   ar
    81   224   223    2
    82    83    84    1
    83    55    57   am
    84    55    56    2
    85   225   222    1
    86   225   226    1
    87   231   233   ar
    88   231   228   ar
    89    75    74    2
    90    57    58    1
    91    51    52   ar
    92   193   194    2
    93   193   192    1
    94   233   234   ar
    95   222   223    1
    96   251   249   ar
    97   251   253   ar
    98    61    58    1
    99   249   248   ar
   100    84    87    1
   101   239   240    1
   102   239   236    1
   103   197   198    1
   104   197   196    1
   105   195   192    1
   106   195   196    1
   107    58    59    1
   108   200   199    1
   109    50    52   ar
   110    74    73    1
   111   228   226   ar
   112   228   230   ar
   113   254   253    1
   114   253   252   ar
   115   226   227   ar
   116   248   247    1
   117   248   250   ar
   118    87    88    1
   119   247   244    1
   120   192   191    1
   121    72    73    1
   122   198   199    2
   123   199   201    1
   124   234   232   ar
   125   235   236    1
   126    90    88   ar
   127    90    92   ar
   128    88    89   ar
   129   252   250   ar
   130   161   163   ar
   131   161   159   ar
   132   236   237    1
   133   163   164   ar
   134   243   244    1
   135   243   237   am
   136    73    76    1
   137   110   109    2
   138   158   159    1
   139   158   155    1
   140   246   245    2
   141   230   232   ar
   142   230   229   ar
   143    95    96    1
   144    92    93   ar
   145    59    60    2
   146    59    65   am
   147   188   190   ar
   148   188   186   ar
   149   244   245    1
   150   237   238    2
   151   190   189   ar
   152   227   229   ar
   153   159   160   ar
   154   191   183   am
   155    89    91   ar
   156   107   108    1
   157   164   165    1
   158   164   162   ar
   159   154   155    1
   160    65    66    1
   161    76    77    1
   162   109   108    1
   163    93    91   ar
   164    93    94    1
   165   184   183    2
   166    79    77   ar
   167    79    81   ar
   168   160   162   ar
   169   183   182    1
   170   155   156    1
   171    77    78   ar
   172    96    97    1
   173    96    99    1
   174   189   187   ar
   175   186   185    1
   176   186   187   ar
   177   108   111    1
   178    81    82   ar
   179    68    67    2
   180   146   144   am
   181    97    98    2
   182   156   157    2
   183   185   182    1
   184    71    69    1
   185    78    80   ar
   186    66    67    1
   187    66    69    1
   188    70    69    1
   189    82    80   ar
   190   182   181    1
   191    99   100    1
   192   111   112    1
   193   144   145    2
   194   144   143    1
   195   102   100   ar
   196   102   104   ar
   197   100   101   ar
   198   143   142    1
   199   104   105   ar
   200   112   113    1
   201   181   176   am
   202   136   134    1
   203   137   135    1
   204   101   103   ar
   205   113   114    1
   206   105   103   ar
   207   105   106    1
   208   142   139    1
   209   176   177    2
   210   176   175    1
   211   134   135    1
   212   134   131    1
   213   114   115    2
   214   178   175    1
   215   178   179    1
   216   178   180    1
   217   139   138    1
   218   139   140    1
   219   175   174    1
   220   261   260    1
   221   138   132   am
   222   133   132    2
   223   132   131    1
   224   116   115    1
   225   115   117    1
   226   131   130    1
   227   153   152    1
   228   153   147    1
   229   140   147   am
   230   140   141    2
   231   174   168   am
   232   169   168    2
   233   152   151    1
   234   150   149    2
   235   260   262    1
   236   260   259    1
   237   147   148    1
   238   168   167    1
   239   259   256    1
   240   173   171    1
   241   149   148    1
   242   171   170    1
   243   269   267    1
   244   148   151    1
   245   170   167    1
   246   170   172    1
   247   167   166    1
   248   256   255    1
   249   256   257    1
   250   267   268    1
   251   267   264    1
   252   258   257    2
   253   257   263   am
   254   263   264    1
   255   264   265    1
   256   125   124    2
   257   265   266    2
   258   124   123    1
   259   121   120    2
   260   123   126    1
   261   123   122    1
   262   126   127    1
   263   120   122   am
   264   120   119    1
   265   127   128    1
   266   118   119    1
   267   128   129    1
