@<TRIPOS>MOLECULE
tmp/3gkwA00.pdb
 90 88 0 0 0
SMALL
GASTEIGER

@<TRIPOS>ATOM
      1  N         10.4690  -10.6390  -16.4260 N.3    34  GLN34      -0.1231
      2  CA         9.5460   -9.9680  -15.5260 C.3    34  GLN34       0.1698
      3  C          8.3880  -10.8690  -15.1340 C.2    34  GLN34       0.2592
      4  O          7.4930  -11.0630  -15.9350 O.2    34  GLN34      -0.2718
      5  CB         8.9870   -8.7120  -16.2040 C.3    34  GLN34       0.0381
      6  CG         7.9890   -7.9850  -15.3060 C.3    34  GLN34       0.0905
      7  CD         7.6480   -6.6160  -15.8350 C.2    34  GLN34       0.2608
      8  OE1        7.3740   -6.4400  -17.0260 O.2    34  GLN34      -0.2717
      9  NE2        7.6630   -5.6380  -14.9560 N.am   34  GLN34      -0.0878
     10  N          8.4150  -11.4410  -13.9270 N.am   35  ALA35      -0.1966
     11  CA         7.2900  -12.2960  -13.4760 C.3    35  ALA35       0.1713
     12  C          6.0480  -11.4460  -13.3160 C.2    35  ALA35       0.2458
     13  O          6.1480  -10.2490  -13.1370 O.2    35  ALA35      -0.2730
     14  CB         7.6040  -13.0560  -12.1880 C.3    35  ALA35       0.0333
     15  N          4.8820  -12.0670  -13.4680 N.am   36  PRO36      -0.2716
     16  CA         3.5470  -11.4620  -13.3560 C.3    36  PRO36       0.1536
     17  C          3.4050  -10.6090  -12.1310 C.2    36  PRO36       0.2599
     18  O          3.5010  -11.1480  -11.0430 O.2    36  PRO36      -0.2715
     19  CB         2.6410  -12.6930  -13.2050 C.3    36  PRO36       0.0310
     20  CG         3.2950  -13.7180  -14.1230 C.3    36  PRO36       0.0237
     21  CD         4.8120  -13.4290  -14.0400 C.3    36  PRO36       0.0939
     22  N          3.1890   -9.3070  -12.2810 N.am   37  GLY37      -0.1955
     23  CA         2.9750   -8.4550  -11.1070 C.3    37  GLY37       0.1869
     24  C          4.2520   -7.9750  -10.4530 C.2    37  GLY37       0.2309
     25  O          4.2250   -7.0160   -9.6890 O.2    37  GLY37      -0.2863
     26  N          7.9590  -18.6830  -14.5210 N.3    86  THR86      -0.1203
     27  CA         6.8630  -18.0400  -15.2500 C.3    86  THR86       0.1994
     28  C          7.1110  -16.5410  -15.3010 C.2    86  THR86       0.2618
     29  O          7.0480  -15.8480  -14.2950 O.2    86  THR86      -0.2717
     30  CB         5.5160  -18.3720  -14.6170 C.3    86  THR86       0.1784
     31  OG1        5.2920  -19.7760  -14.8040 O.3    86  THR86      -0.2211
     32  CG2        4.3430  -17.5960  -15.2800 C.3    86  THR86       0.0376
     33  N          7.4450  -16.0450  -16.4800 N.am   87  ALA87      -0.1965
     34  CA         7.7760  -14.6530  -16.6330 C.3    87  ALA87       0.1728
     35  C          7.5420  -14.2900  -18.1090 C.2    87  ALA87       0.2616
     36  O          7.2530  -15.1640  -18.9330 O.2    87  ALA87      -0.2715
     37  CB         9.2480  -14.4440  -16.2610 C.3    87  ALA87       0.0334
     38  N          7.7270  -13.0120  -18.4160 N.am   88  PHE88      -0.1974
     39  CA         7.8660  -12.4970  -19.7640 C.3    88  PHE88       0.1639
     40  C          9.3760  -12.2580  -20.0010 C.2    88  PHE88       0.2290
     41  O          9.9850  -11.4280  -19.3080 O.2    88  PHE88      -0.2864
     42  CB         7.0890  -11.1560  -19.8730 C.3    88  PHE88       0.0560
     43  CG         7.0750  -10.5630  -21.2650 C.ar   88  PHE88      -0.0200
     44  CD1        7.8140   -9.4140  -21.5610 C.ar   88  PHE88      -0.0042
     45  CD2        6.3070  -11.1570  -22.2950 C.ar   88  PHE88      -0.0042
     46  CE1        7.8130   -8.8750  -22.8510 C.ar   88  PHE88      -0.0003
     47  CE2        6.2920  -10.6150  -23.5830 C.ar   88  PHE88      -0.0003
     48  CZ         7.0470   -9.4830  -23.8660 C.ar   88  PHE88      -0.0000
     49  N          5.8810  -14.6220  -23.3560 N.3   113  THR113     -0.1203
     50  CA         5.2870  -14.8820  -22.0890 C.3   113  THR113      0.1994
     51  C          5.4260  -16.3720  -21.9310 C.2   113  THR113      0.2618
     52  O          4.7960  -17.1260  -22.6520 O.2   113  THR113     -0.2717
     53  CB         3.8090  -14.5400  -22.1760 C.3   113  THR113      0.1784
     54  OG1        3.6510  -13.1140  -22.2900 O.3   113  THR113     -0.2211
     55  CG2        3.0490  -15.0670  -20.9730 C.3   113  THR113      0.0376
     56  N          6.2600  -16.8030  -21.0010 N.am  114  VAL114     -0.1965
     57  CA         6.4890  -18.2320  -20.7530 C.3   114  VAL114      0.1727
     58  C          5.7860  -18.6710  -19.4870 C.2   114  VAL114      0.2616
     59  O          6.0180  -18.1020  -18.4240 O.2   114  VAL114     -0.2715
     60  CB         7.9810  -18.5290  -20.5290 C.3   114  VAL114      0.0290
     61  CG1        8.1780  -20.0200  -20.3600 C.3   114  VAL114      0.0023
     62  CG2        8.8730  -17.9340  -21.6960 C.3   114  VAL114      0.0023
     63  N          4.9330  -19.6800  -19.6040 N.am  115  THR115     -0.1951
     64  CA         4.2700  -20.2530  -18.4730 C.3   115  THR115      0.1897
     65  C          4.7810  -21.6630  -18.2220 C.2   115  THR115      0.2313
     66  O          4.8100  -22.5020  -19.1160 O.2   115  THR115     -0.2863
     67  CB         2.7660  -20.3280  -18.7190 C.3   115  THR115      0.1794
     68  OG1        2.3040  -19.0230  -18.9790 O.3   115  THR115     -0.2208
     69  CG2        2.0200  -20.8520  -17.5030 C.3   115  THR115      0.0378
     70  N         -1.9650  -17.8100  -20.5520 N.3   144  GLU144     -0.1245
     71  CA        -2.0080  -16.3620  -20.7930 C.3   144  GLU144      0.1567
     72  C         -1.0390  -15.9730  -21.8930 C.2   144  GLU144      0.2260
     73  O         -0.0870  -16.6900  -22.1450 O.2   144  GLU144     -0.2867
     74  CB        -1.6230  -15.5950  -19.5180 C.3   144  GLU144      0.0388
     75  CG        -2.7370  -15.3830  -18.4900 C.3   144  GLU144      0.1160
     76  CD        -3.5490  -14.1160  -18.7420 C.2   144  GLU144      0.3649
     77  OE1       -4.4660  -14.1310  -19.6300 O.co2 144  GLU144     -0.2457
     78  OE2       -3.2840  -13.1050  -18.0390 O.co2 144  GLU144     -0.2457
     79  N         -8.2720  -19.9770  -17.6040 N.3   172  TYR172     -0.1241
     80  CA        -8.4660  -18.5370  -17.4600 C.3   172  TYR172      0.1605
     81  C         -9.7540  -18.0380  -18.0250 C.2   172  TYR172      0.2264
     82  O        -10.3430  -18.6530  -18.8960 O.2   172  TYR172     -0.2867
     83  CB        -7.3530  -17.7390  -18.1280 C.3   172  TYR172      0.0534
     84  CG        -6.1100  -17.7530  -17.3050 C.ar  172  TYR172     -0.0201
     85  CD1       -5.0860  -18.6170  -17.6170 C.ar  172  TYR172     -0.0009
     86  CD2       -5.9760  -16.9230  -16.1740 C.ar  172  TYR172     -0.0009
     87  CE1       -3.9540  -18.6480  -16.8650 C.ar  172  TYR172      0.0417
     88  CE2       -4.7940  -16.9550  -15.4030 C.ar  172  TYR172      0.0417
     89  CZ        -3.8030  -17.8160  -15.7790 C.ar  172  TYR172      0.1957
     90  OH        -2.6470  -17.9170  -15.0720 O.3   172  TYR172     -0.2866
@<TRIPOS>BOND
     1    48    47   ar
     2    48    46   ar
     3    47    45   ar
     4    49    50    1
     5    46    44   ar
     6    52    51    2
     7    45    43   ar
     8    54    53    1
     9    53    50    1
    10    53    55    1
    11    73    72    2
    12    50    51    1
    13    51    56   am
    14    72    71    1
    15    62    60    1
    16    44    43   ar
    17    43    42    1
    18    56    57    1
    19    71    70    1
    20    71    74    1
    21    57    60    1
    22    57    58    1
    23    60    61    1
    24    40    39    1
    25    40    41    2
    26    42    39    1
    27    39    38    1
    28    77    76   ar
    29    63    58   am
    30    63    64    1
    31    74    75    1
    32    58    59    2
    33    66    65    2
    34    68    67    1
    35    36    35    2
    36    82    81    2
    37    76    75    1
    38    76    78   ar
    39    67    64    1
    40    67    69    1
    41    64    65    1
    42    38    35   am
    43    83    80    1
    44    83    84    1
    45    35    34    1
    46    81    80    1
    47    85    84   ar
    48    85    87   ar
    49    79    80    1
    50    84    86   ar
    51     8     7    2
    52    87    89   ar
    53    34    33    1
    54    34    37    1
    55    33    28   am
    56     1     2    1
    57     5     2    1
    58     5     6    1
    59    86    88   ar
    60     4     3    2
    61     7     6    1
    62     7     9   am
    63    89    88   ar
    64    89    90    1
    65     2     3    1
    66    28    27    1
    67    28    29    2
    68    32    30    1
    69    27    30    1
    70    27    26    1
    71     3    10   am
    72    31    30    1
    73    20    21    1
    74    20    19    1
    75    21    15    1
    76    10    11    1
    77    11    12    1
    78    11    14    1
    79    15    16    1
    80    15    12   am
    81    16    19    1
    82    16    17    1
    83    12    13    2
    84    22    17   am
    85    22    23    1
    86    17    18    2
    87    23    24    1
    88    24    25    2
