@<TRIPOS>MOLECULE
tmp/3gl6A00.pdb
 159 158 0 0 0
SMALL
GASTEIGER

@<TRIPOS>ATOM
      1  N        -23.9740  -29.9610    4.4950 N.3    13  LYS13      -0.1231
      2  CA       -22.7390  -30.1430    5.2590 C.3    13  LYS13       0.1693
      3  C        -22.3280  -28.8940    6.0390 C.2    13  LYS13       0.2592
      4  O        -22.7710  -27.7860    5.7360 O.2    13  LYS13      -0.2718
      5  CB       -21.6000  -30.5730    4.3320 C.3    13  LYS13       0.0285
      6  CG       -21.1860  -29.5210    3.3190 C.3    13  LYS13       0.0035
      7  CD       -20.0950  -30.0480    2.4010 C.3    13  LYS13       0.0206
      8  CE       -19.7140  -29.0150    1.3530 C.3    13  LYS13       0.1093
      9  NZ       -18.6050  -29.4870    0.4760 N.3    13  LYS13      -0.1314
     10  N        -21.4640  -29.0870    7.0330 N.am   14  ASP14      -0.1960
     11  CA       -20.9950  -27.9990    7.8910 C.3    14  ASP14       0.1840
     12  C        -19.7750  -27.2570    7.3550 C.2    14  ASP14       0.2622
     13  O        -19.0130  -26.6730    8.1280 O.2    14  ASP14      -0.2715
     14  CB       -20.6550  -28.5390    9.2810 C.3    14  ASP14       0.1450
     15  CG       -19.3470  -29.3050    9.3000 C.2    14  ASP14       0.3671
     16  OD1      -19.2190  -30.2920    8.5440 O.co2  14  ASP14      -0.2456
     17  OD2      -18.4420  -28.9160   10.0690 O.co2  14  ASP14      -0.2456
     18  N        -19.5780  -27.2870    6.0440 N.am   15  LYS15      -0.1963
     19  CA       -18.4470  -26.6000    5.4280 C.3    15  LYS15       0.1728
     20  C        -18.9260  -25.8600    4.1840 C.2    15  LYS15       0.2616
     21  O        -19.8630  -26.3010    3.5200 O.2    15  LYS15      -0.2715
     22  CB       -17.3630  -27.6020    5.0180 C.3    15  LYS15       0.0311
     23  CG       -16.7720  -28.4290    6.1510 C.3    15  LYS15       0.0038
     24  CD       -15.9040  -27.5950    7.0790 C.3    15  LYS15       0.0206
     25  CE       -15.2420  -28.4780    8.1330 C.3    15  LYS15       0.1093
     26  NZ       -14.3290  -27.7140    9.0240 N.3    15  LYS15      -0.1314
     27  N        -18.2840  -24.7330    3.8890 N.am   16  VAL16      -0.1963
     28  CA       -18.5920  -23.9270    2.7080 C.3    16  VAL16       0.1727
     29  C        -17.3060  -23.8750    1.8990 C.2    16  VAL16       0.2616
     30  O        -16.2560  -23.5290    2.4370 O.2    16  VAL16      -0.2715
     31  CB       -18.9720  -22.4700    3.0670 C.3    16  VAL16       0.0290
     32  CG1      -19.0440  -21.6240    1.8010 C.3    16  VAL16       0.0023
     33  CG2      -20.3060  -22.4310    3.7680 C.3    16  VAL16       0.0023
     34  N        -17.3840  -24.2200    0.6180 N.am   17  ASP17      -0.1957
     35  CA       -16.2050  -24.2070   -0.2430 C.3    17  ASP17       0.1840
     36  C        -16.1010  -22.8980   -1.0150 C.2    17  ASP17       0.2622
     37  O        -17.1030  -22.3690   -1.4970 O.2    17  ASP17      -0.2715
     38  CB       -16.2480  -25.3840   -1.2190 C.3    17  ASP17       0.1450
     39  CG       -16.2010  -26.7250   -0.5110 C.2    17  ASP17       0.3671
     40  OD1      -15.2580  -26.9460    0.2780 O.co2  17  ASP17      -0.2456
     41  OD2      -17.1010  -27.5570   -0.7400 O.co2  17  ASP17      -0.2456
     42  N        -14.8810  -22.3820   -1.1260 N.am   18  TRP18      -0.1960
     43  CA       -14.6370  -21.1280   -1.8300 C.3    18  TRP18       0.1771
     44  C        -13.5890  -21.2950   -2.9250 C.2    18  TRP18       0.2620
     45  O        -12.8510  -22.2800   -2.9550 O.2    18  TRP18      -0.2715
     46  CB       -14.1140  -20.0490   -0.8750 C.3    18  TRP18       0.0590
     47  CG       -14.9620  -19.7380    0.3230 C.ar   18  TRP18       0.0006
     48  CD1      -15.2350  -20.5610    1.3770 C.ar   18  TRP18       0.0946
     49  CD2      -15.5710  -18.4760    0.6280 C.ar   18  TRP18       0.0152
     50  NE1      -15.9710  -19.8860    2.3260 N.ar   18  TRP18      -0.2442
     51  CE2      -16.1910  -18.6100    1.8930 C.ar   18  TRP18       0.0810
     52  CE3      -15.6490  -17.2500   -0.0440 C.ar   18  TRP18       0.0012
     53  CZ2      -16.8820  -17.5500    2.5000 C.ar   18  TRP18       0.0191
     54  CZ3      -16.3350  -16.1980    0.5610 C.ar   18  TRP18       0.0001
     55  CH2      -16.9430  -16.3580    1.8230 C.ar   18  TRP18       0.0015
     56  N        -13.5310  -20.3100   -3.8140 N.am   19  VAL19      -0.1963
     57  CA       -12.5540  -20.2890   -4.8940 C.3    19  VAL19       0.1727
     58  C        -12.2470  -18.8240   -5.1730 C.2    19  VAL19       0.2616
     59  O        -13.1430  -17.9790   -5.1480 O.2    19  VAL19      -0.2715
     60  CB       -13.0840  -20.9740   -6.1790 C.3    19  VAL19       0.0290
     61  CG1      -14.2830  -20.2160   -6.7320 C.3    19  VAL19       0.0023
     62  CG2      -11.9660  -21.0540   -7.2160 C.3    19  VAL19       0.0023
     63  N        -10.9770  -18.5270   -5.4230 N.am   20  GLN20      -0.1963
     64  CA       -10.5420  -17.1630   -5.6830 C.3    20  GLN20       0.1733
     65  C        -10.2500  -16.9390   -7.1660 C.2    20  GLN20       0.2616
     66  O         -9.7190  -17.8150   -7.8490 O.2    20  GLN20      -0.2715
     67  CB        -9.3060  -16.8660   -4.8300 C.3    20  GLN20       0.0408
     68  CG        -8.7710  -15.4570   -4.9280 C.3    20  GLN20       0.0908
     69  CD        -7.6680  -15.2060   -3.9230 C.2    20  GLN20       0.2608
     70  OE1       -6.9070  -16.1130   -3.5880 O.2    20  GLN20      -0.2717
     71  NE2       -7.5660  -13.9720   -3.4450 N.am   20  GLN20      -0.0878
     72  N        -10.6100  -15.7630   -7.6670 N.am   21  CYS21      -0.1954
     73  CA       -10.3970  -15.4510   -9.0750 C.3    21  CYS21       0.1843
     74  C         -8.9300  -15.2190   -9.4270 C.2    21  CYS21       0.2625
     75  O         -8.1880  -14.6040   -8.6660 O.2    21  CYS21      -0.2714
     76  CB       -11.2160  -14.2200   -9.4700 C.3    21  CYS21       0.0997
     77  SG       -11.1250  -13.8260  -11.2270 S.3    21  CYS21      -0.0797
     78  N         -8.5220  -15.7210  -10.5910 N.am   22  ASP22      -0.1971
     79  CA        -7.1510  -15.5630  -11.0770 C.3    22  ASP22       0.1709
     80  C         -7.1200  -14.5030  -12.1750 C.2    22  ASP22       0.2293
     81  O         -6.0500  -14.1000  -12.6330 O.2    22  ASP22      -0.2864
     82  CB        -6.6280  -16.8760  -11.6650 C.3    22  ASP22       0.1436
     83  CG        -6.4620  -17.9630  -10.6260 C.2    22  ASP22       0.3671
     84  OD1       -5.7560  -17.7290   -9.6250 O.co2  22  ASP22      -0.2456
     85  OD2       -7.0310  -19.0580  -10.8160 O.co2  22  ASP22      -0.2456
     86  N         -8.8980  -10.7650   -7.9780 N.3    26  ASP26      -0.1239
     87  CA        -8.4030  -11.4520   -6.7880 C.3    26  ASP26       0.1674
     88  C         -9.4630  -11.6390   -5.7010 C.2    26  ASP26       0.2266
     89  O         -9.1300  -11.8030   -4.5290 O.2    26  ASP26      -0.2867
     90  CB        -7.2160  -10.6770   -6.2110 C.3    26  ASP26       0.1410
     91  CG        -6.0840  -11.5820   -5.7720 C.2    26  ASP26       0.3668
     92  OD1       -5.5960  -12.3710   -6.6100 O.co2  26  ASP26      -0.2456
     93  OD2       -5.6780  -11.5000   -4.5920 O.co2  26  ASP26      -0.2456
     94  N        -12.7980  -13.4450   -3.6730 N.3    28  TRP28      -0.1241
     95  CA       -13.2450  -14.7660   -3.2500 C.3    28  TRP28       0.1605
     96  C        -14.7140  -15.0150   -3.5540 C.2    28  TRP28       0.2264
     97  O        -15.5630  -14.1580   -3.3060 O.2    28  TRP28      -0.2867
     98  CB       -13.0080  -14.9440   -1.7520 C.3    28  TRP28       0.0550
     99  CG       -11.6040  -15.2790   -1.4210 C.ar   28  TRP28       0.0003
    100  CD1      -10.6290  -14.4230   -0.9940 C.ar   28  TRP28       0.0946
    101  CD2      -10.9990  -16.5710   -1.5070 C.ar   28  TRP28       0.0152
    102  NE1       -9.4510  -15.1090   -0.8050 N.ar   28  TRP28      -0.2442
    103  CE2       -9.6510  -16.4280   -1.1140 C.ar   28  TRP28       0.0810
    104  CE3      -11.4690  -17.8400   -1.8800 C.ar   28  TRP28       0.0012
    105  CZ2       -8.7640  -17.5070   -1.0840 C.ar   28  TRP28       0.0191
    106  CZ3      -10.5880  -18.9120   -1.8510 C.ar   28  TRP28       0.0001
    107  CH2       -9.2470  -18.7380   -1.4530 C.ar   28  TRP28       0.0015
    108  N        -17.9980  -21.4460   -4.1150 N.3    31  GLN31      -0.1245
    109  CA       -17.9940  -22.3110   -5.2910 C.3    31  GLN31       0.1566
    110  C        -19.3820  -22.5980   -5.8790 C.2    31  GLN31       0.2260
    111  O        -19.5360  -22.6400   -7.0970 O.2    31  GLN31      -0.2867
    112  CB       -17.2790  -23.6350   -4.9800 C.3    31  GLN31       0.0367
    113  CG       -15.8000  -23.4620   -4.6200 C.3    31  GLN31       0.0905
    114  CD       -15.0560  -24.7890   -4.4670 C.2    31  GLN31       0.2608
    115  OE1      -13.9220  -24.8270   -3.9800 O.2    31  GLN31      -0.2717
    116  NE2      -15.6880  -25.8760   -4.8890 N.am   31  GLN31      -0.0878
    117  N        -12.4770  -26.4300   -9.3020 N.3    41  ALA41      -0.1231
    118  CA       -11.8140  -25.4240   -8.4800 C.3    41  ALA41       0.1694
    119  C        -10.3480  -25.7220   -8.1870 C.2    41  ALA41       0.2591
    120  O         -9.5370  -24.8060   -8.0760 O.2    41  ALA41      -0.2718
    121  CB       -12.5800  -25.2440   -7.1680 C.3    41  ALA41       0.0304
    122  N        -10.0050  -26.9980   -8.0650 N.am   42  GLU42      -0.1979
    123  CA        -8.6310  -27.3790   -7.7640 C.3    42  GLU42       0.1602
    124  C         -7.7430  -27.6750   -8.9640 C.2    42  GLU42       0.2287
    125  O         -6.5610  -27.3400   -8.9550 O.2    42  GLU42      -0.2864
    126  CB        -8.6060  -28.6040   -6.8430 C.3    42  GLU42       0.0415
    127  CG        -8.2580  -28.2940   -5.3970 C.3    42  GLU42       0.1163
    128  CD        -9.4740  -27.9890   -4.5510 C.2    42  GLU42       0.3649
    129  OE1       -9.3070  -27.3980   -3.4630 O.co2  42  GLU42      -0.2457
    130  OE2      -10.5950  -28.3510   -4.9670 O.co2  42  GLU42      -0.2457
    131  N         -7.8890  -26.5040  -12.1950 N.3    44  GLU44      -0.1231
    132  CA        -7.6480  -25.4760  -13.2010 C.3    44  GLU44       0.1699
    133  C         -7.8150  -24.0970  -12.5890 C.2    44  GLU44       0.2592
    134  O         -8.1800  -23.9690  -11.4240 O.2    44  GLU44      -0.2718
    135  CB        -8.5920  -25.6530  -14.3970 C.3    44  GLU44       0.0402
    136  CG       -10.0590  -25.3600  -14.1270 C.3    44  GLU44       0.1161
    137  CD       -10.9440  -25.7010  -15.3180 C.2    44  GLU44       0.3649
    138  OE1      -12.1450  -25.3550  -15.2960 O.co2  44  GLU44      -0.2457
    139  OE2      -10.4380  -26.3230  -16.2760 O.co2  44  GLU44      -0.2457
    140  N         -7.5330  -23.0630  -13.3680 N.am   45  ASP45      -0.1960
    141  CA        -7.6590  -21.7050  -12.8660 C.3    45  ASP45       0.1840
    142  C         -9.1270  -21.3010  -12.8550 C.2    45  ASP45       0.2622
    143  O         -9.9780  -22.0130  -13.3880 O.2    45  ASP45      -0.2715
    144  CB        -6.8420  -20.7460  -13.7440 C.3    45  ASP45       0.1450
    145  CG        -7.4660  -20.5110  -15.1170 C.2    45  ASP45       0.3671
    146  OD1       -8.2120  -21.3800  -15.6240 O.co2  45  ASP45      -0.2456
    147  OD2       -7.1850  -19.4440  -15.7080 O.co2  45  ASP45      -0.2456
    148  N         -9.4300  -20.1740  -12.2210 N.am   46  TYR46      -0.1974
    149  CA       -10.8000  -19.6880  -12.1990 C.3    46  TYR46       0.1639
    150  C        -10.8210  -18.2230  -12.6050 C.2    46  TYR46       0.2290
    151  O        -10.0880  -17.4100  -12.0470 O.2    46  TYR46      -0.2864
    152  CB       -11.4450  -19.8310  -10.8150 C.3    46  TYR46       0.0560
    153  CG       -12.8550  -19.2820  -10.8150 C.ar   46  TYR46      -0.0198
    154  CD1      -13.8410  -19.8640  -11.6100 C.ar   46  TYR46      -0.0009
    155  CD2      -13.1740  -18.1140  -10.1170 C.ar   46  TYR46      -0.0009
    156  CE1      -15.1050  -19.2980  -11.7250 C.ar   46  TYR46       0.0417
    157  CE2      -14.4430  -17.5360  -10.2260 C.ar   46  TYR46       0.0417
    158  CZ       -15.3990  -18.1320  -11.0360 C.ar   46  TYR46       0.1957
    159  OH       -16.6390  -17.5540  -11.1850 O.3    46  TYR46      -0.2866
@<TRIPOS>BOND
     1   139   137   ar
     2   147   145   ar
     3   146   145   ar
     4   137   138   ar
     5   137   136    1
     6   145   144    1
     7   135   136    1
     8   135   132    1
     9   144   141    1
    10   143   142    2
    11   140   141    1
    12   140   133   am
    13   132   133    1
    14   132   131    1
    15   141   142    1
    16   142   148   am
    17    81    80    2
    18   150   149    1
    19   150   151    2
    20   133   134    2
    21   148   149    1
    22   149   152    1
    23    80    79    1
    24   156   154   ar
    25   156   158   ar
    26    82    79    1
    27    82    83    1
    28   154   153   ar
    29    77    76    1
    30   159   158    1
    31    79    78    1
    32   158   157   ar
    33    85    83   ar
    34   153   152    1
    35   153   155   ar
    36    83    84   ar
    37    78    74   am
    38   157   155   ar
    39    76    73    1
    40    74    73    1
    41    74    75    2
    42   117   118    1
    43    73    72    1
    44   124   125    2
    45   124   123    1
    46   118   119    1
    47   118   121    1
    48   119   120    2
    49   119   122   am
    50   122   123    1
    51    86    87    1
    52    66    65    2
    53   123   126    1
    54    72    65   am
    55    62    60    1
    56    65    64    1
    57   111   110    2
    58   126   127    1
    59    87    90    1
    60    87    88    1
    61    61    60    1
    62    92    91   ar
    63    90    91    1
    64    60    57    1
    65   110   109    1
    66    91    93   ar
    67    88    89    2
    68    64    63    1
    69    64    67    1
    70    63    58   am
    71   127   128    1
    72   109   112    1
    73   109   108    1
    74    58    59    2
    75    58    57    1
    76   112   113    1
    77   130   128   ar
    78    68    67    1
    79    68    69    1
    80    57    56    1
    81   116   114   am
    82   113   114    1
    83   128   129   ar
    84   114   115    2
    85    69    70    2
    86    69    71   am
    87    56    44   am
    88    94    95    1
    89    96    97    2
    90    96    95    1
    91    95    98    1
    92    45    44    2
    93    44    43    1
    94   104   106   ar
    95   104   101   ar
    96   106   107   ar
    97    43    42    1
    98    43    46    1
    99    98    99    1
   100   101    99   ar
   101   101   103   ar
   102    37    36    2
   103   107   105   ar
   104    99   100   ar
   105    38    39    1
   106    38    35    1
   107    42    36   am
   108   103   105   ar
   109   103   102   ar
   110    36    35    1
   111   100   102   ar
   112    46    47    1
   113    41    39   ar
   114    39    40   ar
   115    35    34    1
   116    52    54   ar
   117    52    49   ar
   118    47    49   ar
   119    47    48   ar
   120     9     8    1
   121    54    55   ar
   122    34    29   am
   123    49    51   ar
   124     8     7    1
   125    48    50   ar
   126    32    31    1
   127    55    53   ar
   128    51    50   ar
   129    51    53   ar
   130    29    30    2
   131    29    28    1
   132     7     6    1
   133    28    31    1
   134    28    27    1
   135    31    33    1
   136     6     5    1
   137    21    20    2
   138    27    20   am
   139    20    19    1
   140     5     2    1
   141     1     2    1
   142    22    19    1
   143    22    23    1
   144     2     3    1
   145    19    18    1
   146     4     3    2
   147     3    10   am
   148    18    12   am
   149    23    24    1
   150    10    11    1
   151    24    25    1
   152    12    11    1
   153    12    13    2
   154    11    14    1
   155    25    26    1
   156    16    15   ar
   157    14    15    1
   158    15    17   ar
