@<TRIPOS>MOLECULE
tmp/3glbD00.pdb
 126 123 0 0 0
SMALL
GASTEIGER

@<TRIPOS>ATOM
      1  N         35.5350   -3.1950  -48.0770 N.3     9  VAL9       -0.1231
      2  CA        34.8700   -4.4830  -48.2860 C.3     9  VAL9        0.1692
      3  C         34.4190   -5.0060  -46.9280 C.2     9  VAL9        0.2593
      4  O         35.1570   -4.9010  -45.9480 O.2     9  VAL9       -0.2718
      5  CB        35.7820   -5.5000  -48.9910 C.3     9  VAL9        0.0266
      6  CG1       36.0390   -5.0550  -50.4250 C.3     9  VAL9        0.0020
      7  CG2       37.0900   -5.6940  -48.2250 C.3     9  VAL9        0.0020
      8  N         33.2100   -5.5590  -46.8670 N.am   10  SER10      -0.1938
      9  CA        32.5260   -5.7620  -45.5800 C.3    10  SER10       0.2055
     10  C         33.3440   -6.4700  -44.4960 C.2    10  SER10       0.2643
     11  O         33.2570   -6.0970  -43.3300 O.2    10  SER10      -0.2714
     12  CB        31.1680   -6.4560  -45.7720 C.3    10  SER10       0.2130
     13  OG        31.2790   -7.6350  -46.5400 O.3    10  SER10      -0.2179
     14  N         34.1450   -7.4610  -44.8740 N.am   11  SER11      -0.1949
     15  CA        34.9470   -8.2090  -43.9040 C.3    11  SER11       0.1924
     16  C         35.9000   -7.3160  -43.1110 C.2    11  SER11       0.2314
     17  O         36.2000   -7.6030  -41.9510 O.2    11  SER11      -0.2863
     18  CB        35.7460   -9.3230  -44.5810 C.3    11  SER11       0.2116
     19  OG        36.8220   -8.7920  -45.3260 O.3    11  SER11      -0.2180
     20  N         33.3760   -3.3270  -53.7630 N.3    39  GLY39      -0.1210
     21  CA        34.3750   -4.3560  -54.0490 C.3    39  GLY39       0.1956
     22  C         35.6850   -3.7780  -54.5570 C.2    39  GLY39       0.2613
     23  O         35.7120   -2.6840  -55.1300 O.2    39  GLY39      -0.2717
     24  N         36.7720   -4.5170  -54.3470 N.am   40  THR40      -0.1938
     25  CA        38.1090   -4.0360  -54.6880 C.3    40  THR40       0.2028
     26  C         38.1820   -3.4770  -56.1080 C.2    40  THR40       0.2642
     27  O         38.5610   -2.3230  -56.2910 O.2    40  THR40      -0.2714
     28  CB        39.1680   -5.1410  -54.5310 C.3    40  THR40       0.1808
     29  OG1       38.9210   -5.8740  -53.3280 O.3    40  THR40      -0.2208
     30  CG2       40.5670   -4.5360  -54.4870 C.3    40  THR40       0.0379
     31  N         37.8080   -4.2860  -57.0990 N.am   41  LYS41      -0.1977
     32  CA        37.8480   -3.8640  -58.5060 C.3    41  LYS41       0.1596
     33  C         37.0720   -2.5710  -58.7360 C.2    41  LYS41       0.2287
     34  O         37.5860   -1.6340  -59.3420 O.2    41  LYS41      -0.2864
     35  CB        37.2950   -4.9710  -59.4170 C.3    41  LYS41       0.0298
     36  CG        37.0920   -4.5850  -60.8890 C.3    41  LYS41       0.0038
     37  CD        38.3690   -4.0670  -61.5410 C.3    41  LYS41       0.0206
     38  CE        38.1510   -3.7200  -63.0110 C.3    41  LYS41       0.1093
     39  NZ        37.8150   -4.9170  -63.8310 N.3    41  LYS41      -0.1314
     40  N         40.9380   -6.1140  -50.8290 N.3    58  ARG58      -0.1231
     41  CA        41.6610   -7.3470  -50.5460 C.3    58  ARG58       0.1694
     42  C         42.3530   -7.9510  -51.7730 C.2    58  ARG58       0.2591
     43  O         42.5740   -9.1610  -51.8340 O.2    58  ARG58      -0.2718
     44  CB        40.7110   -8.3740  -49.9260 C.3    58  ARG58       0.0321
     45  CG        40.2130   -7.9770  -48.5540 C.3    58  ARG58       0.0489
     46  CD        39.6510   -9.1650  -47.7820 C.3    58  ARG58       0.2205
     47  NE        39.5610   -8.8660  -46.3530 N.pl3  58  ARG58      -0.0865
     48  CZ        40.4800   -9.1700  -45.4360 C.cat  58  ARG58       0.5346
     49  NH1       40.2590   -8.8310  -44.1750 N.pl3  58  ARG58       0.1354
     50  NH2       41.6100   -9.7950  -45.7450 N.pl3  58  ARG58       0.1354
     51  N         42.7060   -7.1050  -52.7370 N.am   59  LEU59      -0.1980
     52  CA        43.4370   -7.5380  -53.9260 C.3    59  LEU59       0.1596
     53  C         44.4360   -6.4670  -54.3400 C.2    59  LEU59       0.2287
     54  O         44.1870   -5.2760  -54.1600 O.2    59  LEU59      -0.2864
     55  CB        42.4700   -7.7980  -55.0860 C.3    59  LEU59       0.0297
     56  CG        41.4220   -8.9070  -54.9310 C.3    59  LEU59       0.0022
     57  CD1       40.5260   -8.9740  -56.1650 C.3    59  LEU59       0.0001
     58  CD2       42.0800  -10.2550  -54.6890 C.3    59  LEU59       0.0001
     59  N         32.7430  -16.3510  -52.2310 N.3   107  TYR107     -0.1228
     60  CA        32.0540  -15.0630  -52.1380 C.3   107  TYR107      0.1721
     61  C         33.0040  -13.9520  -52.5930 C.2   107  TYR107      0.2437
     62  O         34.2190  -14.1430  -52.5850 O.2   107  TYR107     -0.2733
     63  CB        31.5730  -14.8160  -50.7000 C.3   107  TYR107      0.0547
     64  CG        32.6950  -14.5840  -49.7130 C.ar  107  TYR107     -0.0200
     65  CD1       33.1160  -13.2940  -49.4010 C.ar  107  TYR107     -0.0009
     66  CD2       33.3440  -15.6490  -49.1010 C.ar  107  TYR107     -0.0009
     67  CE1       34.1520  -13.0700  -48.5050 C.ar  107  TYR107      0.0417
     68  CE2       34.3870  -15.4330  -48.2000 C.ar  107  TYR107      0.0417
     69  CZ        34.7830  -14.1400  -47.9070 C.ar  107  TYR107      0.1957
     70  OH        35.8130  -13.9070  -47.0230 O.3   107  TYR107     -0.2866
     71  N         32.4650  -12.7940  -53.0110 N.am  108  PRO108     -0.2729
     72  CA        31.0710  -12.4280  -53.2110 C.3   108  PRO108      0.1401
     73  C         30.6080  -12.6800  -54.6440 C.2   108  PRO108      0.2269
     74  O         31.3730  -13.2000  -55.4560 O.2   108  PRO108     -0.2865
     75  CB        31.0870  -10.9260  -52.9370 C.3   108  PRO108      0.0296
     76  CG        32.4080  -10.4830  -53.4630 C.3   108  PRO108      0.0237
     77  CD        33.3550  -11.6570  -53.3080 C.3   108  PRO108      0.0939
     78  N         29.9900  -10.4760  -57.5600 N.3   110  SER110     -0.1217
     79  CA        30.2790   -9.1060  -57.9780 C.3   110  SER110      0.1889
     80  C         31.1590   -9.1000  -59.2310 C.2   110  SER110      0.2288
     81  O         31.4730  -10.1570  -59.7780 O.2   110  SER110     -0.2866
     82  CB        30.9770   -8.3530  -56.8390 C.3   110  SER110      0.2089
     83  OG        32.3030   -8.8200  -56.6540 O.3   110  SER110     -0.2183
     84  N         37.8860   -9.2310  -61.2270 N.3   113  PRO113     -0.2102
     85  CA        38.3700  -10.1250  -60.1740 C.3   113  PRO113      0.1504
     86  C         37.9370   -9.7130  -58.7680 C.2   113  PRO113      0.2576
     87  O         37.9810   -8.5300  -58.4190 O.2   113  PRO113     -0.2718
     88  CB        39.8890  -10.0170  -60.3000 C.3   113  PRO113      0.0282
     89  CG        40.1120   -8.6510  -60.8130 C.3   113  PRO113      0.0208
     90  CD        38.9640   -8.3630  -61.7360 C.3   113  PRO113      0.0893
     91  N         37.5340  -10.7060  -57.9800 N.am  114  ASN114     -0.1961
     92  CA        37.0580  -10.5050  -56.6140 C.3   114  ASN114      0.1819
     93  C         37.6320  -11.5890  -55.6920 C.2   114  ASN114      0.2621
     94  O         38.5060  -12.3540  -56.1050 O.2   114  ASN114     -0.2715
     95  CB        35.5180  -10.4830  -56.5850 C.3   114  ASN114      0.1195
     96  CG        34.8840  -11.7470  -57.1640 C.2   114  ASN114      0.2630
     97  OD1       35.5530  -12.7630  -57.3810 O.2   114  ASN114     -0.2716
     98  ND2       33.5780  -11.6840  -57.4110 N.am  114  ASN114     -0.0877
     99  N         37.1510  -11.6490  -54.4500 N.am  115  PHE115     -0.1974
    100  CA        37.6170  -12.6490  -53.4930 C.3   115  PHE115      0.1639
    101  C         37.2190  -14.0730  -53.8940 C.2   115  PHE115      0.2290
    102  O         37.7890  -15.0370  -53.3940 O.2   115  PHE115     -0.2864
    103  CB        37.1010  -12.3280  -52.0850 C.3   115  PHE115      0.0560
    104  CG        37.7380  -13.1550  -51.0040 C.ar  115  PHE115     -0.0200
    105  CD1       39.0100  -12.8510  -50.5420 C.ar  115  PHE115     -0.0042
    106  CD2       37.0710  -14.2450  -50.4550 C.ar  115  PHE115     -0.0042
    107  CE1       39.6080  -13.6170  -49.5450 C.ar  115  PHE115     -0.0003
    108  CE2       37.6620  -15.0170  -49.4560 C.ar  115  PHE115     -0.0003
    109  CZ        38.9320  -14.7020  -49.0020 C.ar  115  PHE115     -0.0000
    110  N         27.5440  -12.5870  -50.4770 N.3   138  GLU138     -0.1231
    111  CA        28.5460  -11.9270  -49.6260 C.3   138  GLU138      0.1699
    112  C         28.8700  -12.7070  -48.3390 C.2   138  GLU138      0.2592
    113  O         28.2370  -13.7210  -48.0400 O.2   138  GLU138     -0.2718
    114  CB        28.1390  -10.4680  -49.3350 C.3   138  GLU138      0.0402
    115  CG        26.7220  -10.2740  -48.8430 C.3   138  GLU138      0.1161
    116  CD        26.5610  -10.7170  -47.4160 C.2   138  GLU138      0.3649
    117  OE1       25.8580  -11.7230  -47.1900 O.co2 138  GLU138     -0.2457
    118  OE2       27.1600  -10.0750  -46.5250 O.co2 138  GLU138     -0.2457
    119  N         29.8670  -12.2260  -47.5960 N.am  139  ILE139     -0.1980
    120  CA        30.4800  -12.9870  -46.4950 C.3   139  ILE139      0.1595
    121  C         29.5180  -13.4820  -45.4030 C.2   139  ILE139      0.2287
    122  O         29.6940  -14.5920  -44.8960 O.2   139  ILE139     -0.2864
    123  CB        31.6360  -12.1910  -45.8380 C.3   139  ILE139      0.0276
    124  CG1       32.5150  -13.1220  -45.0030 C.3   139  ILE139      0.0022
    125  CG2       31.1080  -11.0380  -44.9900 C.3   139  ILE139      0.0022
    126  CD1       33.8450  -12.5070  -44.6220 C.3   139  ILE139      0.0001
@<TRIPOS>BOND
     1    39    38    1
     2    38    37    1
     3    90    84    1
     4    90    89    1
     5    37    36    1
     6    84    85    1
     7    36    35    1
     8    89    88    1
     9    88    85    1
    10    85    86    1
    11    81    80    2
    12    35    32    1
    13    34    33    2
    14    80    79    1
    15    86    87    2
    16    86    91   am
    17    33    32    1
    18    32    31    1
    19    91    92    1
    20    79    78    1
    21    79    82    1
    22    98    96   am
    23    97    96    2
    24    96    95    1
    25    31    26   am
    26    82    83    1
    27    92    95    1
    28    92    93    1
    29    27    26    2
    30    57    56    1
    31    26    25    1
    32    94    93    2
    33    93    99   am
    34    74    73    2
    35    23    22    2
    36    55    56    1
    37    55    52    1
    38    56    58    1
    39    25    28    1
    40    25    24    1
    41    73    72    1
    42    22    24   am
    43    22    21    1
    44    28    30    1
    45    28    29    1
    46    99   100    1
    47    53    54    2
    48    53    52    1
    49    21    20    1
    50    52    51    1
    51   101   100    1
    52   101   102    2
    53   100   103    1
    54    76    77    1
    55    76    75    1
    56    77    71    1
    57    72    71    1
    58    72    75    1
    59    71    61   am
    60    51    42   am
    61    61    62    2
    62    61    60    1
    63    59    60    1
    64    60    63    1
    65   103   104    1
    66    43    42    2
    67    42    41    1
    68   104   105   ar
    69   104   106   ar
    70    40    41    1
    71    63    64    1
    72    41    44    1
    73   105   107   ar
    74   110   111    1
    75   106   108   ar
    76     6     5    1
    77    44    45    1
    78    64    65   ar
    79    64    66   ar
    80   111   114    1
    81   111   112    1
    82   107   109   ar
    83   108   109   ar
    84    65    67   ar
    85   114   115    1
    86    66    68   ar
    87     5     2    1
    88     5     7    1
    89   115   116    1
    90    45    46    1
    91    67    69   ar
    92   112   113    2
    93   112   119   am
    94     2     1    1
    95     2     3    1
    96    68    69   ar
    97    69    70    1
    98    46    47    1
    99   119   120    1
   100   116   117   ar
   101   116   118   ar
   102     3     8   am
   103     3     4    2
   104     8     9    1
   105    13    12    1
   106   120   123    1
   107   120   121    1
   108    47    48    2
   109   123   124    1
   110   123   125    1
   111    12     9    1
   112    50    48    1
   113     9    10    1
   114    48    49    1
   115   121   122    2
   116    19    18    1
   117   124   126    1
   118    14    10   am
   119    14    15    1
   120    18    15    1
   121    10    11    2
   122    15    16    1
   123    16    17    2
