@<TRIPOS>MOLECULE
tmp/3glgG00.pdb
 169 162 0 0 0
SMALL
GASTEIGER

@<TRIPOS>ATOM
      1  N        -22.5530   -9.7340  -41.9510 N.3    17  ALA17      -0.1245
      2  CA       -21.4670   -8.7900  -42.1890 C.3    17  ALA17       0.1562
      3  C        -21.6800   -7.9610  -43.4500 C.2    17  ALA17       0.2260
      4  O        -21.3840   -6.7710  -43.4450 O.2    17  ALA17      -0.2867
      5  CB       -20.1310   -9.5170  -42.2580 C.3    17  ALA17       0.0290
      6  N        -25.6320   -5.6930  -43.5260 N.3    20  TRP20      -0.1227
      7  CA       -25.7520   -4.5190  -42.6580 C.3    20  TRP20       0.1737
      8  C        -24.6460   -3.4550  -42.7090 C.2    20  TRP20       0.2595
      9  O        -24.4770   -2.6700  -41.7740 O.2    20  TRP20      -0.2718
     10  CB       -25.9700   -4.9710  -41.2340 C.3    20  TRP20       0.0564
     11  CG       -27.3220   -5.4900  -41.0820 C.ar   20  TRP20       0.0003
     12  CD1      -27.7050   -6.7980  -41.0910 C.ar   20  TRP20       0.0946
     13  CD2      -28.5200   -4.7160  -40.9460 C.ar   20  TRP20       0.0152
     14  NE1      -29.0790   -6.8940  -40.9410 N.ar   20  TRP20      -0.2442
     15  CE2      -29.5980   -5.6310  -40.8440 C.ar   20  TRP20       0.0810
     16  CE3      -28.7840   -3.3390  -40.8850 C.ar   20  TRP20       0.0012
     17  CZ2      -30.9190   -5.2130  -40.6860 C.ar   20  TRP20       0.0191
     18  CZ3      -30.0920   -2.9180  -40.7310 C.ar   20  TRP20       0.0001
     19  CH2      -31.1500   -3.8540  -40.6310 C.ar   20  TRP20       0.0015
     20  N        -23.9040   -3.4370  -43.8120 N.am   21  ARG21      -0.1966
     21  CA       -22.8970   -2.4070  -44.0700 C.3    21  ARG21       0.1714
     22  C        -23.6460   -1.1140  -44.2410 C.2    21  ARG21       0.2458
     23  O        -24.5190   -1.0270  -45.0830 O.2    21  ARG21      -0.2730
     24  CB       -22.0970   -2.7330  -45.3420 C.3    21  ARG21       0.0347
     25  CG       -21.0090   -1.7330  -45.6920 C.3    21  ARG21       0.0492
     26  CD       -20.4010   -2.0180  -47.0700 C.3    21  ARG21       0.2205
     27  NE       -19.6450   -3.2700  -47.1050 N.pl3  21  ARG21      -0.0865
     28  CZ       -18.5230   -3.4780  -46.4250 C.cat  21  ARG21       0.5346
     29  NH1      -18.0200   -2.5360  -45.6350 N.pl3  21  ARG21       0.1354
     30  NH2      -17.8980   -4.6340  -46.5310 N.pl3  21  ARG21       0.1354
     31  N        -23.3200   -0.1100  -43.4230 N.am   22  PRO22      -0.2727
     32  CA       -23.9820    1.2000  -43.4050 C.3    22  PRO22       0.1402
     33  C        -23.9450    1.8660  -44.7720 C.2    22  PRO22       0.2269
     34  O        -22.8670    1.9710  -45.3790 O.2    22  PRO22      -0.2865
     35  CB       -23.1170    2.0130  -42.4330 C.3    22  PRO22       0.0296
     36  CG       -22.3930    1.0160  -41.6220 C.3    22  PRO22       0.0237
     37  CD       -22.1600   -0.1490  -42.5220 C.3    22  PRO22       0.0939
     38  N        -26.4740    5.4940  -40.0650 N.3    27  ASP27      -0.1225
     39  CA       -26.3780    4.0350  -39.9040 C.3    27  ASP27       0.1805
     40  C        -25.0810    3.5250  -39.2730 C.2    27  ASP27       0.2598
     41  O        -25.0200    2.3600  -38.8650 O.2    27  ASP27      -0.2718
     42  CB       -26.5630    3.3320  -41.2600 C.3    27  ASP27       0.1424
     43  CG       -27.9730    3.4590  -41.8030 C.2    27  ASP27       0.3668
     44  OD1      -28.8090    4.0830  -41.1250 O.co2  27  ASP27      -0.2456
     45  OD2      -28.2440    2.9320  -42.9060 O.co2  27  ASP27      -0.2456
     46  N        -24.0490    4.3780  -39.2180 N.am   28  VAL28      -0.1966
     47  CA       -22.7160    3.9680  -38.7350 C.3    28  VAL28       0.1727
     48  C        -22.5850    3.9700  -37.2100 C.2    28  VAL28       0.2616
     49  O        -22.9850    4.9200  -36.5260 O.2    28  VAL28      -0.2715
     50  CB       -21.5750    4.8220  -39.3380 C.3    28  VAL28       0.0290
     51  CG1      -20.2600    4.4670  -38.7030 C.3    28  VAL28       0.0023
     52  CG2      -21.4970    4.6380  -40.8270 C.3    28  VAL28       0.0023
     53  N        -22.0160    2.8940  -36.6860 N.am   29  VAL29      -0.1977
     54  CA       -21.8280    2.7830  -35.2590 C.3    29  VAL29       0.1596
     55  C        -20.5880    3.5650  -34.8490 C.2    29  VAL29       0.2287
     56  O        -19.5360    3.4280  -35.4540 O.2    29  VAL29      -0.2864
     57  CB       -21.7380    1.3110  -34.8210 C.3    29  VAL29       0.0276
     58  CG1      -21.4750    1.2030  -33.3180 C.3    29  VAL29       0.0022
     59  CG2      -23.0350    0.5900  -35.1780 C.3    29  VAL29       0.0022
     60  N        -17.5050    5.9590  -34.0050 N.3    31  GLN31      -0.1245
     61  CA       -16.5910    6.5720  -34.9610 C.3    31  GLN31       0.1566
     62  C        -16.8840    8.0620  -35.1350 C.2    31  GLN31       0.2260
     63  O        -16.5000    8.6980  -36.1230 O.2    31  GLN31      -0.2867
     64  CB       -16.6700    5.8160  -36.2810 C.3    31  GLN31       0.0367
     65  CG       -16.3750    4.3510  -36.1080 C.3    31  GLN31       0.0905
     66  CD       -14.9770    4.1120  -35.6180 C.2    31  GLN31       0.2608
     67  OE1      -14.2280    3.4140  -36.2610 O.2    31  GLN31      -0.2717
     68  NE2      -14.6130    4.7010  -34.4910 N.am   31  GLN31      -0.0878
     69  N         -9.4220   -4.5850  -37.8000 N.3    57  ARG57      -0.1231
     70  CA       -10.3300   -5.3360  -38.6180 C.3    57  ARG57       0.1694
     71  C        -11.7510   -4.9520  -38.2710 C.2    57  ARG57       0.2593
     72  O        -12.1200   -4.9530  -37.1050 O.2    57  ARG57      -0.2718
     73  CB       -10.1470   -6.8190  -38.3400 C.3    57  ARG57       0.0321
     74  CG       -10.5940   -7.2470  -36.9550 C.3    57  ARG57       0.0489
     75  CD        -9.4750   -7.0320  -35.9800 C.3    57  ARG57       0.2205
     76  NE        -9.9310   -6.6310  -34.6490 N.pl3  57  ARG57      -0.0865
     77  CZ       -10.4640   -7.4600  -33.7590 C.cat  57  ARG57       0.5346
     78  NH1      -10.6520   -8.7480  -34.0520 N.pl3  57  ARG57       0.1354
     79  NH2      -10.8080   -6.9950  -32.5730 N.pl3  57  ARG57       0.1354
     80  N        -12.5370   -4.6070  -39.2850 N.am   58  GLY58      -0.1942
     81  CA       -13.9770   -4.5350  -39.1490 C.3    58  GLY58       0.2014
     82  C        -14.5160   -3.5370  -38.1490 C.2    58  GLY58       0.2639
     83  O        -15.3450   -3.8850  -37.3060 O.2    58  GLY58      -0.2714
     84  N        -14.0780   -2.2900  -38.2500 N.am   59  VAL59      -0.1963
     85  CA       -14.5490   -1.2560  -37.3380 C.3    59  VAL59       0.1727
     86  C        -15.1690   -0.0770  -38.1270 C.2    59  VAL59       0.2617
     87  O        -15.6780    0.9060  -37.5540 O.2    59  VAL59      -0.2715
     88  CB       -13.4030   -0.7890  -36.4310 C.3    59  VAL59       0.0290
     89  CG1      -13.8760    0.3220  -35.5720 C.3    59  VAL59       0.0023
     90  CG2      -12.9320   -1.9040  -35.5600 C.3    59  VAL59       0.0023
     91  N        -15.1330   -0.1840  -39.4530 N.am   60  GLY60      -0.1940
     92  CA       -15.7560    0.8190  -40.2970 C.3    60  GLY60       0.2014
     93  C        -14.8820    1.4180  -41.3740 C.2    60  GLY60       0.2639
     94  O        -15.3810    2.2220  -42.1530 O.2    60  GLY60      -0.2714
     95  N        -13.6100    1.0030  -41.4310 N.am   61  LYS61      -0.1963
     96  CA       -12.5860    1.6140  -42.3090 C.3    61  LYS61       0.1728
     97  C        -13.0280    1.7970  -43.7450 C.2    61  LYS61       0.2617
     98  O        -13.0280    2.8960  -44.2710 O.2    61  LYS61      -0.2715
     99  CB       -11.2640    0.8310  -42.3160 C.3    61  LYS61       0.0311
    100  CG       -10.2160    1.2960  -41.3280 C.3    61  LYS61       0.0038
    101  CD        -8.8980    0.5290  -41.4990 C.3    61  LYS61       0.0206
    102  CE        -9.0830   -0.9750  -41.7530 C.3    61  LYS61       0.1093
    103  NZ        -9.4390   -1.7590  -40.5350 N.3    61  LYS61      -0.1314
    104  N        -13.3870    0.7240  -44.4090 N.am   62  THR62      -0.1937
    105  CA       -13.7520    0.9030  -45.7940 C.3    62  THR62       0.2028
    106  C        -15.2210    1.2900  -45.9140 C.2    62  THR62       0.2642
    107  O        -15.6370    1.8910  -46.8930 O.2    62  THR62      -0.2714
    108  CB       -13.4000   -0.3390  -46.6390 C.3    62  THR62       0.1808
    109  OG1      -14.4940   -1.2610  -46.6280 O.3    62  THR62      -0.2208
    110  CG2      -12.1220   -0.9770  -46.1040 C.3    62  THR62       0.0379
    111  N        -16.0100    0.9590  -44.9110 N.am   63  SER63      -0.1949
    112  CA       -17.4000    1.3380  -44.9780 C.3    63  SER63       0.1924
    113  C        -17.4720    2.8480  -45.0700 C.2    63  SER63       0.2314
    114  O        -18.1930    3.3900  -45.8980 O.2    63  SER63      -0.2863
    115  CB       -18.1620    0.8110  -43.7630 C.3    63  SER63       0.2116
    116  OG       -18.4410   -0.5820  -43.9100 O.3    63  SER63      -0.2180
    117  N         -6.9010   -2.0200  -48.4220 N.3   137  GLU137     -0.1245
    118  CA        -5.7590   -2.7790  -47.9240 C.3   137  GLU137      0.1567
    119  C         -4.4340   -2.3310  -48.5990 C.2   137  GLU137      0.2260
    120  O         -3.6570   -3.1500  -49.0720 O.2   137  GLU137     -0.2867
    121  CB        -6.0530   -4.2910  -47.8990 C.3   137  GLU137      0.0388
    122  CG        -7.2190   -4.7240  -46.8750 C.3   137  GLU137      0.1160
    123  CD        -7.0730   -4.2120  -45.3520 C.2   137  GLU137      0.3649
    124  OE1       -5.9520   -4.0510  -44.7690 O.co2 137  GLU137     -0.2457
    125  OE2       -8.1160   -3.9550  -44.7160 O.co2 137  GLU137     -0.2457
    126  N        -14.6820   -0.6080  -31.3490 N.3   188  LEU188     -0.1245
    127  CA       -15.9920   -0.3090  -30.7840 C.3   188  LEU188      0.1561
    128  C        -16.1560   -0.9140  -29.4040 C.2   188  LEU188      0.2260
    129  O        -15.6940   -2.0310  -29.1040 O.2   188  LEU188     -0.2867
    130  CB       -17.1280   -0.7610  -31.6870 C.3   188  LEU188      0.0270
    131  CG       -16.9590   -0.4070  -33.1520 C.3   188  LEU188      0.0019
    132  CD1      -18.2470   -0.6870  -33.9340 C.3   188  LEU188      0.0001
    133  CD2      -16.5100    1.0470  -33.3100 C.3   188  LEU188      0.0001
    134  N        -25.8270   -2.4390  -31.6080 N.3   196  GLN196     -0.1245
    135  CA       -25.9750   -2.7770  -33.0100 C.3   196  GLN196      0.1566
    136  C        -26.3870   -4.2350  -33.1650 C.2   196  GLN196      0.2260
    137  O        -27.1320   -4.5790  -34.0770 O.2   196  GLN196     -0.2867
    138  CB       -24.6620   -2.5220  -33.7570 C.3   196  GLN196      0.0367
    139  CG       -24.6840   -2.8550  -35.2520 C.3   196  GLN196      0.0905
    140  CD       -25.4020   -1.8120  -36.0590 C.2   196  GLN196      0.2608
    141  OE1      -26.0770   -0.9360  -35.5120 O.2   196  GLN196     -0.2717
    142  NE2      -25.2670   -1.9010  -37.3730 N.am  196  GLN196     -0.0878
    143  N        -16.7350   -4.8340  -34.9410 N.3   224  LEU224     -0.1231
    144  CA       -18.1210   -5.0310  -35.3430 C.3   224  LEU224      0.1693
    145  C        -18.2770   -6.1070  -36.4110 C.2   224  LEU224      0.2591
    146  O        -19.3720   -6.6480  -36.5920 O.2   224  LEU224     -0.2718
    147  CB       -18.7440   -3.7290  -35.8270 C.3   224  LEU224      0.0284
    148  CG       -20.2600   -3.6470  -35.6200 C.3   224  LEU224      0.0019
    149  CD1      -20.6690   -4.3680  -34.3460 C.3   224  LEU224      0.0001
    150  CD2      -20.7380   -2.2010  -35.5780 C.3   224  LEU224      0.0001
    151  N        -17.2110   -6.4270  -37.1370 N.am  225  ARG225     -0.1980
    152  CA       -17.3160   -7.5910  -37.9980 C.3   225  ARG225      0.1597
    153  C        -17.1810   -8.8900  -37.1600 C.2   225  ARG225      0.2287
    154  O        -18.0750   -9.7450  -37.1860 O.2   225  ARG225     -0.2864
    155  CB       -16.3570   -7.5440  -39.1880 C.3   225  ARG225      0.0334
    156  CG       -16.7300   -8.5650  -40.2510 C.3   225  ARG225      0.0492
    157  CD       -16.1900   -8.2320  -41.6390 C.3   225  ARG225      0.2205
    158  NE       -14.7440   -8.1690  -41.6190 N.pl3 225  ARG225     -0.0865
    159  CZ       -14.0420   -7.1870  -42.1610 C.cat 225  ARG225      0.5346
    160  NH1      -14.6500   -6.2020  -42.7890 N.pl3 225  ARG225      0.1354
    161  NH2      -12.7300   -7.2000  -42.0850 N.pl3 225  ARG225      0.1354
    162  N        -20.5750   -9.5940  -36.0080 N.3   228  LEU228     -0.1245
    163  CA       -21.5730  -10.1110  -36.9220 C.3   228  LEU228      0.1561
    164  C        -21.1950  -11.4810  -37.4690 C.2   228  LEU228      0.2260
    165  O        -22.0680  -12.2910  -37.7600 O.2   228  LEU228     -0.2867
    166  CB       -21.8510   -9.1090  -38.0380 C.3   228  LEU228      0.0270
    167  CG       -22.3040   -7.7400  -37.5320 C.3   228  LEU228      0.0019
    168  CD1      -22.4770   -6.7950  -38.6900 C.3   228  LEU228      0.0001
    169  CD2      -23.5940   -7.8840  -36.7700 C.3   228  LEU228      0.0001
@<TRIPOS>BOND
     1   120   119    2
     2   119   118    1
     3   117   118    1
     4   118   121    1
     5   121   122    1
     6    27    26    1
     7    27    28    2
     8    26    25    1
     9   107   106    2
    10   122   123    1
    11   108   109    1
    12   108   110    1
    13   108   105    1
    14    30    28    1
    15    28    29    1
    16   106   105    1
    17   106   111   am
    18   114   113    2
    19   105   104    1
    20    25    24    1
    21    34    33    2
    22   123   124   ar
    23   123   125   ar
    24    24    21    1
    25    23    22    2
    26   113   112    1
    27   112   111    1
    28   112   115    1
    29    33    32    1
    30   104    97   am
    31    98    97    2
    32    22    21    1
    33    22    31   am
    34    21    20    1
    35   116   115    1
    36    20     8   am
    37    97    96    1
    38     6     7    1
    39     3     4    2
    40     3     2    1
    41    31    32    1
    42    31    37    1
    43    32    35    1
    44    45    43   ar
    45   160   159    1
    46     8     7    1
    47     8     9    2
    48     7    10    1
    49    37    36    1
    50    35    36    1
    51    99    96    1
    52    99   100    1
    53    96    95    1
    54     5     2    1
    55     2     1    1
    56   159   161    1
    57   159   158    2
    58    94    93    2
    59    43    42    1
    60    43    44   ar
    61   102   101    1
    62   102   103    1
    63   157   158    1
    64   157   156    1
    65   101   100    1
    66    95    93   am
    67    93    92    1
    68    42    39    1
    69    10    11    1
    70    12    11   ar
    71    12    14   ar
    72    11    13   ar
    73    13    16   ar
    74    13    15   ar
    75    14    15   ar
    76    16    18   ar
    77    15    17   ar
    78    52    50    1
    79    18    19   ar
    80    17    19   ar
    81    92    91    1
    82   156   155    1
    83    38    39    1
    84    39    40    1
    85    91    86   am
    86    50    47    1
    87    50    51    1
    88    80    81    1
    89    80    71   am
    90    40    46   am
    91    40    41    2
    92    46    47    1
    93   155   152    1
    94    81    82    1
    95    47    48    1
    96   168   167    1
    97    70    73    1
    98    70    71    1
    99    70    69    1
   100    73    74    1
   101    71    72    2
   102    84    82   am
   103    84    85    1
   104    82    83    2
   105    86    87    2
   106    86    85    1
   107   166   167    1
   108   166   163    1
   109   152   153    1
   110   152   151    1
   111   165   164    2
   112   167   169    1
   113   164   163    1
   114   142   140   am
   115    85    88    1
   116    48    53   am
   117    48    49    2
   118   154   153    2
   119   151   145   am
   120    74    75    1
   121   163   162    1
   122    53    54    1
   123   146   145    2
   124    88    89    1
   125    88    90    1
   126   145   144    1
   127    64    65    1
   128    64    61    1
   129    67    66    2
   130    63    62    2
   131    65    66    1
   132   140   141    2
   133   140   139    1
   134    75    76    1
   135   147   148    1
   136   147   144    1
   137   148   150    1
   138   148   149    1
   139    66    68   am
   140    56    55    2
   141   144   143    1
   142    54    55    1
   143    54    57    1
   144   139   138    1
   145    59    57    1
   146    62    61    1
   147    61    60    1
   148    57    58    1
   149    76    77    2
   150   137   136    2
   151    78    77    1
   152   132   131    1
   153    77    79    1
   154   138   135    1
   155   133   131    1
   156   136   135    1
   157   131   130    1
   158   135   134    1
   159   130   127    1
   160   126   127    1
   161   127   128    1
   162   128   129    2
