@<TRIPOS>MOLECULE
tmp/3glmD00.pdb
 79 74 0 0 0
SMALL
GASTEIGER

@<TRIPOS>ATOM
      1  N        -23.3490  -30.2270   36.5070 N.3   442  ALA442     -0.1231
      2  CA       -22.5990  -30.3220   37.7600 C.3   442  ALA442      0.1694
      3  C        -21.3380  -29.4370   37.7570 C.2   442  ALA442      0.2591
      4  O        -21.0880  -28.6870   36.8120 O.2   442  ALA442     -0.2718
      5  CB       -22.2690  -31.7720   38.0820 C.3   442  ALA442      0.0304
      6  N        -20.5630  -29.5080   38.8360 N.am  443  ALA443     -0.1980
      7  CA       -19.3160  -28.7790   38.9270 C.3   443  ALA443      0.1597
      8  C        -18.3370  -29.2880   37.8800 C.2   443  ALA443      0.2287
      9  O        -17.3690  -28.6040   37.5420 O.2   443  ALA443     -0.2864
     10  CB       -18.7230  -28.8960   40.3210 C.3   443  ALA443      0.0319
     11  N        -17.6700  -26.9150   35.2200 N.3   446  TYR446     -0.1241
     12  CA       -16.6830  -25.9130   35.5980 C.3   446  TYR446      0.1605
     13  C        -15.2560  -26.4070   35.4370 C.2   446  TYR446      0.2264
     14  O        -14.4340  -25.7380   34.8600 O.2   446  TYR446     -0.2867
     15  CB       -16.8640  -25.4960   37.0550 C.3   446  TYR446      0.0534
     16  CG       -18.2490  -25.0370   37.4680 C.ar  446  TYR446     -0.0201
     17  CD1      -19.1400  -24.4670   36.5610 C.ar  446  TYR446     -0.0009
     18  CD2      -18.6400  -25.1440   38.7980 C.ar  446  TYR446     -0.0009
     19  CE1      -20.4080  -24.0360   36.9870 C.ar  446  TYR446      0.0417
     20  CE2      -19.8660  -24.7250   39.2270 C.ar  446  TYR446      0.0417
     21  CZ       -20.7540  -24.1740   38.3320 C.ar  446  TYR446      0.1957
     22  OH       -21.9690  -23.7600   38.8170 O.3   446  TYR446     -0.2866
     23  N        -27.8340  -27.7600   36.2590 N.3   470  VAL470     -0.1231
     24  CA       -27.1190  -28.1490   37.4690 C.3   470  VAL470      0.1692
     25  C        -27.0480  -29.6850   37.5720 C.2   470  VAL470      0.2591
     26  O        -25.9860  -30.2500   37.8110 O.2   470  VAL470     -0.2718
     27  CB       -27.7410  -27.4520   38.7400 C.3   470  VAL470      0.0266
     28  CG1      -29.1930  -27.8570   38.9990 C.3   470  VAL470      0.0020
     29  CG2      -26.8610  -27.6250   39.9710 C.3   470  VAL470      0.0020
     30  N        -28.1960  -30.3280   37.3430 N.am  471  MET471     -0.1979
     31  CA       -28.3910  -31.7760   37.3730 C.3   471  MET471      0.1605
     32  C        -29.7290  -32.0290   36.6850 C.2   471  MET471      0.2287
     33  O        -30.4910  -31.0820   36.4830 O.2   471  MET471     -0.2864
     34  CB       -28.4400  -32.2840   38.8140 C.3   471  MET471      0.0413
     35  CG       -29.5650  -31.7150   39.6630 C.3   471  MET471      0.0598
     36  SD       -29.3820  -32.1880   41.3910 S.3   471  MET471     -0.1393
     37  CE       -27.9670  -31.1850   41.8910 C.3   471  MET471      0.0692
     38  N        -33.7830  -33.9210   45.1840 N.3   479  ALA479     -0.1231
     39  CA       -32.8730  -33.1370   46.0190 C.3   479  ALA479      0.1694
     40  C        -33.5590  -31.9420   46.6900 C.2   479  ALA479      0.2591
     41  O        -33.2960  -31.6450   47.8620 O.2   479  ALA479     -0.2718
     42  CB       -31.6830  -32.6770   45.2060 C.3   479  ALA479      0.0304
     43  N        -34.4430  -31.2740   45.9510 N.am  480  MET480     -0.1979
     44  CA       -35.1510  -30.0890   46.4460 C.3   480  MET480      0.1605
     45  C        -36.3030  -30.3920   47.4130 C.2   480  MET480      0.2287
     46  O        -36.4450  -29.7200   48.4310 O.2   480  MET480     -0.2864
     47  CB       -35.6570  -29.2510   45.2640 C.3   480  MET480      0.0413
     48  CG       -36.5150  -28.0640   45.6290 C.3   480  MET480      0.0598
     49  SD       -35.6540  -26.7830   46.5330 S.3   480  MET480     -0.1393
     50  CE       -36.9440  -25.5440   46.6870 C.3   480  MET480      0.0692
     51  N        -37.1450  -34.0970   51.3880 N.3   483  ARG483     -0.1231
     52  CA       -37.2440  -33.8690   52.8330 C.3   483  ARG483      0.1694
     53  C        -38.5280  -33.1470   53.2340 C.2   483  ARG483      0.2591
     54  O        -39.0600  -33.3780   54.3250 O.2   483  ARG483     -0.2718
     55  CB       -36.0050  -33.1270   53.3550 C.3   483  ARG483      0.0321
     56  CG       -34.8580  -34.0720   53.7260 C.3   483  ARG483      0.0489
     57  CD       -33.4690  -33.4050   53.6830 C.3   483  ARG483      0.2205
     58  NE       -33.0450  -33.1100   52.3100 N.pl3 483  ARG483     -0.0865
     59  CZ       -33.1110  -31.9040   51.7540 C.cat 483  ARG483      0.5346
     60  NH1      -33.5620  -30.8860   52.4670 N.pl3 483  ARG483      0.1354
     61  NH2      -32.7220  -31.7180   50.4950 N.pl3 483  ARG483      0.1354
     62  N        -39.0180  -32.2810   52.3470 N.am  484  LYS484     -0.1980
     63  CA       -40.2940  -31.5960   52.5590 C.3   484  LYS484      0.1596
     64  C        -41.4850  -32.5530   52.3910 C.2   484  LYS484      0.2287
     65  O        -42.5910  -32.2530   52.8470 O.2   484  LYS484     -0.2864
     66  CB       -40.4250  -30.3600   51.6570 C.3   484  LYS484      0.0298
     67  CG       -39.4100  -29.2580   51.9920 C.3   484  LYS484      0.0038
     68  CD       -39.5470  -28.0790   51.0040 C.3   484  LYS484      0.0206
     69  CE       -38.1930  -27.4210   51.0730 C.3   484  LYS484      0.1093
     70  NZ       -38.0620  -26.2070   50.2510 N.3   484  LYS484     -0.1314
     71  N        -41.5300  -34.3610   56.0130 N.3   487  LYS487     -0.1245
     72  CA       -42.1490  -33.4410   56.9720 C.3   487  LYS487      0.1561
     73  C        -43.5840  -33.0540   56.5730 C.2   487  LYS487      0.2260
     74  O        -43.9060  -31.8660   56.4860 O.2   487  LYS487     -0.2867
     75  CB       -41.2760  -32.1890   57.1510 C.3   487  LYS487      0.0271
     76  CG       -39.8990  -32.5140   57.7100 C.3   487  LYS487      0.0035
     77  CD       -39.0920  -31.2500   57.9500 C.3   487  LYS487      0.0206
     78  CE       -37.6260  -31.5560   58.1620 C.3   487  LYS487      0.1093
     79  NZ       -36.9620  -32.0180   56.9120 N.3   487  LYS487     -0.1314
@<TRIPOS>BOND
     1    14    13    2
     2    11    12    1
     3    13    12    1
     4    12    15    1
     5    23    24    1
     6    33    32    2
     7     1     2    1
     8    17    19   ar
     9    17    16   ar
    10    32    31    1
    11     4     3    2
    12    19    21   ar
    13    15    16    1
    14    30    31    1
    15    30    25   am
    16    31    34    1
    17    16    18   ar
    18    24    25    1
    19    24    27    1
    20     9     8    2
    21    25    26    2
    22     3     2    1
    23     3     6   am
    24     2     5    1
    25     8     7    1
    26    21    22    1
    27    21    20   ar
    28    27    28    1
    29    27    29    1
    30    18    20   ar
    31    34    35    1
    32     6     7    1
    33     7    10    1
    34    35    36    1
    35    36    37    1
    36    38    39    1
    37    42    39    1
    38    47    48    1
    39    47    44    1
    40    48    49    1
    41    43    44    1
    42    43    40   am
    43    39    40    1
    44    44    45    1
    45    49    50    1
    46    40    41    2
    47    45    46    2
    48    70    69    1
    49    61    59    1
    50    68    69    1
    51    68    67    1
    52    51    52    1
    53    66    67    1
    54    66    63    1
    55    59    58    2
    56    59    60    1
    57    58    57    1
    58    62    63    1
    59    62    53   am
    60    64    63    1
    61    64    65    2
    62    52    53    1
    63    52    55    1
    64    53    54    2
    65    55    56    1
    66    57    56    1
    67    71    72    1
    68    74    73    2
    69    73    72    1
    70    79    78    1
    71    72    75    1
    72    75    76    1
    73    76    77    1
    74    77    78    1
