@<TRIPOS>MOLECULE
tmp/3glqB02.pdb
 172 162 0 0 0
SMALL
GASTEIGER

@<TRIPOS>ATOM
      1  N         -9.6720  -25.5230   19.5490 N.3    50  LEU50      -0.1231
      2  CA        -9.1230  -24.5870   18.5710 C.3    50  LEU50       0.1693
      3  C         -9.8560  -24.6600   17.2480 C.2    50  LEU50       0.2592
      4  O        -10.0390  -25.7220   16.6780 O.2    50  LEU50      -0.2718
      5  CB        -7.6090  -24.8810   18.3570 C.3    50  LEU50       0.0284
      6  CG        -6.5840  -23.8650   17.7310 C.3    50  LEU50       0.0019
      7  CD1       -5.1950  -24.4210   17.8300 C.3    50  LEU50       0.0001
      8  CD2       -6.8160  -23.6150   16.3340 C.3    50  LEU50       0.0001
      9  N        -10.2540  -23.4990   16.7480 N.am   51  HIS51      -0.1976
     10  CA       -10.8480  -23.3970   15.4160 C.3    51  HIS51       0.1656
     11  C        -10.5250  -24.5780   14.5150 C.2    51  HIS51       0.2291
     12  O         -9.3950  -24.7380   14.0360 O.2    51  HIS51      -0.2864
     13  CB       -10.4560  -22.1130   14.7200 C.3    51  HIS51       0.0771
     14  CG       -10.5140  -20.9140   15.6030 C.ar   51  HIS51       0.0820
     15  ND1      -11.6850  -20.4680   16.1720 N.ar   51  HIS51      -0.2267
     16  CD2       -9.5380  -20.0710   16.0240 C.ar   51  HIS51       0.1154
     17  CE1      -11.4240  -19.4010   16.9070 C.ar   51  HIS51       0.1986
     18  NE2      -10.1230  -19.1610   16.8600 N.ar   51  HIS51      -0.2212
     19  N        -10.3410  -25.7110   11.5500 N.3    53  THR53      -0.1218
     20  CA       -10.1480  -25.3180   10.1740 C.3    53  THR53       0.1862
     21  C         -9.2920  -26.3550    9.4850 C.2    53  THR53       0.2287
     22  O         -8.7470  -27.2740   10.1290 O.2    53  THR53      -0.2866
     23  CB        -9.4010  -24.0040   10.1090 C.3    53  THR53       0.1770
     24  OG1       -8.0890  -24.1960   10.6510 O.3    53  THR53      -0.2211
     25  CG2      -10.1830  -22.8900   10.9160 C.3    53  THR53       0.0375
     26  N         -6.4890  -25.6450    8.5110 N.3    55  GLN55      -0.1231
     27  CA        -5.1370  -25.3620    9.0000 C.3    55  GLN55       0.1698
     28  C         -4.9010  -26.1530   10.2800 C.2    55  GLN55       0.2592
     29  O         -3.8470  -26.7440   10.4820 O.2    55  GLN55      -0.2718
     30  CB        -4.9500  -23.8670    9.2610 C.3    55  GLN55       0.0381
     31  CG        -4.8350  -23.0740    7.9900 C.3    55  GLN55       0.0905
     32  CD        -6.1140  -23.0650    7.1860 C.2    55  GLN55       0.2608
     33  OE1       -7.1980  -22.8240    7.7360 O.2    55  GLN55      -0.2717
     34  NE2       -6.0080  -23.3550    5.8880 N.am   55  GLN55      -0.0878
     35  N         -5.9050  -26.1710   11.1300 N.am   56  THR56      -0.1953
     36  CA        -5.8390  -26.9320   12.3480 C.3    56  THR56       0.1897
     37  C         -5.7780  -28.4380   12.0460 C.2    56  THR56       0.2313
     38  O         -5.2010  -29.2020   12.7860 O.2    56  THR56      -0.2863
     39  CB        -7.0410  -26.5860   13.1770 C.3    56  THR56       0.1794
     40  OG1       -6.9350  -25.2070   13.5890 O.3    56  THR56      -0.2208
     41  CG2       -7.1670  -27.4850   14.3900 C.3    56  THR56       0.0378
     42  N         -6.7370  -22.5830   22.3890 N.3   128  ASP128     -0.1239
     43  CA        -6.7610  -21.2730   21.7540 C.3   128  ASP128      0.1674
     44  C         -7.9240  -20.5580   22.3800 C.2   128  ASP128      0.2266
     45  O         -9.0950  -20.8920   22.1030 O.2   128  ASP128     -0.2867
     46  CB        -6.9600  -21.4010   20.2600 C.3   128  ASP128      0.1410
     47  CG        -7.0300  -20.0600   19.5400 C.2   128  ASP128      0.3668
     48  OD1       -7.5270  -19.0520   20.0680 O.co2 128  ASP128     -0.2456
     49  OD2       -6.5970  -20.0090   18.3850 O.co2 128  ASP128     -0.2456
     50  N         -2.4210  -20.4130   22.4460 N.3   188  GLU188     -0.1231
     51  CA        -2.2190  -19.8120   21.1140 C.3   188  GLU188      0.1699
     52  C         -2.4730  -18.2860   21.0400 C.2   188  GLU188      0.2592
     53  O         -1.8740  -17.6160   20.2310 O.2   188  GLU188     -0.2718
     54  CB        -3.2190  -20.5350   20.1990 C.3   188  GLU188      0.0402
     55  CG        -3.4670  -20.0290   18.8010 C.3   188  GLU188      0.1161
     56  CD        -2.6070  -20.7320   17.8370 C.2   188  GLU188      0.3649
     57  OE1       -2.1680  -21.8610   18.2040 O.co2 188  GLU188     -0.2457
     58  OE2       -2.3500  -20.1550   16.7390 O.co2 188  GLU188     -0.2457
     59  N         -3.3770  -17.7250   21.8180 N.am  189  THR189     -0.1953
     60  CA        -3.8010  -16.3940   21.4870 C.3   189  THR189      0.1897
     61  C         -3.7110  -15.4370   22.6510 C.2   189  THR189      0.2313
     62  O         -3.7200  -15.8340   23.8300 O.2   189  THR189     -0.2863
     63  CB        -5.2410  -16.4230   20.8670 C.3   189  THR189      0.1794
     64  OG1       -5.4090  -15.2970   19.9630 O.3   189  THR189     -0.2208
     65  CG2       -6.3190  -16.4590   21.9830 C.3   189  THR189      0.0378
     66  N          4.9180  -15.9770   15.9430 N.3   218  LYS218     -0.1245
     67  CA         3.4600  -16.0340   16.0710 C.3   218  LYS218      0.1561
     68  C          2.8370  -14.6410   16.0950 C.2   218  LYS218      0.2260
     69  O          2.3000  -14.2300   15.0810 O.2   218  LYS218     -0.2867
     70  CB         3.0350  -16.8300   17.2880 C.3   218  LYS218      0.0271
     71  CG         1.5850  -17.2980   17.2520 C.3   218  LYS218      0.0035
     72  CD         0.5660  -16.1930   17.4440 C.3   218  LYS218      0.0206
     73  CE        -0.8640  -16.7800   17.4900 C.3   218  LYS218      0.1093
     74  NZ        -1.9510  -15.7150   17.6800 N.3   218  LYS218     -0.1314
     75  N          1.1800  -14.1720   12.4260 N.3   222  ASP222     -0.1225
     76  CA        -0.1920  -14.5940   12.4390 C.3   222  ASP222      0.1805
     77  C         -1.1060  -13.4470   12.7690 C.2   222  ASP222      0.2597
     78  O         -1.9940  -13.1450   11.9970 O.2   222  ASP222     -0.2718
     79  CB        -0.2930  -15.7340   13.4550 C.3   222  ASP222      0.1424
     80  CG        -1.6940  -16.1460   13.7930 C.2   222  ASP222      0.3668
     81  OD1       -2.5760  -15.2890   13.9650 O.co2 222  ASP222     -0.2456
     82  OD2       -1.9070  -17.3450   14.0070 O.co2 222  ASP222     -0.2456
     83  N         -0.9110  -12.8140   13.9120 N.am  223  ASN223     -0.1974
     84  CA        -1.8480  -11.7730   14.3440 C.3   223  ASN223      0.1688
     85  C         -1.8880  -10.6310   13.3370 C.2   223  ASN223      0.2292
     86  O         -2.9630  -10.1620   12.9470 O.2   223  ASN223     -0.2864
     87  CB        -1.5090  -11.2510   15.7370 C.3   223  ASN223      0.1181
     88  CG        -1.4430  -12.3630   16.8100 C.2   223  ASN223      0.2629
     89  OD1       -1.0960  -13.5150   16.5240 O.2   223  ASN223     -0.2716
     90  ND2       -1.7360  -11.9970   18.0640 N.am  223  ASN223     -0.0877
     91  N        -12.9640   -8.9070   15.3560 N.3   331  ILE331     -0.1245
     92  CA       -11.9210   -9.8280   14.9650 C.3   331  ILE331      0.1561
     93  C        -11.1050  -10.2530   16.2030 C.2   331  ILE331      0.2260
     94  O        -10.2040  -11.1020   16.1260 O.2   331  ILE331     -0.2867
     95  CB       -11.0610   -9.2340   13.8670 C.3   331  ILE331      0.0252
     96  CG1      -10.2000  -10.3470   13.2220 C.3   331  ILE331      0.0019
     97  CG2      -10.2170   -8.0600   14.3960 C.3   331  ILE331      0.0019
     98  CD1       -9.8420  -10.1240   11.7740 C.3   331  ILE331      0.0001
     99  N        -10.8300  -12.1180   20.0140 N.3   333  HIS333     -0.1241
    100  CA       -11.1700  -13.4950   20.2900 C.3   333  HIS333      0.1621
    101  C        -12.6430  -13.7240   20.7390 C.2   333  HIS333      0.2264
    102  O        -13.2420  -14.7610   20.3810 O.2   333  HIS333     -0.2867
    103  CB       -10.2230  -14.1200   21.3100 C.3   333  HIS333      0.0745
    104  CG       -10.5390  -15.5440   21.5690 C.ar  333  HIS333      0.0817
    105  ND1      -10.2140  -16.5420   20.6740 N.ar  333  HIS333     -0.2268
    106  CD2      -11.2590  -16.1330   22.5510 C.ar  333  HIS333      0.1154
    107  CE1      -10.6500  -17.6990   21.1400 C.ar  333  HIS333      0.1986
    108  NE2      -11.2960  -17.4800   22.2700 N.ar  333  HIS333     -0.2212
    109  N        -15.6590  -13.7660   16.0290 N.3   374  LEU374     -0.1245
    110  CA       -14.5150  -13.3910   15.1790 C.3   374  LEU374      0.1561
    111  C        -14.8850  -13.4460   13.7200 C.2   374  LEU374      0.2260
    112  O        -15.2370  -14.4980   13.2150 O.2   374  LEU374     -0.2867
    113  CB       -13.2550  -14.2450   15.3600 C.3   374  LEU374      0.0270
    114  CG       -13.0050  -15.2500   16.4200 C.3   374  LEU374      0.0019
    115  CD1      -13.8310  -16.5280   16.1400 C.3   374  LEU374      0.0001
    116  CD2      -11.5080  -15.5160   16.4190 C.3   374  LEU374      0.0001
    117  N        -13.2090  -12.9960   10.7330 N.3   376  ASN376     -0.1225
    118  CA       -12.4100  -13.7220    9.7230 C.3   376  ASN376      0.1785
    119  C        -12.6980  -15.2280    9.7190 C.2   376  ASN376      0.2597
    120  O        -12.8690  -15.8520    8.6450 O.2   376  ASN376     -0.2718
    121  CB       -10.9230  -13.4430    9.8390 C.3   376  ASN376      0.1169
    122  CG       -10.3590  -13.8350   11.1750 C.2   376  ASN376      0.2627
    123  OD1      -11.0960  -13.9810   12.1770 O.2   376  ASN376     -0.2716
    124  ND2       -9.0210  -13.9930   11.2180 N.am  376  ASN376     -0.0877
    125  N        -12.8390  -15.8060   10.8910 N.am  377  LEU377     -0.1980
    126  CA       -13.1540  -17.2510   10.9750 C.3   377  LEU377      0.1596
    127  C        -14.6600  -17.5030   10.7650 C.2   377  LEU377      0.2287
    128  O        -15.0860  -18.5320   10.1930 O.2   377  LEU377     -0.2864
    129  CB       -12.6420  -17.7860   12.3150 C.3   377  LEU377      0.0297
    130  CG       -11.0940  -17.9810   12.3640 C.3   377  LEU377      0.0022
    131  CD1      -10.5570  -17.7260   13.7450 C.3   377  LEU377      0.0001
    132  CD2      -10.6910  -19.3870   11.8970 C.3   377  LEU377      0.0001
    133  N        -12.4800  -17.9390    6.2710 N.3   381  THR381     -0.1203
    134  CA       -11.7670  -19.1520    6.6910 C.3   381  THR381      0.1994
    135  C        -10.5890  -18.8210    7.5600 C.2   381  THR381      0.2618
    136  O         -9.6520  -19.6120    7.7140 O.2   381  THR381     -0.2717
    137  CB       -11.2370  -19.9550    5.5100 C.3   381  THR381      0.1784
    138  OG1      -10.2550  -19.1900    4.8260 O.3   381  THR381     -0.2211
    139  CG2      -12.3710  -20.3660    4.5580 C.3   381  THR381      0.0376
    140  N        -10.6270  -17.6690    8.1860 N.am  382  GLY382     -0.1942
    141  CA        -9.5340  -17.3200    9.0810 C.3   382  GLY382      0.2014
    142  C         -8.2760  -17.0760    8.2740 C.2   382  GLY382      0.2638
    143  O         -8.3060  -16.9430    7.0460 O.2   382  GLY382     -0.2714
    144  N         -7.1470  -17.0430    8.9510 N.am  383  HIS383     -0.1973
    145  CA        -5.8730  -16.8240    8.2580 C.3   383  HIS383      0.1656
    146  C         -5.5860  -17.9240    7.2890 C.2   383  HIS383      0.2291
    147  O         -6.0440  -19.0420    7.4520 O.2   383  HIS383     -0.2864
    148  CB        -4.6960  -16.7160    9.1950 C.3   383  HIS383      0.0771
    149  CG        -4.8740  -15.7360   10.2880 C.ar  383  HIS383      0.0820
    150  ND1       -5.7890  -14.6990   10.2280 N.ar  383  HIS383     -0.2267
    151  CD2       -4.2380  -15.6160   11.4770 C.ar  383  HIS383      0.1154
    152  CE1       -5.7300  -14.0060   11.3550 C.ar  383  HIS383      0.1986
    153  NE2       -4.7930  -14.5390   12.1250 N.ar  383  HIS383     -0.2212
    154  N         -0.4550  -19.5750    9.1410 N.3   388  MET388     -0.1245
    155  CA        -0.8400  -20.4350   10.2410 C.3   388  MET388      0.1570
    156  C          0.2400  -21.4920   10.5170 C.2   388  MET388      0.2261
    157  O          0.3530  -21.9500   11.6350 O.2   388  MET388     -0.2867
    158  CB        -2.1900  -21.1380   10.0390 C.3   388  MET388      0.0387
    159  CG        -3.4310  -20.2610   10.1530 C.3   388  MET388      0.0595
    160  SD        -3.4020  -19.1310   11.5240 S.3   388  MET388     -0.1393
    161  CE        -3.5630  -20.3130   12.8660 C.3   388  MET388      0.0692
    162  N          1.4470  -22.8730   14.2520 N.3   392  PHE392     -0.1241
    163  CA         1.2690  -24.2720   14.5190 C.3   392  PHE392      0.1605
    164  C          2.5700  -25.0720   14.6170 C.2   392  PHE392      0.2264
    165  O          2.6320  -26.0830   15.3210 O.2   392  PHE392     -0.2867
    166  CB         0.3270  -24.8480   13.4690 C.3   392  PHE392      0.0534
    167  CG        -1.1260  -24.3910   13.6210 C.ar  392  PHE392     -0.0203
    168  CD1       -1.5320  -23.6350   14.6990 C.ar  392  PHE392     -0.0042
    169  CD2       -2.0690  -24.7520   12.6810 C.ar  392  PHE392     -0.0042
    170  CE1       -2.8580  -23.2550   14.8300 C.ar  392  PHE392     -0.0003
    171  CE2       -3.3990  -24.3550   12.8080 C.ar  392  PHE392     -0.0003
    172  CZ        -3.7960  -23.6360   13.8720 C.ar  392  PHE392     -0.0000
@<TRIPOS>BOND
     1   139   137    1
     2   138   137    1
     3   137   134    1
     4    34    32   am
     5   133   134    1
     6   134   135    1
     7   143   142    2
     8    32    33    2
     9    32    31    1
    10   146   147    2
    11   146   145    1
    12   135   136    2
    13   135   140   am
    14    31    30    1
    15   140   141    1
    16   145   144    1
    17   145   148    1
    18   142   144   am
    19   142   141    1
    20    26    27    1
    21   120   119    2
    22    27    30    1
    23    27    28    1
    24   154   155    1
    25   148   149    1
    26    21    22    2
    27    21    20    1
    28   119   118    1
    29   119   125   am
    30   118   121    1
    31   118   117    1
    32   121   122    1
    33   158   159    1
    34   158   155    1
    35    23    20    1
    36    23    24    1
    37    23    25    1
    38   159   160    1
    39    20    19    1
    40   128   127    2
    41   150   149   ar
    42   150   152   ar
    43   155   156    1
    44    28    29    2
    45    28    35   am
    46   149   151   ar
    47   156   157    2
    48   127   126    1
    49   125   126    1
    50   126   129    1
    51    35    36    1
    52   122   124   am
    53   122   123    2
    54   152   153   ar
    55   151   153   ar
    56   160   161    1
    57    98    96    1
    58   132   130    1
    59    78    77    2
    60    37    36    1
    61    37    38    2
    62   129   130    1
    63    36    39    1
    64   130   131    1
    65    75    76    1
    66    76    77    1
    67    76    79    1
    68   169   171   ar
    69   169   167   ar
    70    77    83   am
    71   171   172   ar
    72    86    85    2
    73    39    40    1
    74    39    41    1
    75   112   111    2
    76    96    95    1
    77    85    84    1
    78    79    80    1
    79   166   167    1
    80   166   163    1
    81   167   168   ar
    82   111   110    1
    83    80    81   ar
    84    80    82   ar
    85    95    97    1
    86    95    92    1
    87   172   170   ar
    88    83    84    1
    89    12    11    2
    90   162   163    1
    91    84    87    1
    92    11    10    1
    93   163   164    1
    94   164   165    2
    95   168   170   ar
    96    13    10    1
    97    13    14    1
    98    92    91    1
    99    92    93    1
   100    69    68    2
   101   110   113    1
   102   110   109    1
   103   113   114    1
   104    10     9    1
   105    14    16   ar
   106    14    15   ar
   107    87    88    1
   108    66    67    1
   109    16    18   ar
   110    67    68    1
   111    67    70    1
   112    94    93    2
   113   115   114    1
   114    15    17   ar
   115     8     6    1
   116   116   114    1
   117    89    88    2
   118     4     3    2
   119    58    56   ar
   120     9     3   am
   121    88    90   am
   122    18    17   ar
   123     3     2    1
   124    71    70    1
   125    71    72    1
   126    72    73    1
   127    73    74    1
   128     6     7    1
   129     6     5    1
   130    56    57   ar
   131    56    55    1
   132     5     2    1
   133    49    47   ar
   134     2     1    1
   135    55    54    1
   136    47    48   ar
   137    47    46    1
   138    64    63    1
   139    99   100    1
   140    54    51    1
   141    53    52    2
   142    46    43    1
   143   100   101    1
   144   100   103    1
   145   102   101    2
   146   105   107   ar
   147   105   104   ar
   148    63    60    1
   149    63    65    1
   150    52    51    1
   151    52    59   am
   152    51    50    1
   153   107   108   ar
   154   103   104    1
   155    60    59    1
   156    60    61    1
   157   104   106   ar
   158    43    44    1
   159    43    42    1
   160    45    44    2
   161   108   106   ar
   162    61    62    2
