@<TRIPOS>MOLECULE
tmp/3glrA00.pdb
 199 197 0 0 0
SMALL
GASTEIGER

@<TRIPOS>ATOM
      1  N         17.9410   38.2980  -12.2840 N.3    38  ARG38      -0.1245
      2  CA        17.4600   38.8400  -13.5480 C.3    38  ARG38       0.1563
      3  C         15.9650   39.1400  -13.5570 C.2    38  ARG38       0.2260
      4  O         15.3620   39.2320  -14.6250 O.2    38  ARG38      -0.2867
      5  CB        17.8090   37.8880  -14.6920 C.3    38  ARG38       0.0307
      6  CG        16.7570   36.8420  -14.9690 C.3    38  ARG38       0.0489
      7  CD        17.3070   35.7450  -15.8510 C.3    38  ARG38       0.2205
      8  NE        18.2460   34.8810  -15.1410 N.pl3  38  ARG38      -0.0865
      9  CZ        19.0600   34.0230  -15.7480 C.cat  38  ARG38       0.5346
     10  NH1       19.8940   33.2660  -15.0390 N.pl3  38  ARG38       0.1354
     11  NH2       19.0420   33.9310  -17.0740 N.pl3  38  ARG38       0.1354
     12  N         23.2380   37.6310  -18.3750 N.3    57  GLU57      -0.1245
     13  CA        24.3150   36.6630  -18.5230 C.3    57  GLU57       0.1567
     14  C         25.6970   37.3190  -18.5040 C.2    57  GLU57       0.2260
     15  O         26.6870   36.6350  -18.2740 O.2    57  GLU57      -0.2867
     16  CB        24.1610   35.8480  -19.8100 C.3    57  GLU57       0.0388
     17  CG        22.9890   34.8650  -19.8210 C.3    57  GLU57       0.1160
     18  CD        21.6470   35.5250  -20.0930 C.2    57  GLU57       0.3649
     19  OE1       21.5860   36.7260  -20.4600 O.co2  57  GLU57      -0.2457
     20  OE2       20.6270   34.8270  -19.9180 O.co2  57  GLU57      -0.2457
     21  N         28.2820   36.6450  -15.8260 N.3    60  PHE60      -0.1241
     22  CA        29.2120   35.4880  -15.8870 C.3    60  PHE60       0.1605
     23  C         30.0320   35.4450  -17.1900 C.2    60  PHE60       0.2264
     24  O         30.3780   34.3590  -17.6650 O.2    60  PHE60      -0.2867
     25  CB        28.4430   34.1510  -15.7560 C.3    60  PHE60       0.0534
     26  CG        27.6210   34.0510  -14.4830 C.ar   60  PHE60      -0.0203
     27  CD1       28.2200   34.2480  -13.2510 C.ar   60  PHE60      -0.0042
     28  CD2       26.2610   33.7620  -14.5370 C.ar   60  PHE60      -0.0042
     29  CE1       27.4660   34.1570  -12.0720 C.ar   60  PHE60      -0.0003
     30  CE2       25.5020   33.6520  -13.3520 C.ar   60  PHE60      -0.0003
     31  CZ        26.1160   33.8720  -12.1400 C.ar   60  PHE60      -0.0000
     32  N         24.0350   22.5620  -11.0510 N.3   108  GLN108     -0.1245
     33  CA        24.3720   23.7840  -11.7990 C.3   108  GLN108      0.1566
     34  C         24.4000   25.0010  -10.8860 C.2   108  GLN108      0.2260
     35  O         24.8040   26.0940  -11.3080 O.2   108  GLN108     -0.2867
     36  CB        23.2820   24.0360  -12.8160 C.3   108  GLN108      0.0367
     37  CG        23.2550   23.0550  -13.9590 C.3   108  GLN108      0.0905
     38  CD        22.0150   23.2780  -14.8050 C.2   108  GLN108      0.2608
     39  OE1       22.0520   24.0720  -15.7130 O.2   108  GLN108     -0.2717
     40  NE2       20.9130   22.6290  -14.4660 N.am  108  GLN108     -0.0878
     41  N         25.3430   27.6100   -7.8530 N.3   110  ILE110     -0.1245
     42  CA        26.5490   28.0700   -7.2110 C.3   110  ILE110      0.1561
     43  C         26.2700   28.5910   -5.7970 C.2   110  ILE110      0.2260
     44  O         27.1210   29.2520   -5.2040 O.2   110  ILE110     -0.2867
     45  CB        27.2540   29.1610   -8.0610 C.3   110  ILE110      0.0252
     46  CG1       26.3030   30.3210   -8.3340 C.3   110  ILE110      0.0019
     47  CG2       27.7360   28.5510   -9.4100 C.3   110  ILE110      0.0019
     48  CD1       27.0300   31.5410   -8.9340 C.3   110  ILE110      0.0001
     49  N         29.1200   24.1090  -12.0680 N.3   128  HIS128     -0.1241
     50  CA        29.3250   25.5210  -12.4440 C.3   128  HIS128      0.1621
     51  C         30.1720   26.2910  -11.4310 C.2   128  HIS128      0.2264
     52  O         30.2270   27.5200  -11.4750 O.2   128  HIS128     -0.2867
     53  CB        27.9940   26.2230  -12.7250 C.3   128  HIS128      0.0745
     54  CG        27.3140   25.7330  -13.9660 C.ar  128  HIS128      0.0817
     55  ND1       25.9920   25.9930  -14.2380 N.ar  128  HIS128     -0.2268
     56  CD2       27.7740   24.9900  -15.0070 C.ar  128  HIS128      0.1154
     57  CE1       25.6560   25.4240  -15.3890 C.ar  128  HIS128      0.1986
     58  NE2       26.7240   24.8200  -15.8830 N.ar  128  HIS128     -0.2212
     59  N         33.9730   30.3410   -9.8920 N.3   171  ILE171     -0.1231
     60  CA        32.7090   30.1850  -10.5720 C.3   171  ILE171      0.1692
     61  C         33.0410   30.0300  -12.0570 C.2   171  ILE171      0.2592
     62  O         33.8890   30.7720  -12.5710 O.2   171  ILE171     -0.2718
     63  CB        31.8510   31.4410  -10.3600 C.3   171  ILE171      0.0266
     64  CG1       31.5460   31.6130   -8.8420 C.3   171  ILE171      0.0019
     65  CG2       30.5950   31.3770  -11.1960 C.3   171  ILE171      0.0020
     66  CD1       30.7750   30.3940   -8.2130 C.3   171  ILE171      0.0001
     67  N         32.4330   29.0350  -12.7190 N.am  172  VAL172     -0.1966
     68  CA        32.6640   28.8300  -14.1620 C.3   172  VAL172      0.1727
     69  C         31.9620   29.9160  -14.9760 C.2   172  VAL172      0.2616
     70  O         30.7480   30.1020  -14.8740 O.2   172  VAL172     -0.2715
     71  CB        32.1590   27.4200  -14.6350 C.3   172  VAL172      0.0290
     72  CG1       32.4690   27.2170  -16.1550 C.3   172  VAL172      0.0023
     73  CG2       32.8680   26.3430  -13.7880 C.3   172  VAL172      0.0023
     74  N         32.7290   30.6600  -15.7710 N.am  173  PHE173     -0.1960
     75  CA        32.1390   31.6960  -16.6370 C.3   173  PHE173      0.1771
     76  C         31.8780   31.1020  -18.0210 C.2   173  PHE173      0.2620
     77  O         32.4320   30.0490  -18.3670 O.2   173  PHE173     -0.2715
     78  CB        33.0630   32.9200  -16.7230 C.3   173  PHE173      0.0574
     79  CG        32.8930   33.9010  -15.5540 C.ar  173  PHE173     -0.0200
     80  CD1       32.4670   33.4490  -14.2950 C.ar  173  PHE173     -0.0042
     81  CD2       33.1120   35.2530  -15.7410 C.ar  173  PHE173     -0.0042
     82  CE1       32.3340   34.3400  -13.2070 C.ar  173  PHE173     -0.0003
     83  CE2       32.9780   36.1690  -14.6970 C.ar  173  PHE173     -0.0003
     84  CZ        32.5860   35.7390  -13.4220 C.ar  173  PHE173     -0.0000
     85  N         31.0210   31.7370  -18.7950 N.am  174  PHE174     -0.1960
     86  CA        30.6910   31.2330  -20.1090 C.3   174  PHE174      0.1771
     87  C         31.9470   31.0920  -20.9480 C.2   174  PHE174      0.2620
     88  O         32.8750   31.8970  -20.8460 O.2   174  PHE174     -0.2715
     89  CB        29.6380   32.1300  -20.7820 C.3   174  PHE174      0.0574
     90  CG        28.2780   32.0110  -20.1550 C.ar  174  PHE174     -0.0200
     91  CD1       27.5120   30.8600  -20.3460 C.ar  174  PHE174     -0.0042
     92  CD2       27.7710   33.0240  -19.3500 C.ar  174  PHE174     -0.0042
     93  CE1       26.2640   30.7320  -19.7740 C.ar  174  PHE174     -0.0003
     94  CE2       26.5160   32.9000  -18.7750 C.ar  174  PHE174     -0.0003
     95  CZ        25.7600   31.7450  -18.9750 C.ar  174  PHE174     -0.0000
     96  N         32.0040   30.0020  -21.7090 N.am  175  GLY175     -0.1940
     97  CA        33.1460   29.7520  -22.5670 C.3   175  GLY175      0.2014
     98  C         34.2350   28.9580  -21.8780 C.2   175  GLY175      0.2639
     99  O         35.1490   28.4580  -22.5480 O.2   175  GLY175     -0.2714
    100  N         34.1830   28.8630  -20.5460 N.am  176  GLU176     -0.1963
    101  CA        35.1860   28.1190  -19.8010 C.3   176  GLU176      0.1718
    102  C         34.7480   26.6680  -19.6840 C.2   176  GLU176      0.2458
    103  O         33.5660   26.3740  -19.5460 O.2   176  GLU176     -0.2730
    104  CB        35.4030   28.6830  -18.3890 C.3   176  GLU176      0.0428
    105  CG        35.9480   30.1020  -18.3230 C.3   176  GLU176      0.1163
    106  CD        36.3070   30.4930  -16.8930 C.2   176  GLU176      0.3649
    107  OE1       35.5550   30.1990  -15.9310 O.co2 176  GLU176     -0.2457
    108  OE2       37.3770   31.0840  -16.7100 O.co2 176  GLU176     -0.2457
    109  N         35.7100   25.7470  -19.7430 N.am  177  PRO177     -0.2716
    110  CA        35.3530   24.3520  -19.4980 C.3   177  PRO177      0.1536
    111  C         34.8730   24.1660  -18.0740 C.2   177  PRO177      0.2598
    112  O         35.2890   24.9030  -17.1790 O.2   177  PRO177     -0.2715
    113  CB        36.6940   23.5990  -19.6960 C.3   177  PRO177      0.0310
    114  CG        37.4790   24.5200  -20.7190 C.3   177  PRO177      0.0237
    115  CD        37.1240   25.9180  -20.1460 C.3   177  PRO177      0.0939
    116  N         34.0320   23.1580  -17.8530 N.am  178  LEU178     -0.1978
    117  CA        33.6200   22.8290  -16.5010 C.3   178  LEU178      0.1596
    118  C         34.8050   22.2520  -15.7310 C.2   178  LEU178      0.2287
    119  O         35.7910   21.8710  -16.3390 O.2   178  LEU178     -0.2864
    120  CB        32.4310   21.8610  -16.5370 C.3   178  LEU178      0.0297
    121  CG        31.2580   22.3630  -17.3950 C.3   178  LEU178      0.0022
    122  CD1       29.9900   21.5760  -17.0540 C.3   178  LEU178      0.0001
    123  CD2       30.9970   23.8520  -17.2240 C.3   178  LEU178      0.0001
    124  N         17.3280   22.9590  -17.9750 N.3   202  LEU202     -0.1231
    125  CA        18.3400   22.3430  -18.8220 C.3   202  LEU202      0.1693
    126  C         18.6990   23.2250  -20.0100 C.2   202  LEU202      0.2592
    127  O         18.7600   22.7560  -21.1490 O.2   202  LEU202     -0.2718
    128  CB        17.8670   20.9660  -19.2890 C.3   202  LEU202      0.0284
    129  CG        17.6440   20.0090  -18.1170 C.3   202  LEU202      0.0019
    130  CD1       16.9730   18.6740  -18.5490 C.3   202  LEU202      0.0001
    131  CD2       18.9650   19.7700  -17.3830 C.3   202  LEU202      0.0001
    132  N         18.9900   24.4940  -19.7280 N.am  203  GLU203     -0.1966
    133  CA        19.3600   25.4530  -20.7650 C.3   203  GLU203      0.1733
    134  C         20.8550   25.6990  -20.9400 C.2   203  GLU203      0.2616
    135  O         21.2330   26.5190  -21.7650 O.2   203  GLU203     -0.2715
    136  CB        18.6930   26.7940  -20.4960 C.3   203  GLU203      0.0429
    137  CG        17.1870   26.7300  -20.5800 C.3   203  GLU203      0.1163
    138  CD        16.5540   28.0310  -20.1420 C.2   203  GLU203      0.3649
    139  OE1       17.2100   28.7820  -19.3790 O.co2 203  GLU203     -0.2457
    140  OE2       15.4030   28.2960  -20.5510 O.co2 203  GLU203     -0.2457
    141  N         21.7130   25.0060  -20.1940 N.am  204  VAL204     -0.1963
    142  CA        23.1400   25.3090  -20.2660 C.3   204  VAL204      0.1727
    143  C         23.9310   24.0530  -20.5860 C.2   204  VAL204      0.2616
    144  O         23.7200   23.0140  -19.9690 O.2   204  VAL204     -0.2715
    145  CB        23.6800   25.8920  -18.9440 C.3   204  VAL204      0.0290
    146  CG1       25.1110   26.3590  -19.1250 C.3   204  VAL204      0.0023
    147  CG2       22.7770   27.0270  -18.4180 C.3   204  VAL204      0.0023
    148  N         24.8250   24.1520  -21.5590 N.am  205  GLU205     -0.1964
    149  CA        25.6880   23.0410  -21.9420 C.3   205  GLU205      0.1718
    150  C         27.0750   23.2890  -21.3810 C.2   205  GLU205      0.2458
    151  O         27.4600   24.4360  -21.1980 O.2   205  GLU205     -0.2730
    152  CB        25.7790   22.9640  -23.4780 C.3   205  GLU205      0.0428
    153  CG        24.4600   22.5850  -24.1710 C.3   205  GLU205      0.1163
    154  CD        24.0710   21.1140  -23.9840 C.2   205  GLU205      0.3649
    155  OE1       24.7160   20.3720  -23.1920 O.co2 205  GLU205     -0.2457
    156  OE2       23.0810   20.6950  -24.6210 O.co2 205  GLU205     -0.2457
    157  N         27.8570   22.2150  -21.1660 N.am  206  PRO206     -0.2727
    158  CA        27.4910   20.8220  -21.5140 C.3   206  PRO206      0.1402
    159  C         26.7050   20.0700  -20.4340 C.2   206  PRO206      0.2269
    160  O         26.4850   18.8600  -20.5690 O.2   206  PRO206     -0.2865
    161  CB        28.8540   20.1630  -21.7350 C.3   206  PRO206      0.0296
    162  CG        29.7950   20.9250  -20.7470 C.3   206  PRO206      0.0237
    163  CD        29.2700   22.3430  -20.7490 C.3   206  PRO206      0.0939
    164  N         23.5060   20.1000  -19.6960 N.3   208  ALA208     -0.1231
    165  CA        22.1890   19.6520  -20.1360 C.3   208  ALA208      0.1694
    166  C         22.2780   18.2770  -20.7900 C.2   208  ALA208      0.2592
    167  O         21.4360   17.4260  -20.5600 O.2   208  ALA208     -0.2718
    168  CB        21.5980   20.6490  -21.1260 C.3   208  ALA208      0.0304
    169  N         23.3130   18.0740  -21.5940 N.am  209  SER209     -0.1952
    170  CA        23.4290   16.8350  -22.3680 C.3   209  SER209      0.1924
    171  C         23.6270   15.5720  -21.5260 C.2   209  SER209      0.2314
    172  O         23.4610   14.4660  -22.0340 O.2   209  SER209     -0.2863
    173  CB        24.5350   16.9640  -23.4100 C.3   209  SER209      0.2116
    174  OG        24.2500   18.0190  -24.3180 O.3   209  SER209     -0.2180
    175  N         14.0780   20.7890  -22.4430 N.3   229  GLY229     -0.1210
    176  CA        15.2800   20.3280  -23.1270 C.3   229  GLY229      0.1940
    177  C         15.1970   18.9300  -23.7040 C.2   229  GLY229      0.2453
    178  O         14.1420   18.5100  -24.1940 O.2   229  GLY229     -0.2732
    179  N         16.3200   18.1960  -23.6470 N.am  230  PRO230     -0.2728
    180  CA        16.4510   16.8670  -24.2490 C.3   230  PRO230      0.1401
    181  C         15.3400   15.9270  -23.7960 C.2   230  PRO230      0.2269
    182  O         14.9800   14.9990  -24.5230 O.2   230  PRO230     -0.2865
    183  CB        17.8240   16.3770  -23.7620 C.3   230  PRO230      0.0296
    184  CG        18.2530   17.3540  -22.6740 C.3   230  PRO230      0.0237
    185  CD        17.5610   18.6410  -22.9870 C.3   230  PRO230      0.0939
    186  N         12.2870   17.0040  -26.2320 N.3   233  TRP233     -0.1241
    187  CA        12.3940   16.6050  -27.6300 C.3   233  TRP233      0.1605
    188  C         13.1510   15.2850  -27.8730 C.2   233  TRP233      0.2264
    189  O         13.4180   14.9190  -29.0220 O.2   233  TRP233     -0.2867
    190  CB        12.9420   17.7500  -28.4960 C.3   233  TRP233      0.0550
    191  CG        14.1540   18.4450  -27.9500 C.ar  233  TRP233      0.0003
    192  CD1       15.3990   17.9070  -27.7690 C.ar  233  TRP233      0.0946
    193  CD2       14.2510   19.8260  -27.5530 C.ar  233  TRP233      0.0152
    194  NE1       16.2620   18.8620  -27.2620 N.ar  233  TRP233     -0.2442
    195  CE2       15.5850   20.0470  -27.1250 C.ar  233  TRP233      0.0810
    196  CE3       13.3430   20.8910  -27.5110 C.ar  233  TRP233      0.0012
    197  CZ2       16.0280   21.2920  -26.6590 C.ar  233  TRP233      0.0191
    198  CZ3       13.7880   22.1290  -27.0460 C.ar  233  TRP233      0.0001
    199  CH2       15.1180   22.3170  -26.6290 C.ar  233  TRP233      0.0015
@<TRIPOS>BOND
     1   189   188    2
     2   190   191    1
     3   190   187    1
     4   191   192   ar
     5   191   193   ar
     6   188   187    1
     7   192   194   ar
     8   187   186    1
     9   193   196   ar
    10   193   195   ar
    11   196   198   ar
    12   194   195   ar
    13   195   197   ar
    14   198   199   ar
    15   197   199   ar
    16   156   154   ar
    17   182   181    2
    18   174   173    1
    19   180   181    1
    20   180   183    1
    21   180   179    1
    22   178   177    2
    23   153   154    1
    24   153   152    1
    25   154   155   ar
    26   183   184    1
    27   177   179   am
    28   177   176    1
    29   179   185    1
    30   152   149    1
    31   173   170    1
    32   176   175    1
    33   185   184    1
    34    97    98    1
    35    97    96    1
    36    99    98    2
    37   170   169    1
    38   170   171    1
    39   172   171    2
    40   149   148    1
    41   149   150    1
    42    98   100   am
    43   135   134    2
    44   161   158    1
    45   161   162    1
    46    96    87   am
    47   169   166   am
    48   148   143   am
    49   158   157    1
    50   158   159    1
    51   150   151    2
    52   150   157   am
    53   157   163    1
    54   127   126    2
    55   168   165    1
    56    87    88    2
    57    87    86    1
    58   134   133    1
    59   134   141   am
    60   166   167    2
    61   166   165    1
    62    89    90    1
    63    89    86    1
    64   133   136    1
    65   133   132    1
    66   163   162    1
    67   114   115    1
    68   114   113    1
    69   143   142    1
    70   143   144    2
    71   137   136    1
    72   137   138    1
    73   160   159    2
    74   140   138   ar
    75   100   101    1
    76    19    18   ar
    77    91    90   ar
    78    91    93   ar
    79   142   141    1
    80   142   145    1
    81    90    92   ar
    82   115   109    1
    83   138   139   ar
    84   165   164    1
    85    86    85    1
    86    18    20   ar
    87    18    17    1
    88   126   132   am
    89   126   125    1
    90    17    16    1
    91    16    13    1
    92   101   102    1
    93   101   104    1
    94    93    95   ar
    95   109   102   am
    96   109   110    1
    97   113   110    1
    98   102   103    2
    99   110   111    1
   100    92    94   ar
   101   128   125    1
   102   128   129    1
   103   146   145    1
   104    95    94   ar
   105   145   147    1
   106   125   124    1
   107    85    76   am
   108   130   129    1
   109    13    14    1
   110    13    12    1
   111    14    15    2
   112   104   105    1
   113    77    76    2
   114   105   106    1
   115   129   131    1
   116   111   116   am
   117   111   112    2
   118    76    75    1
   119   116   117    1
   120    24    23    2
   121   121   123    1
   122   121   122    1
   123   121   120    1
   124    23    22    1
   125    11     9    1
   126   106   108   ar
   127   106   107   ar
   128    78    75    1
   129    78    79    1
   130    75    74    1
   131   120   117    1
   132   117   118    1
   133   119   118    2
   134    72    71    1
   135    22    21    1
   136    22    25    1
   137    58    57   ar
   138    58    56   ar
   139     7     8    1
   140     7     6    1
   141    74    69   am
   142    25    26    1
   143     9     8    2
   144     9    10    1
   145    81    79   ar
   146    81    83   ar
   147    39    38    2
   148    79    80   ar
   149    57    55   ar
   150    56    54   ar
   151    69    70    2
   152    69    68    1
   153     6     5    1
   154    38    40   am
   155    38    37    1
   156    83    84   ar
   157     5     2    1
   158    71    68    1
   159    71    73    1
   160     4     3    2
   161    28    26   ar
   162    28    30   ar
   163    26    27   ar
   164    80    82   ar
   165    55    54   ar
   166    68    67    1
   167    54    53    1
   168    37    36    1
   169     3     2    1
   170     2     1    1
   171    84    82   ar
   172    30    31   ar
   173    27    29   ar
   174    36    33    1
   175    53    50    1
   176    67    61   am
   177    62    61    2
   178    50    49    1
   179    50    51    1
   180    31    29   ar
   181    61    60    1
   182    33    32    1
   183    33    34    1
   184    52    51    2
   185    35    34    2
   186    65    63    1
   187    60    63    1
   188    60    59    1
   189    63    64    1
   190    47    45    1
   191    48    46    1
   192    64    66    1
   193    46    45    1
   194    45    42    1
   195    41    42    1
   196    42    43    1
   197    43    44    2
