@<TRIPOS>MOLECULE
tmp/3glvB00.pdb
 160 160 0 0 0
SMALL
GASTEIGER

@<TRIPOS>ATOM
      1  N         21.7400   34.2040    1.4790 N.3     8  THR8       -0.1203
      2  CA        22.7570   33.1440    1.3300 C.3     8  THR8        0.1994
      3  C         22.8130   32.5880   -0.0750 C.2     8  THR8        0.2618
      4  O         21.8640   32.7070   -0.8470 O.2     8  THR8       -0.2717
      5  CB        22.4790   31.9080    2.3260 C.3     8  THR8        0.1784
      6  OG1       21.2570   31.2710    1.9500 O.3     8  THR8       -0.2211
      7  CG2       22.3680   32.3670    3.8410 C.3     8  THR8        0.0376
      8  N         23.8990   31.9180   -0.4220 N.am    9  GLY9       -0.1942
      9  CA        23.9220   31.1960   -1.6770 C.3     9  GLY9        0.2014
     10  C         25.3390   30.9040   -2.0860 C.2     9  GLY9        0.2639
     11  O         26.2810   31.1860   -1.3230 O.2     9  GLY9       -0.2714
     12  N         25.5080   30.3580   -3.2880 N.am   10  VAL10      -0.1963
     13  CA        26.8410   30.0180   -3.8000 C.3    10  VAL10       0.1727
     14  C         27.3990   31.1770   -4.6210 C.2    10  VAL10       0.2616
     15  O         28.5790   31.5060   -4.4980 O.2    10  VAL10      -0.2715
     16  CB        26.7740   28.7110   -4.6340 C.3    10  VAL10       0.0290
     17  CG1       28.0980   28.4620   -5.3480 C.3    10  VAL10       0.0023
     18  CG2       26.3820   27.4920   -3.7330 C.3    10  VAL10       0.0023
     19  N         26.5690   31.7470   -5.5070 N.am   11  PHE11      -0.1960
     20  CA        26.9400   32.8750   -6.3970 C.3    11  PHE11       0.1771
     21  C         28.1690   32.5880   -7.2450 C.2    11  PHE11       0.2619
     22  O         29.1160   33.3540   -7.2430 O.2    11  PHE11      -0.2715
     23  CB        27.1470   34.1840   -5.5960 C.3    11  PHE11       0.0574
     24  CG        25.9660   34.5180   -4.6720 C.ar   11  PHE11      -0.0200
     25  CD1       24.8190   35.1010   -5.1930 C.ar   11  PHE11      -0.0042
     26  CD2       26.0130   34.2220   -3.3080 C.ar   11  PHE11      -0.0042
     27  CE1       23.7300   35.3920   -4.3630 C.ar   11  PHE11      -0.0003
     28  CE2       24.9280   34.4910   -2.4700 C.ar   11  PHE11      -0.0003
     29  CZ        23.7950   35.0550   -2.9900 C.ar   11  PHE11      -0.0000
     30  N         28.1400   31.4670   -7.9490 N.am   12  ASP12      -0.1971
     31  CA        29.2550   31.0640   -8.8060 C.3    12  ASP12       0.1709
     32  C         29.3100   31.9270  -10.0930 C.2    12  ASP12       0.2293
     33  O         30.2670   32.6640  -10.3050 O.2    12  ASP12      -0.2864
     34  CB        29.1370   29.5760   -9.1150 C.3    12  ASP12       0.1436
     35  CG        30.4400   28.9790   -9.6610 C.2    12  ASP12       0.3671
     36  OD1       31.5270   29.6000   -9.5090 O.co2  12  ASP12      -0.2456
     37  OD2       30.3740   27.8870  -10.2300 O.co2  12  ASP12      -0.2456
     38  N         24.3860   36.5500  -12.0700 N.3    15  HIS15      -0.1241
     39  CA        23.3710   36.7660  -13.0650 C.3    15  HIS15       0.1621
     40  C         22.2100   37.5610  -12.4580 C.2    15  HIS15       0.2264
     41  O         22.1090   37.7270  -11.2670 O.2    15  HIS15      -0.2867
     42  CB        22.9140   35.4360  -13.6550 C.3    15  HIS15       0.0745
     43  CG        22.2760   34.5080  -12.6840 C.ar   15  HIS15       0.0817
     44  ND1       23.0130   33.6990  -11.8400 N.ar   15  HIS15      -0.2268
     45  CD2       20.9680   34.2230  -12.4380 C.ar   15  HIS15       0.1154
     46  CE1       22.1820   32.9760  -11.0950 C.ar   15  HIS15       0.1986
     47  NE2       20.9370   33.2840  -11.4250 N.ar   15  HIS15      -0.2212
     48  N         19.1690   37.0690  -11.9360 N.3    17  GLY17      -0.1210
     49  CA        18.3760   36.3740  -10.9070 C.3    17  GLY17       0.1956
     50  C         18.9550   36.5520   -9.4930 C.2    17  GLY17       0.2611
     51  O         18.2050   36.7010   -8.5230 O.2    17  GLY17      -0.2717
     52  N         20.2840   36.5270   -9.3740 N.am   18  HIS18      -0.1975
     53  CA        20.9390   36.8440   -8.0970 C.3    18  HIS18       0.1656
     54  C         20.6230   38.2450   -7.6440 C.2    18  HIS18       0.2291
     55  O         20.2310   38.4830   -6.5080 O.2    18  HIS18      -0.2864
     56  CB        22.4680   36.7600   -8.2400 C.3    18  HIS18       0.0771
     57  CG        22.9990   35.3780   -8.3070 C.ar   18  HIS18       0.0820
     58  ND1       24.0820   35.0360   -9.0930 N.ar   18  HIS18      -0.2267
     59  CD2       22.6040   34.2400   -7.6820 C.ar   18  HIS18       0.1154
     60  CE1       24.3450   33.7510   -8.9180 C.ar   18  HIS18       0.1986
     61  NE2       23.4660   33.2440   -8.0650 N.ar   18  HIS18      -0.2212
     62  N         18.1210   40.0910   -8.5250 N.3    20  HIS20      -0.1226
     63  CA        16.7210   40.1370   -8.0400 C.3    20  HIS20       0.1752
     64  C         16.6070   39.6250   -6.5760 C.2    20  HIS20       0.2596
     65  O         15.9690   40.2860   -5.7070 O.2    20  HIS20      -0.2718
     66  CB        15.8550   39.3160   -8.9680 C.3    20  HIS20       0.0759
     67  CG        14.4720   39.0790   -8.4620 C.ar   20  HIS20       0.0818
     68  ND1       13.4680   40.0140   -8.5840 N.ar   20  HIS20      -0.2268
     69  CD2       13.9180   38.0070   -7.8430 C.ar   20  HIS20       0.1154
     70  CE1       12.3550   39.5260   -8.0610 C.ar   20  HIS20       0.1986
     71  NE2       12.6080   38.3150   -7.5930 N.ar   20  HIS20      -0.2212
     72  N         17.2300   38.4840   -6.2840 N.am   21  TYR21      -0.1976
     73  CA        17.1730   37.9270   -4.9350 C.3    21  TYR21       0.1639
     74  C         17.7910   38.9240   -3.9350 C.2    21  TYR21       0.2290
     75  O         17.2090   39.1860   -2.8940 O.2    21  TYR21      -0.2864
     76  CB        17.8750   36.5670   -4.8400 C.3    21  TYR21       0.0560
     77  CG        18.1390   36.0390   -3.4530 C.ar   21  TYR21      -0.0198
     78  CD1       17.1040   35.7290   -2.5920 C.ar   21  TYR21      -0.0009
     79  CD2       19.4250   35.8080   -2.9950 C.ar   21  TYR21      -0.0009
     80  CE1       17.3580   35.2610   -1.3010 C.ar   21  TYR21       0.0417
     81  CE2       19.6690   35.3430   -1.7340 C.ar   21  TYR21       0.0417
     82  CZ        18.6400   35.0360   -0.8800 C.ar   21  TYR21       0.1957
     83  OH        18.9010   34.5410    0.4130 O.3    21  TYR21      -0.2866
     84  N         27.4010   20.4550   -6.1730 N.3    47  LYS47      -0.1245
     85  CA        27.8790   21.5010   -7.0740 C.3    47  LYS47       0.1561
     86  C         29.3580   21.6910   -6.8130 C.2    47  LYS47       0.2260
     87  O         29.7740   21.7810   -5.6670 O.2    47  LYS47      -0.2867
     88  CB        27.1560   22.8370   -6.8120 C.3    47  LYS47       0.0271
     89  CG        25.6560   22.6850   -6.5000 C.3    47  LYS47       0.0035
     90  CD        24.7500   23.6940   -7.2080 C.3    47  LYS47       0.0206
     91  CE        23.2930   23.1640   -7.2970 C.3    47  LYS47       0.1093
     92  NZ        22.2850   24.2250   -6.9730 N.3    47  LYS47      -0.1314
     93  N         15.8360   32.1140   -1.0860 N.3    92  GLY92      -0.1210
     94  CA        15.6260   32.1730   -2.5430 C.3    92  GLY92       0.1956
     95  C         14.4230   31.3250   -2.9320 C.2    92  GLY92       0.2612
     96  O         14.0650   30.3860   -2.2200 O.2    92  GLY92      -0.2717
     97  N         13.7950   31.6570   -4.0480 N.am   93  TYR93      -0.1962
     98  CA        12.6490   30.8900   -4.5830 C.3    93  TYR93       0.1771
     99  C         12.8740   29.3650   -4.6590 C.2    93  TYR93       0.2620
    100  O         11.9330   28.6130   -4.5170 O.2    93  TYR93      -0.2715
    101  CB        12.2470   31.3890   -5.9980 C.3    93  TYR93       0.0574
    102  CG        13.0890   30.7950   -7.1310 C.ar   93  TYR93      -0.0198
    103  CD1       12.5690   29.8170   -8.0050 C.ar   93  TYR93      -0.0009
    104  CD2       14.4200   31.1790   -7.2930 C.ar   93  TYR93      -0.0009
    105  CE1       13.3700   29.2590   -9.0410 C.ar   93  TYR93       0.0417
    106  CE2       15.2050   30.6430   -8.2920 C.ar   93  TYR93       0.0417
    107  CZ        14.6790   29.6820   -9.1760 C.ar   93  TYR93       0.1957
    108  OH        15.4950   29.1930  -10.1800 O.3    93  TYR93      -0.2866
    109  N         14.0910   28.9230   -4.9370 N.am   94  ASP94      -0.1957
    110  CA        14.3530   27.5020   -5.0810 C.3    94  ASP94       0.1840
    111  C         15.1740   26.8840   -3.9310 C.2    94  ASP94       0.2621
    112  O         15.5950   25.7660   -4.0570 O.2    94  ASP94      -0.2715
    113  CB        15.0720   27.2420   -6.4260 C.3    94  ASP94       0.1450
    114  CG        16.4850   27.7750   -6.4410 C.2    94  ASP94       0.3671
    115  OD1       16.7800   28.6030   -5.5840 O.co2  94  ASP94      -0.2456
    116  OD2       17.3150   27.3730   -7.2950 O.co2  94  ASP94      -0.2456
    117  N         15.4280   27.5910   -2.8360 N.am   95  GLN95      -0.1977
    118  CA        16.3670   27.0700   -1.8520 C.3    95  GLN95       0.1601
    119  C         15.6600   26.0170   -1.0210 C.2    95  GLN95       0.2287
    120  O         14.4770   26.1450   -0.6800 O.2    95  GLN95      -0.2864
    121  CB        16.9820   28.1800   -0.9710 C.3    95  GLN95       0.0394
    122  CG        18.1770   28.9410   -1.6260 C.3    95  GLN95       0.0908
    123  CD        18.8020   29.9850   -0.6870 C.2    95  GLN95       0.2608
    124  OE1       18.0960   30.6090    0.1100 O.2    95  GLN95      -0.2717
    125  NE2       20.1240   30.1490   -0.7590 N.am   95  GLN95      -0.0878
    126  N         11.8060   34.7340   -1.1530 N.3   118  ILE118     -0.1231
    127  CA        11.8250   35.7100   -2.2480 C.3   118  ILE118      0.1692
    128  C         11.2950   35.0560   -3.5510 C.2   118  ILE118      0.2593
    129  O         11.4670   33.8700   -3.7810 O.2   118  ILE118     -0.2718
    130  CB        13.2330   36.3320   -2.4930 C.3   118  ILE118      0.0266
    131  CG1       13.7910   36.9570   -1.2020 C.3   118  ILE118      0.0019
    132  CG2       13.1890   37.3670   -3.6740 C.3   118  ILE118      0.0020
    133  CD1       12.9780   38.1450   -0.6010 C.3   118  ILE118      0.0001
    134  N         10.6160   35.8540   -4.3600 N.am  119  SER119     -0.1938
    135  CA        10.0920   35.4200   -5.6490 C.3   119  SER119      0.2055
    136  C         11.1920   35.0440   -6.6590 C.2   119  SER119      0.2643
    137  O         12.3550   35.4450   -6.5560 O.2   119  SER119     -0.2714
    138  CB         9.2450   36.5290   -6.2610 C.3   119  SER119      0.2130
    139  OG        10.0430   37.6290   -6.6620 O.3   119  SER119     -0.2179
    140  N         10.8110   34.2230   -7.6190 N.am  120  LYS120     -0.1963
    141  CA        11.6640   33.9250   -8.7770 C.3   120  LYS120      0.1728
    142  C         11.7630   35.1590   -9.6610 C.2   120  LYS120      0.2616
    143  O         10.8120   35.9070   -9.7800 O.2   120  LYS120     -0.2715
    144  CB        11.1010   32.7500   -9.5520 C.3   120  LYS120      0.0311
    145  CG        11.9900   32.3000  -10.7490 C.3   120  LYS120      0.0038
    146  CD        11.4470   31.0340  -11.4440 C.3   120  LYS120      0.0206
    147  CE        10.0710   31.2510  -12.0780 C.3   120  LYS120      0.1093
    148  NZ         9.5810   30.0660  -12.9280 N.3   120  LYS120     -0.1314
    149  N         12.9260   35.4000  -10.2560 N.am  121  TYR121     -0.1974
    150  CA        13.0830   36.5300  -11.1380 C.3   121  TYR121      0.1639
    151  C         12.3630   36.2860  -12.4830 C.2   121  TYR121      0.2290
    152  O         12.5280   35.2410  -13.0810 O.2   121  TYR121     -0.2864
    153  CB        14.5660   36.7120  -11.4340 C.3   121  TYR121      0.0560
    154  CG        14.8830   37.7640  -12.4480 C.ar  121  TYR121     -0.0198
    155  CD1       14.3650   39.0430  -12.3340 C.ar  121  TYR121     -0.0009
    156  CD2       15.8030   37.5110  -13.4980 C.ar  121  TYR121     -0.0009
    157  CE1       14.7310   40.0530  -13.2580 C.ar  121  TYR121      0.0417
    158  CE2       16.1470   38.4830  -14.4130 C.ar  121  TYR121      0.0417
    159  CZ        15.6170   39.7600  -14.2740 C.ar  121  TYR121      0.1957
    160  OH        15.9230   40.7150  -15.1960 O.3   121  TYR121     -0.2866
@<TRIPOS>BOND
     1   160   159    1
     2   158   159   ar
     3   158   156   ar
     4   159   157   ar
     5    42    39    1
     6    42    43    1
     7   156   154   ar
     8   157   155   ar
     9   152   151    2
    10    39    40    1
    11    39    38    1
    12   148   147    1
    13    43    45   ar
    14    43    44   ar
    15   151   150    1
    16    40    41    2
    17   154   155   ar
    18   154   153    1
    19    45    47   ar
    20   147   146    1
    21    48    49    1
    22    44    46   ar
    23   146   145    1
    24   153   150    1
    25    47    46   ar
    26   150   149    1
    27    49    50    1
    28   145   144    1
    29    33    32    2
    30   149   142   am
    31    37    35   ar
    32   108   107    1
    33    32    31    1
    34   143   142    2
    35   142   141    1
    36    35    36   ar
    37    35    34    1
    38   144   141    1
    39    50    52   am
    40    50    51    2
    41    52    53    1
    42   107   105   ar
    43   107   106   ar
    44    34    31    1
    45    58    60   ar
    46    58    57   ar
    47   105   103   ar
    48    66    67    1
    49    66    63    1
    50    60    61   ar
    51    31    30    1
    52   141   140    1
    53    68    67   ar
    54    68    70   ar
    55    62    63    1
    56    67    69   ar
    57    57    56    1
    58    57    59   ar
    59   106   104   ar
    60    56    53    1
    61    53    54    1
    62    61    59   ar
    63    70    71   ar
    64    63    64    1
    65   103   102   ar
    66    30    21   am
    67    69    71   ar
    68    54    55    2
    69   140   136   am
    70    91    90    1
    71    91    92    1
    72   116   114   ar
    73   104   102   ar
    74    21    22    2
    75    21    20    1
    76    90    89    1
    77   102   101    1
    78    85    86    1
    79    85    88    1
    80    85    84    1
    81    86    87    2
    82    88    89    1
    83   139   138    1
    84   136   137    2
    85   136   135    1
    86    64    72   am
    87    64    65    2
    88   114   113    1
    89   114   115   ar
    90   113   110    1
    91    20    23    1
    92    20    19    1
    93    72    73    1
    94   138   135    1
    95   101    98    1
    96   135   134    1
    97    23    24    1
    98    19    14   am
    99    17    16    1
   100    25    24   ar
   101    25    27   ar
   102   110   109    1
   103   110   111    1
   104   109    99   am
   105    73    76    1
   106    73    74    1
   107    76    77    1
   108    24    26   ar
   109    99    98    1
   110    99   100    2
   111    16    13    1
   112    16    18    1
   113    14    15    2
   114    14    13    1
   115    98    97    1
   116    27    29   ar
   117   134   128   am
   118   112   111    2
   119    97    95   am
   120    74    75    2
   121   111   117   am
   122    13    12    1
   123   129   128    2
   124   132   130    1
   125   128   127    1
   126    77    79   ar
   127    77    78   ar
   128    26    28   ar
   129    12    10   am
   130    79    81   ar
   131    29    28   ar
   132    95    94    1
   133    95    96    2
   134   117   118    1
   135    78    80   ar
   136    94    93    1
   137   130   127    1
   138   130   131    1
   139   127   126    1
   140    10     9    1
   141    10    11    2
   142   118   119    1
   143   118   121    1
   144    81    82   ar
   145     9     8    1
   146   122   121    1
   147   122   123    1
   148    80    82   ar
   149   131   133    1
   150   119   120    2
   151    82    83    1
   152     4     3    2
   153   125   123   am
   154   123   124    2
   155     8     3   am
   156     3     2    1
   157     2     1    1
   158     2     5    1
   159     6     5    1
   160     5     7    1
