@<TRIPOS>MOLECULE
tmp/3glyA01.pdb
 189 183 0 0 0
SMALL
GASTEIGER

@<TRIPOS>ATOM
      1  N         32.5360   39.6550   21.5320 N.3    13  VAL13      -0.1245
      2  CA        31.7040   39.3030   20.3710 C.3    13  VAL13       0.1561
      3  C         31.6160   37.7780   20.2580 C.2    13  VAL13       0.2260
      4  O         30.5700   37.2710   19.8580 O.2    13  VAL13      -0.2867
      5  CB        32.3020   39.8970   19.0770 C.3    13  VAL13       0.0252
      6  CG1       31.5710   39.4420   17.8080 C.3    13  VAL13       0.0019
      7  CG2       32.3820   41.4040   19.1290 C.3    13  VAL13       0.0019
      8  N         29.1290   36.2850   22.8440 N.3    16  THR16      -0.1203
      9  CA        27.7480   36.5560   22.4560 C.3    16  THR16       0.1994
     10  C         27.3190   35.7000   21.2610 C.2    16  THR16       0.2617
     11  O         26.2250   35.1060   21.2550 O.2    16  THR16      -0.2717
     12  CB        27.6290   38.0890   22.0090 C.3    16  THR16       0.1784
     13  OG1       28.1210   38.8300   23.1430 O.3    16  THR16      -0.2211
     14  CG2       26.2200   38.4900   21.5400 C.3    16  THR16       0.0376
     15  N         28.1580   35.6930   20.2430 N.am   17  ALA17      -0.1979
     16  CA        27.8830   34.9660   19.0070 C.3    17  ALA17       0.1597
     17  C         27.6520   33.4820   19.3030 C.2    17  ALA17       0.2287
     18  O         26.7890   32.8550   18.7050 O.2    17  ALA17      -0.2864
     19  CB        28.9620   35.2300   17.9680 C.3    17  ALA17       0.0319
     20  N         24.3130   32.8660   20.7410 N.3    20  ASN20      -0.1240
     21  CA        23.2970   33.1460   19.7350 C.3    20  ASN20       0.1653
     22  C         23.0690   31.8660   18.9070 C.2    20  ASN20       0.2266
     23  O         22.0410   31.8630   18.2080 O.2    20  ASN20      -0.2867
     24  CB        23.6500   34.2830   18.7850 C.3    20  ASN20       0.1155
     25  CG        23.6580   35.6640   19.3760 C.2    20  ASN20       0.2627
     26  OD1       23.0720   35.9060   20.4380 O.2    20  ASN20      -0.2716
     27  ND2       24.3430   36.5750   18.6650 N.am   20  ASN20      -0.0877
     28  N         19.4600   33.6130   19.4470 N.3    27  ALA27      -0.1231
     29  CA        18.8640   34.5660   18.4990 C.3    27  ALA27       0.1694
     30  C         18.9980   34.1760   17.0410 C.2    27  ALA27       0.2592
     31  O         18.0850   34.4990   16.2650 O.2    27  ALA27      -0.2718
     32  CB        19.5250   35.9510   18.7190 C.3    27  ALA27       0.0304
     33  N         20.0490   33.4590   16.6800 N.am   28  TRP28      -0.1962
     34  CA        20.2910   33.0630   15.2940 C.3    28  TRP28       0.1771
     35  C         19.8180   31.6840   14.9260 C.2    28  TRP28       0.2619
     36  O         19.8730   31.3290   13.7220 O.2    28  TRP28      -0.2715
     37  CB        21.8080   33.2090   15.0200 C.3    28  TRP28       0.0590
     38  CG        22.3610   34.5990   15.0950 C.ar   28  TRP28       0.0006
     39  CD1       21.7030   35.8040   15.0110 C.ar   28  TRP28       0.0946
     40  CD2       23.7590   34.9230   15.1840 C.ar   28  TRP28       0.0152
     41  NE1       22.5930   36.8460   15.0850 N.ar   28  TRP28      -0.2442
     42  CE2       23.8590   36.3370   15.2140 C.ar   28  TRP28       0.0810
     43  CE3       24.9060   34.1570   15.3160 C.ar   28  TRP28       0.0012
     44  CZ2       25.0690   36.9790   15.3340 C.ar   28  TRP28       0.0191
     45  CZ3       26.1240   34.8020   15.4590 C.ar   28  TRP28       0.0001
     46  CH2       26.2170   36.1850   15.4250 C.ar   28  TRP28       0.0015
     47  N         19.3920   30.9240   15.9250 N.am   29  VAL29      -0.1963
     48  CA        18.9970   29.5410   15.6590 C.3    29  VAL29       0.1727
     49  C         17.6410   29.0690   16.1200 C.2    29  VAL29       0.2617
     50  O         17.4720   27.8950   16.5280 O.2    29  VAL29      -0.2715
     51  CB        20.1870   28.6530   16.1720 C.3    29  VAL29       0.0290
     52  CG1       21.5030   28.9990   15.5020 C.3    29  VAL29       0.0023
     53  CG2       20.2760   28.7200   17.6780 C.3    29  VAL29       0.0023
     54  N         16.6240   29.8780   15.9510 N.am   30  SER30      -0.1936
     55  CA        15.2200   29.5750   16.2620 C.3    30  SER30       0.2055
     56  C         14.8990   28.2280   15.6090 C.2    30  SER30       0.2643
     57  O         15.1700   28.0400   14.4090 O.2    30  SER30      -0.2714
     58  CB        14.2630   30.6470   15.7610 C.3    30  SER30       0.2130
     59  OG        12.9870   30.4210   16.4140 O.3    30  SER30      -0.2179
     60  N         14.4590   27.2930   16.3910 N.am   31  GLY31      -0.1954
     61  CA        14.1830   25.9310   15.9290 C.3    31  GLY31       0.1869
     62  C         15.0840   24.9230   16.6450 C.2    31  GLY31       0.2309
     63  O         14.6870   23.7470   16.7380 O.2    31  GLY31      -0.2863
     64  N         24.3230   29.2290   11.6990 N.3    41  PRO41      -0.2102
     65  CA        22.9240   29.5250   11.3490 C.3    41  PRO41       0.1504
     66  C         22.7030   29.3990    9.8480 C.2    41  PRO41       0.2576
     67  O         21.5960   29.6170    9.3070 O.2    41  PRO41      -0.2718
     68  CB        22.7010   30.9500   11.8420 C.3    41  PRO41       0.0282
     69  CG        24.0190   31.5490   12.1520 C.3    41  PRO41       0.0208
     70  CD        25.0960   30.4720   11.9130 C.3    41  PRO41       0.0893
     71  N         23.7400   29.0540    9.0900 N.am   42  SER42      -0.1938
     72  CA        23.6070   28.9340    7.6160 C.3    42  SER42       0.2055
     73  C         22.7960   27.6910    7.3120 C.2    42  SER42       0.2644
     74  O         23.1690   26.5760    7.6780 O.2    42  SER42      -0.2714
     75  CB        24.9830   28.9870    6.9790 C.3    42  SER42       0.2130
     76  OG        24.8880   28.8350    5.5670 O.3    42  SER42      -0.2179
     77  N         21.6440   27.8810    6.6870 N.am   43  THR43      -0.1936
     78  CA        20.7040   26.8140    6.3290 C.3    43  THR43       0.2028
     79  C         20.8620   26.4750    4.8610 C.2    43  THR43       0.2642
     80  O         20.4190   25.3830    4.4630 O.2    43  THR43      -0.2714
     81  CB        19.1980   27.1390    6.6600 C.3    43  THR43       0.1808
     82  OG1       18.9010   28.3740    5.9440 O.3    43  THR43      -0.2208
     83  CG2       18.7840   27.3060    8.1230 C.3    43  THR43       0.0379
     84  N         21.4690   27.3420    4.0650 N.am   44  ASP44      -0.1957
     85  CA        21.6760   27.0940    2.6460 C.3    44  ASP44       0.1840
     86  C         23.1120   27.5130    2.2460 C.2    44  ASP44       0.2622
     87  O         23.5720   28.5710    2.6870 O.2    44  ASP44      -0.2715
     88  CB        20.7580   27.8800    1.6850 C.3    44  ASP44       0.1450
     89  CG        19.4510   28.4060    2.2040 C.2    44  ASP44       0.3671
     90  OD1       18.4320   27.6670    2.2390 O.co2  44  ASP44      -0.2456
     91  OD2       19.4090   29.6260    2.5870 O.co2  44  ASP44      -0.2456
     92  N         23.6750   26.7040    1.3890 N.am   45  ASN45      -0.1972
     93  CA        24.9670   26.9110    0.7490 C.3    45  ASN45       0.1688
     94  C         26.0530   27.5690    1.6010 C.2    45  ASN45       0.2292
     95  O         26.4130   28.7450    1.4230 O.2    45  ASN45      -0.2864
     96  CB        24.6800   27.7090   -0.5610 C.3    45  ASN45       0.1181
     97  CG        23.6150   27.0130   -1.3940 C.2    45  ASN45       0.2629
     98  OD1       23.7350   25.8270   -1.7570 O.2    45  ASN45      -0.2716
     99  ND2       22.5060   27.7280   -1.6370 N.am   45  ASN45      -0.0877
    100  N         23.1250   23.8730    9.4840 N.3    49  PHE49      -0.1241
    101  CA        22.0720   24.0000   10.5350 C.3    49  PHE49       0.1605
    102  C         21.7230   22.6220   11.0920 C.2    49  PHE49       0.2264
    103  O         20.6730   22.0460   10.8120 O.2    49  PHE49      -0.2867
    104  CB        20.8870   24.7980    9.9660 C.3    49  PHE49       0.0534
    105  CG        19.9240   25.3670   10.9760 C.ar   49  PHE49      -0.0203
    106  CD1       20.2150   26.5200   11.6850 C.ar   49  PHE49      -0.0042
    107  CD2       18.7200   24.7200   11.2320 C.ar   49  PHE49      -0.0042
    108  CE1       19.3350   27.0440   12.6240 C.ar   49  PHE49      -0.0003
    109  CE2       17.8130   25.2130   12.1840 C.ar   49  PHE49      -0.0003
    110  CZ        18.1440   26.3810   12.8840 C.ar   49  PHE49      -0.0000
    111  N         32.1550   43.9220   12.0710 N.3   394  ASN394     -0.1240
    112  CA        31.4570   43.7830   13.3660 C.3   394  ASN394      0.1653
    113  C         32.0220   42.5990   14.1450 C.2   394  ASN394      0.2266
    114  O         31.4850   42.2900   15.2120 O.2   394  ASN394     -0.2867
    115  CB        29.9670   43.7030   13.1360 C.3   394  ASN394      0.1155
    116  CG        29.5380   42.4320   12.4010 C.2   394  ASN394      0.2627
    117  OD1       30.3160   41.6340   11.9320 O.2   394  ASN394     -0.2716
    118  ND2       28.2270   42.2640   12.3450 N.am  394  ASN394     -0.0877
    119  N         32.3520   39.6380   12.8600 N.3   396  SER396     -0.1217
    120  CA        31.8660   38.2440   12.4160 C.3   396  SER396      0.1889
    121  C         32.9300   37.3480   11.8120 C.2   396  SER396      0.2288
    122  O         33.7970   37.7160   11.0390 O.2   396  SER396     -0.2866
    123  CB        30.7440   38.8000   11.3020 C.3   396  SER396      0.2089
    124  OG        29.5230   38.0590   12.2730 O.3   396  SER396     -0.2183
    125  N         33.5360   33.6710    9.9960 N.3   398  SER398     -0.1217
    126  CA        33.1720   32.7360    8.9750 C.3   398  SER398      0.1889
    127  C         33.9940   31.4410    9.1840 C.2   398  SER398      0.2288
    128  O         34.8340   31.3590   10.0870 O.2   398  SER398     -0.2866
    129  CB        33.6740   33.3420    7.6390 C.3   398  SER398      0.2089
    130  OG        32.7780   32.9470    6.6400 O.3   398  SER398     -0.2183
    131  N         35.5440   36.6300    3.4250 N.3   408  GLU408     -0.1231
    132  CA        34.9060   35.5080    4.1670 C.3   408  GLU408      0.1699
    133  C         34.0880   34.6930    3.2130 C.2   408  GLU408      0.2592
    134  O         33.5430   35.2250    2.2300 O.2   408  GLU408     -0.2718
    135  CB        34.0740   36.0300    5.3320 C.3   408  GLU408      0.0402
    136  CG        34.9250   36.6570    6.4570 C.3   408  GLU408      0.1161
    137  CD        34.3090   36.7750    7.7970 C.2   408  GLU408      0.3649
    138  OE1       33.0810   36.9780    7.7340 O.co2 408  GLU408     -0.2457
    139  OE2       34.8840   36.6920    8.8720 O.co2 408  GLU408     -0.2457
    140  N         34.0840   33.3920    3.3810 N.am  409  LEU409     -0.1966
    141  CA        33.3250   32.4830    2.4740 C.3   409  LEU409      0.1728
    142  C         32.9050   31.2850    3.2910 C.2   409  LEU409      0.2617
    143  O         33.3360   31.1180    4.4600 O.2   409  LEU409     -0.2715
    144  CB        34.1850   32.2700    1.2330 C.3   409  LEU409      0.0311
    145  CG        35.2370   31.1900    1.1780 C.3   409  LEU409      0.0022
    146  CD1       35.4140   30.6790   -0.2500 C.3   409  LEU409      0.0001
    147  CD2       36.5760   31.7920    1.6150 C.3   409  LEU409      0.0001
    148  N         32.0940   30.4250    2.7290 N.am  410  SER410     -0.1936
    149  CA        31.5690   29.1950    3.3730 C.3   410  SER410      0.2055
    150  C         30.6500   29.5960    4.5220 C.2   410  SER410      0.2643
    151  O         30.1380   30.7440    4.4920 O.2   410  SER410     -0.2714
    152  CB        32.6430   28.1880    3.6730 C.3   410  SER410      0.2130
    153  OG        32.0800   26.9950    4.2870 O.3   410  SER410     -0.2179
    154  N         30.3640   28.7460    5.4740 N.am  411  ALA411     -0.1963
    155  CA        29.3990   29.0040    6.5680 C.3   411  ALA411      0.1728
    156  C         29.6900   30.2270    7.3880 C.2   411  ALA411      0.2616
    157  O         30.8260   30.4040    7.8710 O.2   411  ALA411     -0.2715
    158  CB        29.3370   27.7510    7.4310 C.3   411  ALA411      0.0334
    159  N         28.6910   31.0920    7.5210 N.am  412  ARG412     -0.1963
    160  CA        28.8210   32.3300    8.3010 C.3   412  ARG412      0.1729
    161  C         28.6930   32.0210    9.7900 C.2   412  ARG412      0.2616
    162  O         28.1680   30.9450   10.1770 O.2   412  ARG412     -0.2715
    163  CB        27.7960   33.4120    7.9000 C.3   412  ARG412      0.0348
    164  CG        26.3530   33.0550    8.1750 C.3   412  ARG412      0.0492
    165  CD        25.4050   34.1650    7.9660 C.3   412  ARG412      0.2205
    166  NE        24.0320   33.7830    8.2580 N.pl3 412  ARG412     -0.0865
    167  CZ        23.2340   33.1170    7.4220 C.cat 412  ARG412      0.5346
    168  NH1       23.6060   32.7610    6.2210 N.pl3 412  ARG412      0.1354
    169  NH2       22.0370   32.7450    7.8560 N.pl3 412  ARG412      0.1354
    170  N         29.2180   32.9280   10.5980 N.am  413  ASP413     -0.1971
    171  CA        29.1770   32.8510   12.0610 C.3   413  ASP413      0.1709
    172  C         29.3400   31.4280   12.5690 C.2   413  ASP413      0.2293
    173  O         28.4220   30.8940   13.2450 O.2   413  ASP413     -0.2864
    174  CB        27.8860   33.5480   12.5540 C.3   413  ASP413      0.1436
    175  CG        27.8330   35.0140   12.2100 C.2   413  ASP413      0.3671
    176  OD1       28.7330   35.7240   12.6900 O.co2 413  ASP413     -0.2456
    177  OD2       26.9510   35.5500   11.5410 O.co2 413  ASP413     -0.2456
    178  N         34.3670   30.8800   16.6640 N.3   418  TYR418     -0.1241
    179  CA        34.3650   31.7080   17.8700 C.3   418  TYR418      0.1605
    180  C         35.0180   31.0190   19.0570 C.2   418  TYR418      0.2264
    181  O         35.7280   31.6890   19.8250 O.2   418  TYR418     -0.2867
    182  CB        32.9540   32.2420   18.2460 C.3   418  TYR418      0.0534
    183  CG        32.3340   33.1050   17.1850 C.ar  418  TYR418     -0.0201
    184  CD1       32.8910   34.3660   16.9160 C.ar  418  TYR418     -0.0009
    185  CD2       31.2890   32.6510   16.3950 C.ar  418  TYR418     -0.0009
    186  CE1       32.3560   35.1760   15.9140 C.ar  418  TYR418      0.0417
    187  CE2       30.7570   33.4350   15.3670 C.ar  418  TYR418      0.0417
    188  CZ        31.3140   34.6990   15.1500 C.ar  418  TYR418      0.1957
    189  OH        30.7950   35.4820   14.1570 O.3   418  TYR418     -0.2866
@<TRIPOS>BOND
     1    98    97    2
     2    99    97   am
     3    97    96    1
     4    96    93    1
     5   146   145    1
     6    93    92    1
     7    93    94    1
     8   145   144    1
     9   145   147    1
    10   144   141    1
    11    92    86   am
    12    95    94    2
    13    88    89    1
    14    88    85    1
    15    89    90   ar
    16    89    91   ar
    17   134   133    2
    18    86    85    1
    19    86    87    2
    20   141   142    1
    21   141   140    1
    22    85    84    1
    23   148   142   am
    24   148   149    1
    25   133   140   am
    26   133   132    1
    27   142   143    2
    28   149   152    1
    29   149   150    1
    30   131   132    1
    31   152   153    1
    32    84    79   am
    33   132   135    1
    34    80    79    2
    35   151   150    2
    36   150   154   am
    37    79    78    1
    38   135   136    1
    39   154   155    1
    40    76    75    1
    41    82    81    1
    42   168   167    1
    43    78    81    1
    44    78    77    1
    45   136   137    1
    46   155   156    1
    47   155   158    1
    48   130   129    1
    49    81    83    1
    50    77    73   am
    51    75    72    1
    52    73    72    1
    53    73    74    2
    54   156   159   am
    55   156   157    2
    56   167   169    1
    57   167   166    2
    58   159   160    1
    59    72    71    1
    60   129   126    1
    61   138   137   ar
    62   137   139   ar
    63   163   164    1
    64   163   160    1
    65   165   164    1
    66   165   166    1
    67   160   161    1
    68   126   127    1
    69   126   125    1
    70    71    66   am
    71   127   128    2
    72    67    66    2
    73   100   101    1
    74   161   162    2
    75   161   170   am
    76    66    65    1
    77   104   101    1
    78   104   105    1
    79   101   102    1
    80   170   171    1
    81   103   102    2
    82   105   107   ar
    83   105   106   ar
    84   122   121    2
    85   107   109   ar
    86   123   124    1
    87   123   120    1
    88    65    64    1
    89    65    68    1
    90   177   175   ar
    91   106   108   ar
    92    64    70    1
    93   121   120    1
    94    68    69    1
    95    70    69    1
    96   117   116    2
    97   171   174    1
    98   171   172    1
    99   111   112    1
   100   109   110   ar
   101   175   174    1
   102   175   176   ar
   103   118   116   am
   104   116   115    1
   105   120   119    1
   106   172   173    2
   107   108   110   ar
   108   115   112    1
   109   112   113    1
   110    36    35    2
   111   113   114    2
   112   189   188    1
   113    57    56    2
   114    35    34    1
   115    35    47   am
   116    39    41   ar
   117    39    38   ar
   118    37    38    1
   119    37    34    1
   120    41    42   ar
   121    38    40   ar
   122   188   187   ar
   123   188   186   ar
   124    40    42   ar
   125    40    43   ar
   126    42    44   ar
   127    34    33    1
   128    43    45   ar
   129    44    46   ar
   130   187   185   ar
   131    46    45   ar
   132    52    51    1
   133    56    55    1
   134    56    60   am
   135    48    47    1
   136    48    49    1
   137    48    51    1
   138    58    55    1
   139    58    59    1
   140   186   184   ar
   141    61    60    1
   142    61    62    1
   143    54    49   am
   144    54    55    1
   145    49    50    2
   146    51    53    1
   147    31    30    2
   148   185   183   ar
   149    62    63    2
   150   178   179    1
   151    33    30   am
   152   184   183   ar
   153    30    29    1
   154   183   182    1
   155     6     5    1
   156   179   182    1
   157   179   180    1
   158    19    16    1
   159    23    22    2
   160    29    32    1
   161    29    28    1
   162    27    25   am
   163    18    17    2
   164    24    25    1
   165    24    21    1
   166    22    21    1
   167    16    17    1
   168    16    15    1
   169   180   181    2
   170     5     7    1
   171     5     2    1
   172    25    26    2
   173    21    20    1
   174     4     3    2
   175    15    10   am
   176     3     2    1
   177     2     1    1
   178    11    10    2
   179    10     9    1
   180    14    12    1
   181    12     9    1
   182    12    13    1
   183     9     8    1
