@<TRIPOS>MOLECULE
tmp/3glzA00.pdb
 69 63 0 0 0
SMALL
GASTEIGER

@<TRIPOS>ATOM
      1  N         22.0520   34.9190    2.5270 N.3     6  LYS6       -0.1245
      2  CA        23.0730   35.9670    2.4020 C.3     6  LYS6        0.1561
      3  C         23.7940   36.1090    3.7360 C.2     6  LYS6        0.2260
      4  O         23.1430   36.2080    4.7760 O.2     6  LYS6       -0.2867
      5  CB        22.4440   37.2890    1.9470 C.3     6  LYS6        0.0271
      6  CG        23.4710   38.4190    1.7500 C.3     6  LYS6        0.0035
      7  CD        22.9000   39.6490    1.0540 C.3     6  LYS6        0.0206
      8  CE        23.9590   40.7400    0.9570 C.3     6  LYS6        0.1093
      9  NZ        23.6760   41.7530   -0.1140 N.3     6  LYS6       -0.1314
     10  N         26.8620   38.0870    6.0200 N.3     8  LEU8       -0.1245
     11  CA        27.7840   39.2330    6.1830 C.3     8  LEU8        0.1561
     12  C         28.6950   39.0850    7.4130 C.2     8  LEU8        0.2260
     13  O         28.3630   38.4450    8.4220 O.2     8  LEU8       -0.2867
     14  CB        26.9750   40.5470    6.2680 C.3     8  LEU8        0.0270
     15  CG        25.9980   40.8560    5.1160 C.3     8  LEU8        0.0019
     16  CD1       25.2200   42.1220    5.4390 C.3     8  LEU8        0.0001
     17  CD2       26.7220   41.0190    3.7830 C.3     8  LEU8        0.0001
     18  N         14.3230   34.7830    1.6550 N.3    97  THR97      -0.1218
     19  CA        15.7300   35.1640    1.7650 C.3    97  THR97       0.1862
     20  C         16.1150   35.1050    3.2440 C.2    97  THR97       0.2287
     21  O         15.5230   35.8050    4.0870 O.2    97  THR97      -0.2866
     22  CB        16.0540   36.5990    1.2010 C.3    97  THR97       0.1770
     23  OG1       15.9240   36.6000   -0.2080 O.3    97  THR97      -0.2211
     24  CG2       17.4900   36.9870    1.5290 C.3    97  THR97       0.0375
     25  N         18.9440   35.9890    5.8520 N.3    99  ALA99      -0.1231
     26  CA        20.1610   36.8120    5.9220 C.3    99  ALA99       0.1694
     27  C         20.7640   36.6380    7.3000 C.2    99  ALA99       0.2592
     28  O         20.0270   36.5930    8.2760 O.2    99  ALA99      -0.2718
     29  CB        19.8130   38.2530    5.7160 C.3    99  ALA99       0.0304
     30  N         22.0870   36.5000    7.3940 N.am  100  ALA100     -0.1966
     31  CA        22.7430   36.3980    8.7000 C.3   100  ALA100      0.1728
     32  C         23.9140   37.3590    8.7760 C.2   100  ALA100      0.2616
     33  O         24.6120   37.5660    7.7670 O.2   100  ALA100     -0.2715
     34  CB        23.2000   34.9740    8.9810 C.3   100  ALA100      0.0334
     35  N         24.1150   37.9190    9.9670 N.am  101  LEU101     -0.1977
     36  CA        25.1830   38.8890   10.2420 C.3   101  LEU101      0.1596
     37  C         26.0460   38.2570   11.3110 C.2   101  LEU101      0.2287
     38  O         25.5680   37.9330   12.3850 O.2   101  LEU101     -0.2864
     39  CB        24.5750   40.1960   10.7630 C.3   101  LEU101      0.0297
     40  CG        25.5440   41.2780   11.2610 C.3   101  LEU101      0.0022
     41  CD1       26.3760   41.7270   10.0260 C.3   101  LEU101      0.0001
     42  CD2       24.8000   42.4590   11.8680 C.3   101  LEU101      0.0001
     43  N         23.0720   37.5450   14.0740 N.3   108  SER108     -0.1202
     44  CA        21.6670   37.9500   13.8930 C.3   108  SER108      0.2020
     45  C         21.1970   37.2600   12.6380 C.2   108  SER108      0.2619
     46  O         21.9910   37.0160   11.6970 O.2   108  SER108     -0.2717
     47  CB        21.6060   39.4700   13.6920 C.3   108  SER108      0.2103
     48  OG        22.0150   40.1420   14.8650 O.3   108  SER108     -0.2182
     49  N         19.9090   36.9060   12.5750 N.am  109  THR109     -0.1938
     50  CA        19.4010   36.3620   11.3480 C.3   109  THR109      0.2028
     51  C         18.0870   37.0680   11.0920 C.2   109  THR109      0.2642
     52  O         17.3940   37.4130   12.0610 O.2   109  THR109     -0.2714
     53  CB        19.1530   34.8130   11.3700 C.3   109  THR109      0.1808
     54  OG1       18.6390   34.4420   10.1270 O.3   109  THR109     -0.2208
     55  CG2       18.1030   34.4060   12.3700 C.3   109  THR109      0.0379
     56  N         17.7590   37.2830    9.8300 N.am  110  THR110     -0.1950
     57  CA        16.4410   37.8350    9.4570 C.3   110  THR110      0.1897
     58  C         15.8910   37.1190    8.2130 C.2   110  THR110      0.2313
     59  O         16.6510   36.5970    7.4190 O.2   110  THR110     -0.2863
     60  CB        16.5210   39.3510    9.1860 C.3   110  THR110      0.1794
     61  OG1       17.3330   39.9730   10.1800 O.3   110  THR110     -0.2208
     62  CG2       15.1410   39.9770    9.2180 C.3   110  THR110      0.0378
     63  N         13.2800   37.5020    4.8350 N.3   112  VAL112     -0.1245
     64  CA        12.4640   38.3740    4.0140 C.3   112  VAL112      0.1561
     65  C         11.6770   37.4040    3.1640 C.2   112  VAL112      0.2260
     66  O         12.2700   36.5850    2.4600 O.2   112  VAL112     -0.2867
     67  CB        13.3050   39.2710    3.1260 C.3   112  VAL112      0.0252
     68  CG1       12.4220   40.0740    2.1650 C.3   112  VAL112      0.0019
     69  CG2       14.2080   40.2140    4.0020 C.3   112  VAL112      0.0019
@<TRIPOS>BOND
     1    23    22    1
     2     9     8    1
     3     8     7    1
     4     7     6    1
     5    22    24    1
     6    22    19    1
     7    18    19    1
     8     6     5    1
     9    19    20    1
    10     5     2    1
    11    68    67    1
    12     2     1    1
    13     2     3    1
    14    66    65    2
    15    67    69    1
    16    67    64    1
    17    65    64    1
    18    20    21    2
    19     3     4    2
    20    17    15    1
    21    64    63    1
    22    15    16    1
    23    15    14    1
    24    29    26    1
    25    25    26    1
    26    26    27    1
    27    10    11    1
    28    11    14    1
    29    11    12    1
    30    27    30   am
    31    27    28    2
    32    30    31    1
    33    12    13    2
    34    59    58    2
    35    33    32    2
    36    58    57    1
    37    31    32    1
    38    31    34    1
    39    32    35   am
    40    60    62    1
    41    60    57    1
    42    60    61    1
    43    57    56    1
    44    56    51   am
    45    35    36    1
    46    41    40    1
    47    54    53    1
    48    36    39    1
    49    36    37    1
    50    39    40    1
    51    51    50    1
    52    51    52    2
    53    40    42    1
    54    37    38    2
    55    50    53    1
    56    50    49    1
    57    53    55    1
    58    46    45    2
    59    49    45   am
    60    45    44    1
    61    47    44    1
    62    47    48    1
    63    44    43    1
