@<TRIPOS>MOLECULE
tmp/3gm0A00.pdb
 157 154 0 0 0
SMALL
GASTEIGER

@<TRIPOS>ATOM
      1  N         -4.6550   -6.8300   23.5480 N.3    33  TYR33      -0.1241
      2  CA        -3.8740   -7.7950   22.7900 C.3    33  TYR33       0.1605
      3  C         -2.3910   -7.4770   22.8290 C.2    33  TYR33       0.2264
      4  O         -1.9990   -6.3120   22.8510 O.2    33  TYR33      -0.2867
      5  CB        -4.3080   -7.7990   21.3170 C.3    33  TYR33       0.0534
      6  CG        -5.7800   -8.0220   21.0830 C.ar   33  TYR33      -0.0201
      7  CD1       -6.7090   -7.0160   21.3420 C.ar   33  TYR33      -0.0009
      8  CD2       -6.2420   -9.2370   20.5970 C.ar   33  TYR33      -0.0009
      9  CE1       -8.0640   -7.2160   21.1210 C.ar   33  TYR33       0.0417
     10  CE2       -7.5970   -9.4520   20.3710 C.ar   33  TYR33       0.0417
     11  CZ        -8.5050   -8.4380   20.6350 C.ar   33  TYR33       0.1957
     12  OH        -9.8480   -8.6620   20.4160 O.3    33  TYR33      -0.2866
     13  N          0.8610   -8.0620   20.6360 N.3    35  SER35      -0.1217
     14  CA         1.2990   -8.4820   19.3270 C.3    35  SER35       0.1889
     15  C          2.8070   -8.5040   19.1850 C.2    35  SER35       0.2288
     16  O          3.5290   -7.8730   19.9500 O.2    35  SER35      -0.2866
     17  CB         0.7080   -7.5520   18.2680 C.3    35  SER35       0.2089
     18  OG        -0.7030   -7.4940   18.3640 O.3    35  SER35      -0.2183
     19  N          5.6310   -7.9180   16.1610 N.3    37  ILE37      -0.1245
     20  CA         5.7600   -7.3080   14.8520 C.3    37  ILE37       0.1561
     21  C          7.2450   -7.1990   14.5640 C.2    37  ILE37       0.2260
     22  O          8.0020   -6.7510   15.4220 O.2    37  ILE37      -0.2867
     23  CB         5.1280   -5.8840   14.8780 C.3    37  ILE37       0.0252
     24  CG1        3.7070   -5.9630   15.4430 C.3    37  ILE37       0.0019
     25  CG2        5.0890   -5.2800   13.4890 C.3    37  ILE37       0.0019
     26  CD1        3.0560   -4.6280   15.6500 C.3    37  ILE37       0.0001
     27  N          3.4120   -8.0400   10.3520 N.3    47  TYR47      -0.1241
     28  CA         2.5920   -8.4060   11.5160 C.3    47  TYR47       0.1605
     29  C          2.6050   -9.9330   11.6930 C.2    47  TYR47       0.2264
     30  O          2.1270  -10.6730   10.8280 O.2    47  TYR47      -0.2867
     31  CB         1.1490   -7.9310   11.3400 C.3    47  TYR47       0.0534
     32  CG         0.3270   -8.0790   12.6060 C.ar   47  TYR47      -0.0201
     33  CD1        0.4310   -7.1370   13.6400 C.ar   47  TYR47      -0.0009
     34  CD2       -0.4950   -9.1980   12.8100 C.ar   47  TYR47      -0.0009
     35  CE1       -0.2570   -7.3030   14.8450 C.ar   47  TYR47       0.0417
     36  CE2       -1.1870   -9.3730   14.0190 C.ar   47  TYR47       0.0417
     37  CZ        -1.0640   -8.4200   15.0270 C.ar   47  TYR47       0.1957
     38  OH        -1.7560   -8.5600   16.2050 O.3    47  TYR47      -0.2866
     39  N         -0.6940  -12.3500   17.5960 N.3    50  TYR50      -0.1241
     40  CA        -0.9480  -11.8450   18.9320 C.3    50  TYR50       0.1605
     41  C         -1.5160  -12.9080   19.8600 C.2    50  TYR50       0.2264
     42  O         -1.8060  -14.0310   19.4540 O.2    50  TYR50      -0.2867
     43  CB        -1.9380  -10.6730   18.8700 C.3    50  TYR50       0.0534
     44  CG        -3.3590  -11.0730   18.5010 C.ar   50  TYR50      -0.0201
     45  CD1       -4.1160  -11.8910   19.3430 C.ar   50  TYR50      -0.0009
     46  CD2       -3.9550  -10.6160   17.3250 C.ar   50  TYR50      -0.0009
     47  CE1       -5.4280  -12.2380   19.0290 C.ar   50  TYR50       0.0417
     48  CE2       -5.2710  -10.9610   16.9990 C.ar   50  TYR50       0.0417
     49  CZ        -6.0010  -11.7690   17.8600 C.ar   50  TYR50       0.1957
     50  OH        -7.3110  -12.0990   17.5760 O.3    50  TYR50      -0.2866
     51  N         -2.1960   -3.2770   22.6530 N.3    98  PHE98      -0.1241
     52  CA        -3.3030   -2.4420   22.1860 C.3    98  PHE98       0.1605
     53  C         -4.6310   -2.8420   22.8090 C.2    98  PHE98       0.2264
     54  O         -4.9780   -4.0220   22.8470 O.2    98  PHE98      -0.2867
     55  CB        -3.4180   -2.5270   20.6490 C.3    98  PHE98       0.0534
     56  CG        -4.5850   -1.7610   20.0740 C.ar   98  PHE98      -0.0203
     57  CD1       -4.5070   -0.3850   19.8710 C.ar   98  PHE98      -0.0042
     58  CD2       -5.7630   -2.4260   19.7120 C.ar   98  PHE98      -0.0042
     59  CE1       -5.5800    0.3220   19.3110 C.ar   98  PHE98      -0.0003
     60  CE2       -6.8440   -1.7330   19.1510 C.ar   98  PHE98      -0.0003
     61  CZ        -6.7540   -0.3550   18.9490 C.ar   98  PHE98      -0.0000
     62  N         -8.5060   -2.7180   22.4150 N.3   100  SER100     -0.1217
     63  CA        -9.5890   -2.5070   21.4470 C.3   100  SER100      0.1889
     64  C        -10.5330   -1.3680   21.8240 C.2   100  SER100      0.2288
     65  O        -11.0510   -0.6690   20.9510 O.2   100  SER100     -0.2866
     66  CB       -10.3960   -3.8030   21.2660 C.3   100  SER100      0.2089
     67  OG       -10.8220   -4.3320   22.5190 O.3   100  SER100     -0.2183
     68  N         -1.2900    3.0170   21.3820 N.3   106  GLU106     -0.1245
     69  CA        -0.6400    1.7400   21.1660 C.3   106  GLU106      0.1567
     70  C          0.7420    1.7970   21.7870 C.2   106  GLU106      0.2260
     71  O          1.4350    2.8000   21.6750 O.2   106  GLU106     -0.2867
     72  CB        -0.5260    1.4410   19.6740 C.3   106  GLU106      0.0388
     73  CG        -0.4800   -0.0410   19.3530 C.3   106  GLU106      0.1160
     74  CD        -0.2680   -0.2980   17.8820 C.2   106  GLU106      0.3649
     75  OE1       -0.7530   -1.3270   17.3800 O.co2 106  GLU106     -0.2457
     76  OE2        0.3950    0.5310   17.2270 O.co2 106  GLU106     -0.2457
     77  N         -4.5830    3.2480   10.0510 N.3   162  TYR162     -0.1241
     78  CA        -3.6770    3.9810   10.9340 C.3   162  TYR162      0.1605
     79  C         -2.3580    4.4220   10.2780 C.2   162  TYR162      0.2264
     80  O         -1.9150    3.8310    9.2910 O.2   162  TYR162     -0.2867
     81  CB        -3.3190    3.0820   12.1200 C.3   162  TYR162      0.0534
     82  CG        -4.3600    2.9340   13.2100 C.ar  162  TYR162     -0.0201
     83  CD1       -5.7300    2.9260   12.9190 C.ar  162  TYR162     -0.0009
     84  CD2       -3.9660    2.7700   14.5450 C.ar  162  TYR162     -0.0009
     85  CE1       -6.6790    2.7650   13.9380 C.ar  162  TYR162      0.0417
     86  CE2       -4.8970    2.6010   15.5630 C.ar  162  TYR162      0.0417
     87  CZ        -6.2500    2.6050   15.2600 C.ar  162  TYR162      0.1957
     88  OH        -7.1640    2.4890   16.2840 O.3   162  TYR162     -0.2866
     89  N          1.8770    5.6810   11.1600 N.3   164  TYR164     -0.1241
     90  CA         2.9910    5.6210   12.1190 C.3   164  TYR164      0.1605
     91  C          4.2290    6.4120   11.6780 C.2   164  TYR164      0.2264
     92  O          4.5430    6.4890   10.4890 O.2   164  TYR164     -0.2867
     93  CB         3.4260    4.1620   12.3490 C.3   164  TYR164      0.0534
     94  CG         2.3800    3.2640   12.9750 C.ar  164  TYR164     -0.0201
     95  CD1        1.4200    2.6190   12.1930 C.ar  164  TYR164     -0.0009
     96  CD2        2.3210    3.0990   14.3570 C.ar  164  TYR164     -0.0009
     97  CE1        0.4280    1.8390   12.7710 C.ar  164  TYR164      0.0417
     98  CE2        1.3340    2.3250   14.9460 C.ar  164  TYR164      0.0417
     99  CZ         0.3860    1.6990   14.1490 C.ar  164  TYR164      0.1957
    100  OH        -0.6230    0.9680   14.7360 O.3   164  TYR164     -0.2866
    101  N         -1.1080    1.7190    8.0930 N.3   217  HIS217     -0.1241
    102  CA        -1.4050    0.4140    8.6240 C.3   217  HIS217      0.1621
    103  C         -2.8820    0.0930    8.4840 C.2   217  HIS217      0.2264
    104  O         -3.7360    0.9700    8.5840 O.2   217  HIS217     -0.2867
    105  CB        -0.9670    0.4010   10.0900 C.3   217  HIS217      0.0745
    106  CG        -1.3430   -0.8370   10.8380 C.ar  217  HIS217      0.0817
    107  ND1       -1.0420   -2.1040   10.3870 N.ar  217  HIS217     -0.2268
    108  CD2       -1.9430   -0.9990   12.0410 C.ar  217  HIS217      0.1154
    109  CE1       -1.4410   -2.9920   11.2810 C.ar  217  HIS217      0.1986
    110  NE2       -1.9910   -2.3460   12.2930 N.ar  217  HIS217     -0.2212
    111  N         -5.8860   -2.7360    9.7850 N.3   219  TRP219     -0.1241
    112  CA        -6.2820   -3.8580   10.6310 C.3   219  TRP219      0.1605
    113  C         -7.7990   -4.0850   10.5090 C.2   219  TRP219      0.2264
    114  O         -8.4840   -4.4920   11.4410 O.2   219  TRP219     -0.2867
    115  CB        -5.8320   -3.6720   12.0950 C.3   219  TRP219      0.0550
    116  CG        -6.2660   -2.4200   12.7900 C.ar  219  TRP219      0.0003
    117  CD1       -5.8270   -1.1460   12.5480 C.ar  219  TRP219      0.0946
    118  CD2       -7.2060   -2.3210   13.8640 C.ar  219  TRP219      0.0152
    119  NE1       -6.4350   -0.2650   13.4040 N.ar  219  TRP219     -0.2442
    120  CE2       -7.2850   -0.9580   14.2250 C.ar  219  TRP219      0.0810
    121  CE3       -7.9910   -3.2530   14.5590 C.ar  219  TRP219      0.0012
    122  CZ2       -8.1190   -0.5030   15.2540 C.ar  219  TRP219      0.0191
    123  CZ3       -8.8210   -2.7980   15.5820 C.ar  219  TRP219      0.0001
    124  CH2       -8.8760   -1.4380   15.9180 C.ar  219  TRP219      0.0015
    125  N         -7.8150   -9.5190    8.3640 N.3   222  PHE222     -0.1241
    126  CA        -6.7130  -10.3340    8.8700 C.3   222  PHE222      0.1605
    127  C         -6.0200  -11.0520    7.7040 C.2   222  PHE222      0.2264
    128  O         -6.6750  -11.5950    6.8310 O.2   222  PHE222     -0.2867
    129  CB        -7.2150  -11.3990    9.8600 C.3   222  PHE222      0.0534
    130  CG        -7.6920  -10.8550   11.1860 C.ar  222  PHE222     -0.0203
    131  CD1       -8.8890  -10.1460   11.2860 C.ar  222  PHE222     -0.0042
    132  CD2       -6.9700  -11.1080   12.3570 C.ar  222  PHE222     -0.0042
    133  CE1       -9.3630   -9.7020   12.5390 C.ar  222  PHE222     -0.0003
    134  CE2       -7.4380  -10.6660   13.6070 C.ar  222  PHE222     -0.0003
    135  CZ        -8.6370   -9.9650   13.6950 C.ar  222  PHE222     -0.0000
    136  N         -3.4590   -8.2360    9.5200 N.3   224  PHE224     -0.1241
    137  CA        -3.2440   -6.8100    9.3940 C.3   224  PHE224      0.1605
    138  C         -1.9670   -6.6210    8.5920 C.2   224  PHE224      0.2264
    139  O         -1.1010   -7.4910    8.5800 O.2   224  PHE224     -0.2867
    140  CB        -3.0870   -6.1760   10.7760 C.3   224  PHE224      0.0534
    141  CG        -4.0980   -6.6570   11.7850 C.ar  224  PHE224     -0.0203
    142  CD1       -5.4140   -6.9280   11.4030 C.ar  224  PHE224     -0.0042
    143  CD2       -3.7380   -6.8190   13.1280 C.ar  224  PHE224     -0.0042
    144  CE1       -6.3550   -7.3500   12.3370 C.ar  224  PHE224     -0.0003
    145  CE2       -4.6720   -7.2400   14.0770 C.ar  224  PHE224     -0.0003
    146  CZ        -5.9850   -7.5050   13.6780 C.ar  224  PHE224     -0.0000
    147  N          1.0690   -3.5550    6.7540 N.3   226  PHE226     -0.1241
    148  CA         1.6790   -2.2360    6.7990 C.3   226  PHE226      0.1605
    149  C          2.0830   -1.8790    5.3850 C.2   226  PHE226      0.2264
    150  O          2.3330   -2.7630    4.5560 O.2   226  PHE226     -0.2867
    151  CB         2.9150   -2.2260    7.7060 C.3   226  PHE226      0.0534
    152  CG         2.5910   -2.3330    9.1670 C.ar  226  PHE226     -0.0203
    153  CD1        2.3580   -3.5700    9.7540 C.ar  226  PHE226     -0.0042
    154  CD2        2.4800   -1.1870    9.9490 C.ar  226  PHE226     -0.0042
    155  CE1        2.0210   -3.6690   11.0980 C.ar  226  PHE226     -0.0003
    156  CE2        2.1400   -1.2740   11.2970 C.ar  226  PHE226     -0.0003
    157  CZ         1.9100   -2.5210   11.8720 C.ar  226  PHE226     -0.0000
@<TRIPOS>BOND
     1   150   149    2
     2   149   148    1
     3   147   148    1
     4   148   151    1
     5   128   127    2
     6   127   126    1
     7   151   152    1
     8   101   102    1
     9   125   126    1
    10   103   104    2
    11   103   102    1
    12   139   138    2
    13   138   137    1
    14   102   105    1
    15   126   129    1
    16   152   153   ar
    17   152   154   ar
    18    80    79    2
    19   137   136    1
    20   137   140    1
    21   153   155   ar
    22   111   112    1
    23   129   130    1
    24   154   156   ar
    25    77    78    1
    26   105   106    1
    27    79    78    1
    28    27    28    1
    29   107   106   ar
    30   107   109   ar
    31    92    91    2
    32   113   112    1
    33   113   114    2
    34   112   115    1
    35   140   141    1
    36    30    29    2
    37   106   108   ar
    38    78    81    1
    39   155   157   ar
    40    89    90    1
    41   130   131   ar
    42   130   132   ar
    43   109   110   ar
    44   131   133   ar
    45   156   157   ar
    46    31    28    1
    47    31    32    1
    48   142   141   ar
    49   142   144   ar
    50    28    29    1
    51    91    90    1
    52   141   143   ar
    53   108   110   ar
    54   115   116    1
    55    90    93    1
    56    81    82    1
    57    95    97   ar
    58    95    94   ar
    59   144   146   ar
    60    93    94    1
    61   132   134   ar
    62   133   135   ar
    63   117   116   ar
    64   117   119   ar
    65    32    34   ar
    66    32    33   ar
    67    97    99   ar
    68   116   118   ar
    69    34    36   ar
    70    83    82   ar
    71    83    85   ar
    72    94    96   ar
    73   143   145   ar
    74    82    84   ar
    75   119   120   ar
    76    25    23    1
    77   134   135   ar
    78    33    35   ar
    79   146   145   ar
    80   118   120   ar
    81   118   121   ar
    82    85    87   ar
    83    36    37   ar
    84    99   100    1
    85    99    98   ar
    86   120   122   ar
    87    96    98   ar
    88    84    86   ar
    89   121   123   ar
    90    21    20    1
    91    21    22    2
    92    35    37   ar
    93    20    23    1
    94    20    19    1
    95    23    24    1
    96    37    38    1
    97   122   124   ar
    98    87    86   ar
    99    87    88    1
   100    24    26    1
   101   123   124   ar
   102    48    46   ar
   103    48    49   ar
   104    76    74   ar
   105    46    44   ar
   106    75    74   ar
   107    50    49    1
   108    39    40    1
   109    49    47   ar
   110    74    73    1
   111    17    18    1
   112    17    14    1
   113    44    43    1
   114    44    45   ar
   115    43    40    1
   116    40    41    1
   117    61    60   ar
   118    61    59   ar
   119    47    45   ar
   120    60    58   ar
   121    15    14    1
   122    15    16    2
   123    59    57   ar
   124    14    13    1
   125    73    72    1
   126    42    41    2
   127    72    69    1
   128    58    56   ar
   129    57    56   ar
   130    56    55    1
   131    10     8   ar
   132    10    11   ar
   133    12    11    1
   134     8     6   ar
   135    11     9   ar
   136    55    52    1
   137    65    64    2
   138     6     5    1
   139     6     7   ar
   140     9     7   ar
   141    69    68    1
   142    69    70    1
   143    66    63    1
   144    66    67    1
   145     5     2    1
   146    63    64    1
   147    63    62    1
   148    71    70    2
   149    52    51    1
   150    52    53    1
   151     2     3    1
   152     2     1    1
   153    53    54    2
   154     3     4    2
