@<TRIPOS>MOLECULE
tmp/3gm1D00.pdb
 163 155 0 0 0
SMALL
GASTEIGER

@<TRIPOS>ATOM
      1  N         39.4940  -10.1440    5.3920 N.3     1  ILE1       -0.1231
      2  CA        38.6010  -11.1490    6.0480 C.3     1  ILE1        0.1692
      3  C         39.3960  -12.3580    6.5930 C.2     1  ILE1        0.2592
      4  O         39.5750  -13.3850    5.9090 O.2     1  ILE1       -0.2718
      5  CB        37.4450  -11.5940    5.1130 C.3     1  ILE1        0.0266
      6  CG1       37.9500  -12.3400    3.8700 C.3     1  ILE1        0.0019
      7  CG2       36.6270  -10.3770    4.7370 C.3     1  ILE1        0.0020
      8  CD1       36.8280  -12.9340    3.0440 C.3     1  ILE1        0.0001
      9  N         39.8710  -12.1970    7.8340 N.am    2  GLN2       -0.1966
     10  CA        40.6070  -13.2190    8.5860 C.3     2  GLN2        0.1718
     11  C         39.6350  -14.1500    9.3310 C.2     2  GLN2        0.2458
     12  O         38.4420  -13.8460    9.4100 O.2     2  GLN2       -0.2730
     13  CB        41.5500  -12.5410    9.5900 C.3     2  GLN2        0.0407
     14  CG        40.8630  -12.1180   10.8950 C.3     2  GLN2        0.0908
     15  CD        40.4950  -10.6420   10.9330 C.2     2  GLN2        0.2608
     16  OE1       41.3760   -9.7770   10.9960 O.2     2  GLN2       -0.2717
     17  NE2       39.1930  -10.3450   10.9220 N.am    2  GLN2       -0.0878
     18  N         40.1410  -15.2800    9.8850 N.am    3  PRO3       -0.2716
     19  CA        39.3310  -16.2640   10.6160 C.3     3  PRO3        0.1536
     20  C         38.3200  -15.6800   11.6120 C.2     3  PRO3        0.2599
     21  O         38.6250  -14.7220   12.3430 O.2     3  PRO3       -0.2715
     22  CB        40.3800  -17.0710   11.3700 C.3     3  PRO3        0.0310
     23  CG        41.5540  -17.0430   10.4980 C.3     3  PRO3        0.0237
     24  CD        41.5320  -15.7480    9.7340 C.3     3  PRO3        0.0939
     25  N         37.1230  -16.2670   11.6250 N.am    4  THR4       -0.1937
     26  CA        36.0650  -15.8670   12.5530 C.3     4  THR4        0.2028
     27  C         36.3210  -16.4040   13.9620 C.2     4  THR4        0.2642
     28  O         36.8740  -17.4900   14.1440 O.2     4  THR4       -0.2714
     29  CB        34.6380  -16.2720   12.0550 C.3     4  THR4        0.1808
     30  OG1       34.5600  -17.6870   11.8310 O.3     4  THR4       -0.2208
     31  CG2       34.3080  -15.5660   10.7680 C.3     4  THR4        0.0379
     32  N         35.9080  -15.6180   14.9480 N.am    5  ALA5       -0.1963
     33  CA        36.0650  -15.9570   16.3430 C.3     5  ALA5        0.1728
     34  C         35.4960  -17.3320   16.6790 C.2     5  ALA5        0.2616
     35  O         34.4580  -17.7340   16.1610 O.2     5  ALA5       -0.2715
     36  CB        35.4150  -14.9030   17.1820 C.3     5  ALA5        0.0334
     37  N         36.2010  -18.0540   17.5440 N.am    6  ASN6       -0.1972
     38  CA        35.7310  -19.3210   18.0740 C.3     6  ASN6        0.1688
     39  C         35.0510  -19.0580   19.3930 C.2     6  ASN6        0.2292
     40  O         35.7190  -18.8990   20.4200 O.2     6  ASN6       -0.2864
     41  CB        36.9010  -20.2830   18.2610 C.3     6  ASN6        0.1181
     42  CG        37.5390  -20.6720   16.9460 C.2     6  ASN6        0.2629
     43  OD1       38.6940  -20.3430   16.6740 O.2     6  ASN6       -0.2716
     44  ND2       36.7720  -21.3560   16.1040 N.am    6  ASN6       -0.0877
     45  N         28.0710  -20.4550   20.2960 N.3     9  ARG9       -0.1245
     46  CA        27.1490  -20.0660   19.2340 C.3     9  ARG9        0.1563
     47  C         25.7280  -20.6030   19.4260 C.2     9  ARG9        0.2260
     48  O         24.9200  -20.5340   18.5050 O.2     9  ARG9       -0.2867
     49  CB        27.7160  -20.4790   17.8780 C.3     9  ARG9        0.0307
     50  CG        29.1370  -19.9760   17.6000 C.3     9  ARG9        0.0489
     51  CD        29.2060  -18.4550   17.5760 C.3     9  ARG9        0.2205
     52  NE        30.4250  -17.9480   16.9320 N.pl3   9  ARG9       -0.0865
     53  CZ        30.7490  -16.6550   16.8490 C.cat   9  ARG9        0.5346
     54  NH1       29.9450  -15.7320   17.3690 N.pl3   9  ARG9        0.1354
     55  NH2       31.8760  -16.2760   16.2530 N.pl3   9  ARG9        0.1354
     56  N         25.2310  -14.2710   14.9190 N.3    15  TYR15      -0.1241
     57  CA        25.9830  -15.2740   14.1870 C.3    15  TYR15       0.1605
     58  C         25.1330  -15.9180   13.1080 C.2    15  TYR15       0.2264
     59  O         25.4690  -15.8520   11.9290 O.2    15  TYR15      -0.2867
     60  CB        26.4990  -16.3520   15.1220 C.3    15  TYR15       0.0534
     61  CG        27.3300  -17.3710   14.4070 C.ar   15  TYR15      -0.0201
     62  CD1       28.6030  -17.0440   13.9540 C.ar   15  TYR15      -0.0009
     63  CD2       26.8520  -18.6610   14.1740 C.ar   15  TYR15      -0.0009
     64  CE1       29.3890  -17.9630   13.2940 C.ar   15  TYR15       0.0417
     65  CE2       27.6360  -19.5990   13.5020 C.ar   15  TYR15       0.0417
     66  CZ        28.9100  -19.2350   13.0650 C.ar   15  TYR15       0.1957
     67  OH        29.7330  -20.1220   12.3910 O.3    15  TYR15      -0.2866
     68  N         24.1890  -13.9350   10.2500 N.3    18  VAL18      -0.1231
     69  CA        25.3350  -13.7000    9.4000 C.3    18  VAL18       0.1692
     70  C         25.6340  -14.9590    8.5780 C.2    18  VAL18       0.2591
     71  O         26.1950  -14.8630    7.4810 O.2    18  VAL18      -0.2718
     72  CB        26.5530  -13.1900   10.1950 C.3    18  VAL18       0.0266
     73  CG1       27.8100  -13.2010    9.3450 C.3    18  VAL18       0.0020
     74  CG2       26.2860  -11.7750   10.7170 C.3    18  VAL18       0.0020
     75  N         25.2260  -16.1240    9.0830 N.am   19  MET19      -0.1979
     76  CA        25.2890  -17.3620    8.3040 C.3    19  MET19       0.1605
     77  C         24.2720  -17.3500    7.1540 C.2    19  MET19       0.2287
     78  O         24.6180  -17.5740    5.9920 O.2    19  MET19      -0.2864
     79  CB        25.0260  -18.5560    9.2030 C.3    19  MET19       0.0413
     80  CG        26.0980  -18.8180   10.2210 C.3    19  MET19       0.0598
     81  SD        27.1830  -20.1730    9.7370 S.3    19  MET19      -0.1393
     82  CE        28.2300  -19.3470    8.5710 C.3    19  MET19       0.0692
     83  N         25.0850  -14.8090    4.4360 N.3    22  VAL22      -0.1231
     84  CA        26.1040  -15.2780    3.5180 C.3    22  VAL22       0.1692
     85  C         25.5690  -16.3640    2.5810 C.2    22  VAL22       0.2591
     86  O         25.8820  -16.3520    1.3870 O.2    22  VAL22      -0.2718
     87  CB        27.3750  -15.7210    4.2860 C.3    22  VAL22       0.0266
     88  CG1       28.1990  -16.7340    3.4890 C.3    22  VAL22       0.0020
     89  CG2       28.2260  -14.4990    4.6570 C.3    22  VAL22       0.0020
     90  N         24.7650  -17.2850    3.1260 N.am   23  ARG23      -0.1980
     91  CA        24.0960  -18.3200    2.3320 C.3    23  ARG23       0.1597
     92  C         23.3570  -17.6410    1.1760 C.2    23  ARG23       0.2287
     93  O         23.5900  -17.9690    0.0130 O.2    23  ARG23      -0.2864
     94  CB        23.0750  -19.1110    3.1670 C.3    23  ARG23       0.0334
     95  CG        21.6010  -18.8540    2.6830 C.3    23  ARG23       0.0492
     96  CD        20.5030  -19.0080    3.7380 C.3    23  ARG23       0.2205
     97  NE        19.6180  -20.1360    3.4330 N.pl3  23  ARG23      -0.0865
     98  CZ        18.7890  -20.7150    4.3080 C.cat  23  ARG23       0.5346
     99  NH1       18.7160  -20.2790    5.5680 N.pl3  23  ARG23       0.1354
    100  NH2       18.0330  -21.7440    3.9220 N.pl3  23  ARG23       0.1354
    101  N         23.6200  -14.7670   -0.1310 N.3    25  VAL25      -0.1231
    102  CA        24.5850  -14.1720   -1.0490 C.3    25  VAL25       0.1692
    103  C         25.2680  -15.2430   -1.8890 C.2    25  VAL25       0.2591
    104  O         25.6300  -14.9970   -3.0340 O.2    25  VAL25      -0.2718
    105  CB        25.6440  -13.3170   -0.3010 C.3    25  VAL25       0.0266
    106  CG1       26.6420  -12.7200   -1.2680 C.3    25  VAL25       0.0020
    107  CG2       24.9760  -12.1980    0.4670 C.3    25  VAL25       0.0020
    108  N         25.4440  -16.4350   -1.3300 N.am   26  LEU26      -0.1980
    109  CA        25.9970  -17.5400   -2.1160 C.3    26  LEU26       0.1596
    110  C         25.0040  -18.0250   -3.1660 C.2    26  LEU26       0.2287
    111  O         25.3640  -18.1190   -4.3290 O.2    26  LEU26      -0.2864
    112  CB        26.4640  -18.6940   -1.2290 C.3    26  LEU26       0.0297
    113  CG        27.9030  -18.6900   -0.7050 C.3    26  LEU26       0.0022
    114  CD1       28.4500  -20.1150   -0.7590 C.3    26  LEU26       0.0001
    115  CD2       28.8030  -17.7660   -1.5200 C.3    26  LEU26       0.0001
    116  N         25.1410  -15.6070   -5.9660 N.3    29  LYS29      -0.1245
    117  CA        26.3840  -15.6270   -6.7350 C.3    29  LYS29       0.1561
    118  C         26.6000  -16.9220   -7.5290 C.2    29  LYS29       0.2260
    119  O         27.7490  -17.3270   -7.7560 O.2    29  LYS29      -0.2867
    120  CB        27.6050  -15.3670   -5.8300 C.3    29  LYS29       0.0271
    121  CG        27.8710  -13.8950   -5.4480 C.3    29  LYS29       0.0035
    122  CD        29.3700  -13.6290   -5.0810 C.3    29  LYS29       0.0206
    123  CE        30.2050  -13.1770   -6.3000 C.3    29  LYS29       0.1093
    124  NZ        31.5980  -12.7790   -5.9690 N.3    29  LYS29      -0.1314
    125  N         28.5580   -9.6020   -3.3660 N.3   115  HIS115     -0.1241
    126  CA        29.7980  -10.0610   -2.7720 C.3   115  HIS115      0.1621
    127  C         30.2320   -9.1470   -1.6290 C.2   115  HIS115      0.2264
    128  O         30.4670   -9.6040   -0.5110 O.2   115  HIS115     -0.2867
    129  CB        30.9140  -10.1620   -3.7990 C.3   115  HIS115      0.0745
    130  CG        32.2050  -10.5890   -3.1950 C.ar  115  HIS115      0.0817
    131  ND1       32.5280  -11.9140   -2.9980 N.ar  115  HIS115     -0.2268
    132  CD2       33.2250   -9.8690   -2.6690 C.ar  115  HIS115      0.1154
    133  CE1       33.7080  -11.9940   -2.4090 C.ar  115  HIS115      0.1986
    134  NE2       34.1510  -10.7670   -2.1950 N.ar  115  HIS115     -0.2212
    135  N         28.3230   -9.3960    1.6320 N.3   118  ALA118     -0.1231
    136  CA        28.7570  -10.4940    2.4850 C.3   118  ALA118      0.1694
    137  C         30.0230  -10.1330    3.2540 C.2   118  ALA118      0.2591
    138  O         30.1350  -10.4290    4.4460 O.2   118  ALA118     -0.2718
    139  CB        28.9820  -11.7430    1.6610 C.3   118  ALA118      0.0304
    140  N         30.9610   -9.4790    2.5730 N.am  119  VAL119     -0.1980
    141  CA        32.2140   -9.1050    3.1980 C.3   119  VAL119      0.1595
    142  C         31.9540   -8.0890    4.3000 C.2   119  VAL119      0.2287
    143  O         32.6540   -8.0660    5.3130 O.2   119  VAL119     -0.2864
    144  CB        33.2320   -8.5760    2.1760 C.3   119  VAL119      0.0276
    145  CG1       34.5750   -8.3060    2.8330 C.3   119  VAL119      0.0022
    146  CG2       33.4100   -9.5850    1.0450 C.3   119  VAL119      0.0022
    147  N         30.2550   -9.8230    7.3290 N.3   122  LYS122     -0.1245
    148  CA        31.3240  -10.5400    8.0060 C.3   122  LYS122      0.1561
    149  C         32.0160   -9.6180    8.9820 C.2   122  LYS122      0.2260
    150  O         32.1550   -9.9410   10.1610 O.2   122  LYS122     -0.2867
    151  CB        32.3420  -11.0210    6.9960 C.3   122  LYS122      0.0271
    152  CG        33.1440  -12.1640    7.4820 C.3   122  LYS122      0.0035
    153  CD        34.3330  -11.7380    8.3190 C.3   122  LYS122      0.0206
    154  CE        34.8760  -12.9560    9.0630 C.3   122  LYS122      0.1093
    155  NZ        36.0130  -12.6850    9.9920 N.3   122  LYS122     -0.1314
    156  N         30.1170   -9.0070   11.9530 N.3   125  LEU125     -0.1245
    157  CA        30.1870  -10.0580   12.9500 C.3   125  LEU125      0.1561
    158  C         31.4360   -9.9270   13.8100 C.2   125  LEU125      0.2260
    159  O         31.3550  -10.0480   15.0270 O.2   125  LEU125     -0.2867
    160  CB        30.1230  -11.4380   12.3100 C.3   125  LEU125      0.0270
    161  CG        30.3520  -12.6160   13.2550 C.3   125  LEU125      0.0019
    162  CD1       29.2780  -12.7050   14.3440 C.3   125  LEU125      0.0001
    163  CD2       30.4030  -13.8790   12.4580 C.3   125  LEU125      0.0001
@<TRIPOS>BOND
     1   119   118    2
     2   118   117    1
     3   117   116    1
     4   117   120    1
     5   123   124    1
     6   123   122    1
     7   120   121    1
     8   121   122    1
     9   111   110    2
    10   129   130    1
    11   129   126    1
    12   125   126    1
    13   130   131   ar
    14   130   132   ar
    15   110   109    1
    16   104   103    2
    17   131   133   ar
    18   126   127    1
    19   132   134   ar
    20   133   134   ar
    21   109   108    1
    22   109   112    1
    23   103   108   am
    24   103   102    1
    25   127   128    2
    26   115   113    1
    27   106   105    1
    28   112   113    1
    29   102   105    1
    30   102   101    1
    31   114   113    1
    32   105   107    1
    33    93    92    2
    34   146   144    1
    35    92    91    1
    36    86    85    2
    37   135   136    1
    38   139   136    1
    39   144   145    1
    40   144   141    1
    41    91    90    1
    42    91    94    1
    43   136   137    1
    44   140   141    1
    45   140   137   am
    46    85    90   am
    47    85    84    1
    48    95    94    1
    49    95    96    1
    50     8     6    1
    51   141   142    1
    52   137   138    2
    53    97    96    1
    54    97    98    2
    55    88    87    1
    56    84    87    1
    57    84    83    1
    58     6     5    1
    59   100    98    1
    60    87    89    1
    61   142   143    2
    62    98    99    1
    63     7     5    1
    64     5     2    1
    65     1     2    1
    66     4     3    2
    67    78    77    2
    68     2     3    1
    69     3     9   am
    70   151   152    1
    71   151   148    1
    72    77    76    1
    73   147   148    1
    74    71    70    2
    75   152   153    1
    76     9    10    1
    77   148   149    1
    78    76    75    1
    79    76    79    1
    80   153   154    1
    81    82    81    1
    82    70    75   am
    83    70    69    1
    84    10    11    1
    85    10    13    1
    86   149   150    2
    87   154   155    1
    88    79    80    1
    89    11    12    2
    90    11    18   am
    91    73    72    1
    92    69    72    1
    93    69    68    1
    94    13    14    1
    95    24    18    1
    96    24    23    1
    97    81    80    1
    98    18    19    1
    99    72    74    1
   100    23    22    1
   101    19    22    1
   102    19    20    1
   103    31    29    1
   104    14    15    1
   105    17    15   am
   106    15    16    2
   107    20    25   am
   108    20    21    2
   109    25    26    1
   110    30    29    1
   111    59    58    2
   112   156   157    1
   113    29    26    1
   114   160   157    1
   115   160   161    1
   116    67    66    1
   117   163   161    1
   118    26    27    1
   119   157   158    1
   120    66    64   ar
   121    66    65   ar
   122    58    57    1
   123   161   162    1
   124    64    62   ar
   125    65    63   ar
   126   158   159    2
   127    62    61   ar
   128    27    28    2
   129    27    32   am
   130    63    61   ar
   131    57    56    1
   132    57    60    1
   133    61    60    1
   134    32    33    1
   135    44    42   am
   136    35    34    2
   137    55    53    1
   138    33    34    1
   139    33    36    1
   140    43    42    2
   141    34    37   am
   142    53    52    2
   143    53    54    1
   144    52    51    1
   145    42    41    1
   146    37    38    1
   147    51    50    1
   148    50    49    1
   149    49    46    1
   150    38    41    1
   151    38    39    1
   152    48    47    2
   153    46    47    1
   154    46    45    1
   155    39    40    2
