@<TRIPOS>MOLECULE
tmp/3gm1D01.pdb
 122 112 0 0 0
SMALL
GASTEIGER

@<TRIPOS>ATOM
      1  N         14.6280  -10.6400   -8.7160 N.3    41  VAL41      -0.1245
      2  CA        13.8980  -10.0980   -7.5600 C.3    41  VAL41       0.1561
      3  C         13.9250  -11.0650   -6.3840 C.2    41  VAL41       0.2260
      4  O         13.9820  -10.6340   -5.2340 O.2    41  VAL41      -0.2867
      5  CB        12.4120   -9.8580   -7.8620 C.3    41  VAL41       0.0252
      6  CG1       11.8750   -8.7040   -7.0020 C.3    41  VAL41       0.0019
      7  CG2       12.1990   -9.5830   -9.3300 C.3    41  VAL41       0.0019
      8  N         17.5750  -11.5700   -4.7630 N.3    44  VAL44      -0.1231
      9  CA        17.8660  -10.3320   -4.0600 C.3    44  VAL44       0.1692
     10  C         16.9540  -10.1640   -2.8520 C.2    44  VAL44       0.2591
     11  O         17.4230   -9.7450   -1.7960 O.2    44  VAL44      -0.2718
     12  CB        17.8680   -9.0900   -4.9820 C.3    44  VAL44       0.0266
     13  CG1       18.0310   -7.8270   -4.1730 C.3    44  VAL44       0.0020
     14  CG2       19.0030   -9.1900   -5.9840 C.3    44  VAL44       0.0020
     15  N         15.6810  -10.5350   -2.9790 N.am   45  LYS45      -0.1980
     16  CA        14.7870  -10.4770   -1.8260 C.3    45  LYS45       0.1596
     17  C         15.3300  -11.3320   -0.6780 C.2    45  LYS45       0.2287
     18  O         15.2740  -10.9190    0.5000 O.2    45  LYS45      -0.2864
     19  CB        13.3580  -10.8930   -2.1720 C.3    45  LYS45       0.0298
     20  CG        12.3300  -10.3570   -1.1620 C.3    45  LYS45       0.0038
     21  CD        10.9300  -10.9240   -1.3340 C.3    45  LYS45       0.0206
     22  CE        10.3350  -10.5570   -2.6790 C.3    45  LYS45       0.1093
     23  NZ         8.8390  -10.5430   -2.6130 N.3    45  LYS45      -0.1314
     24  N         17.9630   -9.5350    1.0370 N.3    48  GLY48      -0.1210
     25  CA        17.4170   -8.3620    1.6960 C.3    48  GLY48       0.1956
     26  C         16.7650   -8.6590    3.0170 C.2    48  GLY48       0.2611
     27  O         16.9770   -7.9400    3.9770 O.2    48  GLY48      -0.2717
     28  N         15.9770   -9.7280    3.0580 N.am   49  LEU49      -0.1979
     29  CA        15.2500  -10.1080    4.2660 C.3    49  LEU49       0.1596
     30  C         16.1920  -10.6070    5.3470 C.2    49  LEU49       0.2287
     31  O         16.1110  -10.2040    6.5190 O.2    49  LEU49      -0.2864
     32  CB        14.2360  -11.1960    3.9500 C.3    49  LEU49       0.0297
     33  CG        13.0700  -10.7910    3.0480 C.3    49  LEU49       0.0022
     34  CD1       12.3420  -12.0530    2.6090 C.3    49  LEU49       0.0001
     35  CD2       12.1070   -9.7960    3.7110 C.3    49  LEU49       0.0001
     36  N         19.2850   -9.8420    5.6430 N.3    51  LEU51      -0.1231
     37  CA        19.9840   -8.6840    6.1800 C.3    51  LEU51       0.1693
     38  C         19.1510   -7.9540    7.2190 C.2    51  LEU51       0.2591
     39  O         19.6640   -7.6150    8.2790 O.2    51  LEU51      -0.2718
     40  CB        20.3920   -7.7060    5.0790 C.3    51  LEU51       0.0284
     41  CG        21.0480   -6.3800    5.5330 C.3    51  LEU51       0.0019
     42  CD1       22.3010   -6.5970    6.4070 C.3    51  LEU51       0.0001
     43  CD2       21.3690   -5.4460    4.3460 C.3    51  LEU51       0.0001
     44  N         17.8800   -7.6960    6.9090 N.am   52  ARG52      -0.1980
     45  CA        16.9620   -7.1140    7.8840 C.3    52  ARG52       0.1597
     46  C         16.9450   -7.9320    9.1750 C.2    52  ARG52       0.2287
     47  O         17.1290   -7.3810   10.2620 O.2    52  ARG52      -0.2864
     48  CB        15.5440   -6.9560    7.3180 C.3    52  ARG52       0.0334
     49  CG        14.5240   -6.3820    8.3270 C.3    52  ARG52       0.0492
     50  CD        13.3980   -5.5450    7.6670 C.3    52  ARG52       0.2205
     51  NE        12.3130   -6.2830    6.9870 N.pl3  52  ARG52      -0.0865
     52  CZ        11.9790   -7.5700    7.1640 C.cat  52  ARG52       0.5346
     53  NH1       12.6310   -8.3580    8.0220 N.pl3  52  ARG52       0.1354
     54  NH2       10.9680   -8.0800    6.4660 N.pl3  52  ARG52       0.1354
     55  N         20.3280   -7.0660   11.0040 N.3    55  ILE55      -0.1231
     56  CA        20.3020   -5.7000   11.5110 C.3    55  ILE55       0.1692
     57  C         19.4530   -5.5880   12.7610 C.2    55  ILE55       0.2592
     58  O         19.8490   -4.9190   13.7090 O.2    55  ILE55      -0.2718
     59  CB        19.7740   -4.7030   10.4460 C.3    55  ILE55       0.0266
     60  CG1       20.8050   -4.5150    9.3390 C.3    55  ILE55       0.0019
     61  CG2       19.3920   -3.3330   11.0650 C.3    55  ILE55       0.0020
     62  CD1       22.2280   -4.3790    9.8460 C.3    55  ILE55       0.0001
     63  N         18.2960   -6.2450   12.7590 N.am   56  GLY56      -0.1957
     64  CA        17.4000   -6.2400   13.9070 C.3    56  GLY56       0.1869
     65  C         17.9820   -6.9510   15.1130 C.2    56  GLY56       0.2309
     66  O         17.9790   -6.4050   16.2130 O.2    56  GLY56      -0.2863
     67  N         20.6410   -4.9660   16.6910 N.3    59  ASP59      -0.1239
     68  CA        20.0370   -3.8690   17.4670 C.3    59  ASP59       0.1674
     69  C         19.6490   -4.2440   18.9100 C.2    59  ASP59       0.2266
     70  O         19.7960   -3.4250   19.8230 O.2    59  ASP59      -0.2867
     71  CB        18.8150   -3.2920   16.7370 C.3    59  ASP59       0.1410
     72  CG        19.1750   -2.5590   15.4420 C.2    59  ASP59       0.3668
     73  OD1       18.3200   -2.5470   14.5230 O.co2  59  ASP59      -0.2456
     74  OD2       20.2890   -1.9890   15.3370 O.co2  59  ASP59      -0.2456
     75  N         23.4200   -1.0370    4.4690 N.3    81  ASN81      -0.1240
     76  CA        22.2440   -0.5550    3.7640 C.3    81  ASN81       0.1653
     77  C         22.6230    0.0680    2.4500 C.2    81  ASN81       0.2266
     78  O         21.9560   -0.1210    1.4390 O.2    81  ASN81      -0.2867
     79  CB        21.5060    0.4610    4.6070 C.3    81  ASN81       0.1155
     80  CG        20.6600   -0.1830    5.6780 C.2    81  ASN81       0.2627
     81  OD1       19.5730    0.3090    5.9920 O.2    81  ASN81      -0.2716
     82  ND2       21.1430   -1.2890    6.2490 N.am   81  ASN81      -0.0877
     83  N         23.0820   -2.8000    0.0180 N.3    84  LEU84      -0.1231
     84  CA        21.8340   -3.3650   -0.4830 C.3    84  LEU84       0.1693
     85  C         21.1570   -2.4200   -1.4650 C.2    84  LEU84       0.2591
     86  O         20.7100   -2.8450   -2.5340 O.2    84  LEU84      -0.2718
     87  CB        20.8890   -3.6860    0.6710 C.3    84  LEU84       0.0284
     88  CG        19.5790   -4.4090    0.3540 C.3    84  LEU84       0.0019
     89  CD1       19.7880   -5.6610   -0.4930 C.3    84  LEU84       0.0001
     90  CD2       18.8800   -4.7500    1.6480 C.3    84  LEU84       0.0001
     91  N         21.0840   -1.1430   -1.0960 N.am   85  ALA85      -0.1980
     92  CA        20.5720   -0.1210   -1.9800 C.3    85  ALA85       0.1597
     93  C         21.2010   -0.2680   -3.3600 C.2    85  ALA85       0.2287
     94  O         20.4900   -0.2700   -4.3600 O.2    85  ALA85      -0.2864
     95  CB        20.8480    1.2270   -1.4130 C.3    85  ALA85       0.0319
     96  N         20.0930   -3.5320   -5.0780 N.3    88  ILE88      -0.1245
     97  CA        18.7360   -3.3820   -5.6140 C.3    88  ILE88       0.1561
     98  C         18.7370   -2.6130   -6.9220 C.2    88  ILE88       0.2260
     99  O         18.1300   -3.0480   -7.9010 O.2    88  ILE88      -0.2867
    100  CB        17.7890   -2.6410   -4.6440 C.3    88  ILE88       0.0252
    101  CG1       17.6470   -3.3740   -3.3010 C.3    88  ILE88       0.0019
    102  CG2       16.4270   -2.4290   -5.2810 C.3    88  ILE88       0.0019
    103  CD1       17.2240   -4.8280   -3.3990 C.3    88  ILE88       0.0001
    104  N         20.3530   -4.4520   -9.6800 N.3    91  MET91      -0.1230
    105  CA        19.4370   -5.5010  -10.1170 C.3    91  MET91       0.1702
    106  C         18.3540   -4.9310  -11.0390 C.2    91  MET91       0.2592
    107  O         18.1870   -5.3740  -12.1750 O.2    91  MET91      -0.2718
    108  CB        18.8420   -6.2000   -8.8950 C.3    91  MET91       0.0401
    109  CG        17.8080   -7.2770   -9.1670 C.3    91  MET91       0.0596
    110  SD        16.1020   -6.8060   -8.7680 S.3    91  MET91      -0.1393
    111  CE        16.1800   -6.2340   -7.0720 C.3    91  MET91       0.0692
    112  N         17.6390   -3.9360  -10.5310 N.am   92  ARG92      -0.1980
    113  CA        16.6930   -3.1310  -11.2920 C.3    92  ARG92       0.1597
    114  C         17.2160   -2.7880  -12.7050 C.2    92  ARG92       0.2287
    115  O         16.4930   -2.8740  -13.6900 O.2    92  ARG92      -0.2864
    116  CB        16.4490   -1.8490  -10.5010 C.3    92  ARG92       0.0334
    117  CG        15.0100   -1.4880  -10.2280 C.3    92  ARG92       0.0492
    118  CD        14.4940   -2.0910   -8.9360 C.3    92  ARG92       0.2205
    119  NE        13.6300   -3.2480   -9.1910 N.pl3  92  ARG92      -0.0865
    120  CZ        12.7380   -3.7420   -8.3280 C.cat  92  ARG92       0.5346
    121  NH1       12.5660   -3.1880   -7.1240 N.pl3  92  ARG92       0.1354
    122  NH2       12.0090   -4.7970   -8.6770 N.pl3  92  ARG92       0.1354
@<TRIPOS>BOND
     1   115   114    2
     2   114   113    1
     3   107   106    2
     4   113   112    1
     5   113   116    1
     6   106   112   am
     7   106   105    1
     8   116   117    1
     9   117   118    1
    10   105   104    1
    11   105   108    1
    12     7     5    1
    13   119   118    1
    14   119   120    2
    15   109   108    1
    16   109   110    1
    17   110   111    1
    18     1     2    1
    19   122   120    1
    20   120   121    1
    21    99    98    2
    22     5     2    1
    23     5     6    1
    24     2     3    1
    25    98    97    1
    26     3     4    2
    27    14    12    1
    28    97    96    1
    29    97   100    1
    30   102   100    1
    31    12    13    1
    32    12     9    1
    33     8     9    1
    34   100   101    1
    35    94    93    2
    36     9    10    1
    37   103   101    1
    38    93    92    1
    39    15    10   am
    40    15    16    1
    41    10    11    2
    42    22    23    1
    43    22    21    1
    44    86    85    2
    45    19    16    1
    46    19    20    1
    47    92    95    1
    48    92    91    1
    49    16    17    1
    50    85    91   am
    51    85    84    1
    52    21    20    1
    53    17    18    2
    54    89    88    1
    55    84    83    1
    56    84    87    1
    57    88    87    1
    58    88    90    1
    59    24    25    1
    60    78    77    2
    61    25    26    1
    62    77    76    1
    63    34    33    1
    64    26    28   am
    65    26    27    2
    66    33    35    1
    67    33    32    1
    68    28    29    1
    69    76    75    1
    70    76    79    1
    71    32    29    1
    72    29    30    1
    73    43    41    1
    74    79    80    1
    75    40    41    1
    76    40    37    1
    77    30    31    2
    78    41    42    1
    79    36    37    1
    80    80    81    2
    81    80    82   am
    82    37    38    1
    83    54    52    1
    84    44    38   am
    85    44    45    1
    86    51    52    2
    87    51    50    1
    88    52    53    1
    89    38    39    2
    90    48    45    1
    91    48    49    1
    92    50    49    1
    93    45    46    1
    94    46    47    2
    95    60    62    1
    96    60    59    1
    97    59    61    1
    98    59    56    1
    99    55    56    1
   100    56    57    1
   101    63    57   am
   102    63    64    1
   103    57    58    2
   104    64    65    1
   105    73    72   ar
   106    65    66    2
   107    74    72   ar
   108    72    71    1
   109    67    68    1
   110    71    68    1
   111    68    69    1
   112    69    70    2
