@<TRIPOS>MOLECULE
tmp/3gm5A00.pdb
 131 124 0 0 0
SMALL
GASTEIGER

@<TRIPOS>ATOM
      1  N         14.3960   20.7950   49.5870 N.3    14  GLN14      -0.1245
      2  CA        15.1770   21.2980   48.4690 C.3    14  GLN14       0.1566
      3  C         16.3590   22.1250   48.9370 C.2    14  GLN14       0.2260
      4  O         16.2520   22.9250   49.8690 O.2    14  GLN14      -0.2867
      5  CB        14.2870   22.1460   47.5530 C.3    14  GLN14       0.0367
      6  CG        15.0340   22.8840   46.4380 C.3    14  GLN14       0.0905
      7  CD        14.1710   23.9510   45.7860 C.2    14  GLN14       0.2608
      8  OE1       13.2990   23.6570   44.9630 O.2    14  GLN14      -0.2717
      9  NE2       14.3950   25.1950   46.1700 N.am   14  GLN14      -0.0878
     10  N         13.8070   31.0830   34.5240 N.3    43  THR43      -0.1218
     11  CA        12.6410   31.3650   35.3580 C.3    43  THR43       0.1862
     12  C         11.8250   32.4260   34.6150 C.2    43  THR43       0.2287
     13  O         12.3360   33.0720   33.6950 O.2    43  THR43      -0.2866
     14  CB        13.0300   31.8870   36.7730 C.3    43  THR43       0.1770
     15  OG1       13.7930   33.0970   36.6680 O.3    43  THR43      -0.2211
     16  CG2       13.8480   30.8380   37.5160 C.3    43  THR43       0.0375
     17  N          6.4970   36.5560   37.2470 N.3    49  ALA49      -0.1245
     18  CA         7.1720   36.3630   38.5300 C.3    49  ALA49       0.1562
     19  C          6.8480   37.3980   39.6090 C.2    49  ALA49       0.2260
     20  O          6.7570   37.0490   40.7900 O.2    49  ALA49      -0.2867
     21  CB         8.6850   36.2950   38.3100 C.3    49  ALA49       0.0290
     22  N         17.6230   27.5080   35.8950 N.3    64  LEU64      -0.1245
     23  CA        17.4650   26.4920   36.9360 C.3    64  LEU64       0.1561
     24  C         17.5390   25.0780   36.3840 C.2    64  LEU64       0.2260
     25  O         17.1470   24.8290   35.2520 O.2    64  LEU64      -0.2867
     26  CB        16.1140   26.6360   37.6440 C.3    64  LEU64       0.0270
     27  CG        15.7360   27.9470   38.3340 C.3    64  LEU64       0.0019
     28  CD1       14.3220   27.8080   38.9110 C.3    64  LEU64       0.0001
     29  CD2       16.7290   28.2650   39.4200 C.3    64  LEU64       0.0001
     30  N         17.1010   20.8870   38.0750 N.3    66  PHE66      -0.1241
     31  CA        16.7800   20.0790   39.2520 C.3    66  PHE66       0.1605
     32  C         17.2560   18.6330   39.1980 C.2    66  PHE66       0.2264
     33  O         17.2990   18.0130   38.1360 O.2    66  PHE66      -0.2867
     34  CB        15.2680   20.0420   39.4740 C.3    66  PHE66       0.0534
     35  CG        14.6510   21.3810   39.7320 C.ar   66  PHE66      -0.0203
     36  CD1       14.7380   21.9720   40.9880 C.ar   66  PHE66      -0.0042
     37  CD2       13.9670   22.0450   38.7200 C.ar   66  PHE66      -0.0042
     38  CE1       14.1450   23.2080   41.2350 C.ar   66  PHE66      -0.0003
     39  CE2       13.3690   23.2810   38.9530 C.ar   66  PHE66      -0.0003
     40  CZ        13.4590   23.8650   40.2130 C.ar   66  PHE66      -0.0000
     41  N         18.6980   21.8910   43.6480 N.3    75  GLU75      -0.1245
     42  CA        18.4330   22.9100   42.6390 C.3    75  GLU75       0.1567
     43  C         19.6570   23.7720   42.3380 C.2    75  GLU75       0.2260
     44  O         20.2230   24.3900   43.2410 O.2    75  GLU75      -0.2867
     45  CB        17.3020   23.8250   43.1060 C.3    75  GLU75       0.0388
     46  CG        17.1480   25.0700   42.2300 C.3    75  GLU75       0.1160
     47  CD        16.3160   26.1510   42.8890 C.2    75  GLU75       0.3649
     48  OE1       16.4820   26.3740   44.1090 O.co2  75  GLU75      -0.2457
     49  OE2       15.5100   26.7850   42.1850 O.co2  75  GLU75      -0.2457
     50  N         21.2460   27.0520   40.5360 N.3    77  ILE77      -0.1245
     51  CA        20.7700   28.3920   40.1860 C.3    77  ILE77       0.1561
     52  C         21.8450   29.2970   39.5790 C.2    77  ILE77       0.2260
     53  O         22.8480   29.5920   40.2260 O.2    77  ILE77      -0.2867
     54  CB        20.2190   29.0990   41.4530 C.3    77  ILE77       0.0252
     55  CG1       19.2230   28.1770   42.1610 C.3    77  ILE77       0.0019
     56  CG2       19.5480   30.4320   41.0870 C.3    77  ILE77       0.0019
     57  CD1       18.8820   28.6160   43.5790 C.3    77  ILE77       0.0001
     58  N         19.8850   35.7050   44.8850 N.3    86  TRP86      -0.1241
     59  CA        20.8740   34.8420   44.2340 C.3    86  TRP86       0.1605
     60  C         22.1160   35.5850   43.7450 C.2    86  TRP86       0.2264
     61  O         23.2390   35.1460   43.9980 O.2    86  TRP86      -0.2867
     62  CB        20.2480   34.1100   43.0490 C.3    86  TRP86       0.0550
     63  CG        18.9260   33.4830   43.3650 C.ar   86  TRP86       0.0003
     64  CD1       18.6690   32.5310   44.3150 C.ar   86  TRP86       0.0946
     65  CD2       17.6700   33.7930   42.7550 C.ar   86  TRP86       0.0152
     66  NE1       17.3260   32.2330   44.3330 N.ar   86  TRP86      -0.2442
     67  CE2       16.6890   32.9920   43.3870 C.ar   86  TRP86       0.0810
     68  CE3       17.2750   34.6710   41.7350 C.ar   86  TRP86       0.0012
     69  CZ2       15.3400   33.0430   43.0310 C.ar   86  TRP86       0.0191
     70  CZ3       15.9290   34.7220   41.3810 C.ar   86  TRP86       0.0001
     71  CH2       14.9780   33.9110   42.0300 C.ar   86  TRP86       0.0015
     72  N          6.3670   34.7250   42.2360 N.3   126  ASP126     -0.1225
     73  CA         5.5850   33.6020   41.7750 C.3   126  ASP126      0.1805
     74  C          6.3740   32.8490   40.7290 C.2   126  ASP126      0.2597
     75  O          7.3380   33.3590   40.1660 O.2   126  ASP126     -0.2718
     76  CB         4.2740   34.0780   41.1430 C.3   126  ASP126      0.1424
     77  CG         3.4470   34.9260   42.0810 C.2   126  ASP126      0.3668
     78  OD1        3.2440   34.5080   43.2370 O.co2 126  ASP126     -0.2456
     79  OD2        2.9900   36.0060   41.6570 O.co2 126  ASP126     -0.2456
     80  N          5.9600   31.6170   40.4950 N.am  127  PHE127     -0.1976
     81  CA         6.5570   30.7840   39.4750 C.3   127  PHE127      0.1639
     82  C          5.3870   29.9570   38.9910 C.2   127  PHE127      0.2290
     83  O          4.3350   29.9430   39.6280 O.2   127  PHE127     -0.2864
     84  CB         7.7030   29.9170   40.0280 C.3   127  PHE127      0.0560
     85  CG         7.3190   29.0140   41.1750 C.ar  127  PHE127     -0.0200
     86  CD1        6.6690   27.8020   40.9500 C.ar  127  PHE127     -0.0042
     87  CD2        7.6480   29.3600   42.4760 C.ar  127  PHE127     -0.0042
     88  CE1        6.3630   26.9470   42.0110 C.ar  127  PHE127     -0.0003
     89  CE2        7.3470   28.5140   43.5440 C.ar  127  PHE127     -0.0003
     90  CZ         6.7040   27.3080   43.3110 C.ar  127  PHE127     -0.0000
     91  N          6.8420   31.6450   46.2590 N.3   132  TYR132     -0.1241
     92  CA         7.8850   31.4300   47.2470 C.3   132  TYR132      0.1605
     93  C          8.1740   32.6730   48.0710 C.2   132  TYR132      0.2264
     94  O          7.7740   33.7810   47.7180 O.2   132  TYR132     -0.2867
     95  CB         9.1710   30.9980   46.5410 C.3   132  TYR132      0.0534
     96  CG         9.8400   32.1150   45.7610 C.ar  132  TYR132     -0.0201
     97  CD1       10.8470   32.8870   46.3360 C.ar  132  TYR132     -0.0009
     98  CD2        9.4630   32.4010   44.4460 C.ar  132  TYR132     -0.0009
     99  CE1       11.4700   33.9140   45.6230 C.ar  132  TYR132      0.0417
    100  CE2       10.0800   33.4290   43.7220 C.ar  132  TYR132      0.0417
    101  CZ        11.0810   34.1780   44.3170 C.ar  132  TYR132      0.1957
    102  OH        11.7050   35.1800   43.6050 O.3   132  TYR132     -0.2866
    103  N         11.5950   33.9890   50.6060 N.3   134  TYR134     -0.1241
    104  CA        12.8780   33.7810   51.2690 C.3   134  TYR134      0.1605
    105  C         12.8270   34.5200   52.6050 C.2   134  TYR134      0.2264
    106  O         12.4610   35.6930   52.6530 O.2   134  TYR134     -0.2867
    107  CB        14.0110   34.3330   50.4030 C.3   134  TYR134      0.0534
    108  CG        14.4320   33.4110   49.2730 C.ar  134  TYR134     -0.0201
    109  CD1       15.2380   32.3050   49.5220 C.ar  134  TYR134     -0.0009
    110  CD2       14.0260   33.6470   47.9580 C.ar  134  TYR134     -0.0009
    111  CE1       15.6370   31.4530   48.4960 C.ar  134  TYR134      0.0417
    112  CE2       14.4190   32.7950   46.9160 C.ar  134  TYR134      0.0417
    113  CZ        15.2270   31.7000   47.2000 C.ar  134  TYR134      0.1957
    114  OH        15.6310   30.8540   46.1970 O.3   134  TYR134     -0.2866
    115  N         13.7610   29.0570   52.8060 N.3   146  GLU146     -0.1245
    116  CA        12.7740   29.5060   51.8400 C.3   146  GLU146      0.1567
    117  C         11.5050   28.6980   52.0250 C.2   146  GLU146      0.2260
    118  O         11.5550   27.5090   52.3430 O.2   146  GLU146     -0.2867
    119  CB        13.3000   29.3250   50.4120 C.3   146  GLU146      0.0388
    120  CG        12.3030   29.7260   49.3260 C.3   146  GLU146      0.1160
    121  CD        12.8260   29.4690   47.9220 C.2   146  GLU146      0.3649
    122  OE1       13.7610   28.6560   47.7750 O.co2 146  GLU146     -0.2457
    123  OE2       12.2850   30.0660   46.9650 O.co2 146  GLU146     -0.2457
    124  N          7.9690   27.4280   50.2260 N.3   148  LEU148     -0.1245
    125  CA         7.3990   27.2060   48.9090 C.3   148  LEU148      0.1561
    126  C          5.9430   26.8010   49.0470 C.2   148  LEU148      0.2260
    127  O          5.5790   26.0500   49.9520 O.2   148  LEU148     -0.2867
    128  CB         8.1410   26.0860   48.1840 C.3   148  LEU148      0.0270
    129  CG         9.6360   26.2250   47.8980 C.3   148  LEU148      0.0019
    130  CD1       10.1080   24.9420   47.2280 C.3   148  LEU148      0.0001
    131  CD2        9.9000   27.4300   47.0050 C.3   148  LEU148      0.0001
@<TRIPOS>BOND
     1    13    12    2
     2    10    11    1
     3    12    11    1
     4    25    24    2
     5    11    14    1
     6    22    23    1
     7    24    23    1
     8    15    14    1
     9    14    16    1
    10    23    26    1
    11    17    18    1
    12    26    27    1
    13    30    31    1
    14    33    32    2
    15    21    18    1
    16    27    28    1
    17    27    29    1
    18    18    19    1
    19    37    39   ar
    20    37    35   ar
    21    39    40   ar
    22    82    81    1
    23    82    83    2
    24    32    31    1
    25    31    34    1
    26    34    35    1
    27    81    84    1
    28    81    80    1
    29    52    51    1
    30    52    53    2
    31    19    20    2
    32    35    36   ar
    33    84    85    1
    34    75    74    2
    35    51    50    1
    36    51    54    1
    37    40    38   ar
    38    80    74   am
    39    74    73    1
    40    86    85   ar
    41    86    88   ar
    42    36    38   ar
    43    56    54    1
    44    76    73    1
    45    76    77    1
    46    85    87   ar
    47    70    68   ar
    48    70    71   ar
    49    54    55    1
    50    79    77   ar
    51    68    65   ar
    52    73    72    1
    53    88    90   ar
    54    71    69   ar
    55    77    78   ar
    56    55    57    1
    57    49    47   ar
    58    46    47    1
    59    46    45    1
    60    43    42    1
    61    43    44    2
    62    87    89   ar
    63    42    45    1
    64    42    41    1
    65    65    63   ar
    66    65    67   ar
    67    47    48   ar
    68    69    67   ar
    69    62    63    1
    70    62    59    1
    71    90    89   ar
    72    63    64   ar
    73    67    66   ar
    74   102   101    1
    75   100   101   ar
    76   100    98   ar
    77    60    61    2
    78    60    59    1
    79    59    58    1
    80    64    66   ar
    81   101    99   ar
    82    98    96   ar
    83     8     7    2
    84    99    97   ar
    85    96    97   ar
    86    96    95    1
    87     7     9   am
    88     7     6    1
    89   114   113    1
    90    91    92    1
    91     6     5    1
    92    95    92    1
    93   112   113   ar
    94   112   110   ar
    95   123   121   ar
    96   131   129    1
    97   113   111   ar
    98   130   129    1
    99    92    93    1
   100     5     2    1
   101    94    93    2
   102   122   121   ar
   103   129   128    1
   104   121   120    1
   105   110   108   ar
   106   128   125    1
   107     2     3    1
   108     2     1    1
   109   111   109   ar
   110   125   126    1
   111   125   124    1
   112     3     4    2
   113   126   127    2
   114   108   109   ar
   115   108   107    1
   116   120   119    1
   117   107   104    1
   118   119   116    1
   119   103   104    1
   120   104   105    1
   121   116   117    1
   122   116   115    1
   123   117   118    2
   124   105   106    2
