@<TRIPOS>MOLECULE
tmp/3gm6B04.pdb
 220 211 0 0 0
SMALL
GASTEIGER

@<TRIPOS>ATOM
      1  N         14.8510   58.5890  129.9630 N.3    77  ARG77      -0.1245
      2  CA        16.0540   59.1950  129.4050 C.3    77  ARG77       0.1563
      3  C         15.9840   60.6900  129.6950 C.2    77  ARG77       0.2260
      4  O         15.3300   61.4440  128.9460 O.2    77  ARG77      -0.2867
      5  CB        16.1290   58.9520  127.8960 C.3    77  ARG77       0.0307
      6  CG        17.4250   59.4670  127.2760 C.3    77  ARG77       0.0489
      7  CD        17.6300   59.1520  125.7660 C.3    77  ARG77       0.2205
      8  NE        18.9730   59.5360  125.3440 N.pl3  77  ARG77      -0.0865
      9  CZ        19.2840   60.6730  124.7500 C.cat  77  ARG77       0.5346
     10  NH1       18.3550   61.5830  124.4490 N.pl3  77  ARG77       0.1354
     11  NH2       20.5610   60.9070  124.4560 N.pl3  77  ARG77       0.1354
     12  N         16.5970   63.3790  126.9550 N.3    80  SER80      -0.1217
     13  CA        15.5460   63.6460  125.9700 C.3    80  SER80       0.1889
     14  C         14.7020   64.7890  126.5140 C.2    80  SER80       0.2288
     15  O         13.7730   64.5950  127.3200 O.2    80  SER80      -0.2866
     16  CB        14.7070   62.3770  125.6720 C.3    80  SER80       0.2089
     17  OG        15.4010   61.4410  124.8260 O.3    80  SER80      -0.2183
     18  N          8.8290   68.1460  120.8440 N.3   111  GLU111     -0.1231
     19  CA         9.6560   66.9810  120.4890 C.3   111  GLU111      0.1684
     20  C          9.2360   65.7720  121.3240 C.2   111  GLU111      0.2434
     21  O          8.7100   65.9470  122.4390 O.2   111  GLU111     -0.2733
     22  CB        11.1640   67.2850  120.7610 C.3   111  GLU111      0.0402
     23  CG        11.7690   68.4530  119.8950 C.3   111  GLU111      0.1161
     24  CD        13.3110   68.4340  119.7620 C.2   111  GLU111      0.3649
     25  OE1       13.9540   67.4500  120.1530 O.co2 111  GLU111     -0.2457
     26  OE2       13.8730   69.4350  119.2890 O.co2 111  GLU111     -0.2457
     27  N          9.4740   64.5540  120.8170 N.am  112  PRO112     -0.2718
     28  CA         9.0710   63.4080  121.6330 C.3   112  PRO112      0.1535
     29  C          9.9830   63.2280  122.8210 C.2   112  PRO112      0.2598
     30  O         11.1420   63.6920  122.7710 O.2   112  PRO112     -0.2715
     31  CB         9.2200   62.2410  120.6690 C.3   112  PRO112      0.0310
     32  CG        10.3820   62.6420  119.7680 C.3   112  PRO112      0.0237
     33  CD        10.1150   64.1250  119.5450 C.3   112  PRO112      0.0939
     34  N          9.5100   62.5130  123.8390 N.am  113  ARG113     -0.1964
     35  CA        10.3650   62.0470  124.9630 C.3   113  ARG113      0.1729
     36  C         10.0960   60.5450  125.2550 C.2   113  ARG113      0.2617
     37  O          9.3990   59.8710  124.4700 O.2   113  ARG113     -0.2715
     38  CB        10.1880   62.9320  126.2170 C.3   113  ARG113      0.0348
     39  CG         8.7820   62.9590  126.8260 C.3   113  ARG113      0.0492
     40  CD         8.8040   63.6020  128.2410 C.3   113  ARG113      0.2205
     41  NE         7.4870   63.6930  128.8710 N.pl3 113  ARG113     -0.0865
     42  CZ         7.3180   63.8710  130.1800 C.cat 113  ARG113      0.5346
     43  NH1        8.3860   63.9750  130.9860 N.pl3 113  ARG113      0.1354
     44  NH2        6.0990   63.9830  130.6820 N.pl3 113  ARG113      0.1354
     45  N         10.5680   60.0310  126.3970 N.am  114  SER114     -0.1936
     46  CA        10.5980   58.5650  126.5970 C.3   114  SER114      0.2055
     47  C          9.1970   57.9360  126.5460 C.2   114  SER114      0.2643
     48  O          8.2100   58.5740  126.9660 O.2   114  SER114     -0.2714
     49  CB        11.2990   58.2310  127.9350 C.3   114  SER114      0.2130
     50  OG        12.6730   58.6960  127.9770 O.3   114  SER114     -0.2179
     51  N          9.1170   56.6650  126.1060 N.am  115  HIS115     -0.1973
     52  CA         7.8570   55.9500  125.9130 C.3   115  HIS115      0.1656
     53  C          6.9520   55.9070  127.1590 C.2   115  HIS115      0.2291
     54  O          5.7230   55.9050  127.0300 O.2   115  HIS115     -0.2864
     55  CB         8.1140   54.4920  125.4120 C.3   115  HIS115      0.0771
     56  CG         8.3190   54.3420  123.9210 C.ar  115  HIS115      0.0820
     57  ND1        8.9560   53.2380  123.3890 N.ar  115  HIS115     -0.2267
     58  CD2        7.9130   55.0950  122.8450 C.ar  115  HIS115      0.1154
     59  CE1        8.9210   53.3170  122.0520 C.ar  115  HIS115      0.1986
     60  NE2        8.3230   54.4540  121.6930 N.ar  115  HIS115     -0.2212
     61  N          5.9290   58.0550  129.0290 N.3   117  PHE117     -0.1227
     62  CA         5.0570   59.2240  129.1370 C.3   117  PHE117      0.1736
     63  C          4.0110   59.3880  128.0030 C.2   117  PHE117      0.2595
     64  O          3.3760   60.4400  127.9000 O.2   117  PHE117     -0.2718
     65  CB         5.9160   60.5160  129.1970 C.3   117  PHE117      0.0547
     66  CG         6.8510   60.5970  130.4140 C.ar  117  PHE117     -0.0202
     67  CD1        6.3410   60.7760  131.6690 C.ar  117  PHE117     -0.0042
     68  CD2        8.2330   60.5440  130.2560 C.ar  117  PHE117     -0.0042
     69  CE1        7.1800   60.8320  132.8010 C.ar  117  PHE117     -0.0003
     70  CE2        9.1080   60.6270  131.3770 C.ar  117  PHE117     -0.0003
     71  CZ         8.5740   60.7550  132.6520 C.ar  117  PHE117     -0.0000
     72  N          3.8810   58.4150  127.1050 N.am  118  MET118     -0.1979
     73  CA         3.1170   58.6960  125.8540 C.3   118  MET118      0.1605
     74  C          1.6470   59.0420  126.1150 C.2   118  MET118      0.2287
     75  O          1.1240   59.9920  125.4820 O.2   118  MET118     -0.2864
     76  CB         3.2570   57.5840  124.8060 C.3   118  MET118      0.0413
     77  CG         2.7730   56.2110  125.2140 C.3   118  MET118      0.0598
     78  SD         2.7840   55.0460  123.8350 S.3   118  MET118     -0.1393
     79  CE         4.5720   54.9960  123.5480 C.3   118  MET118      0.0692
     80  N          1.3810   62.4840  128.0980 N.3   121  ASP121     -0.1239
     81  CA         1.7490   63.6120  127.2150 C.3   121  ASP121      0.1674
     82  C          0.6340   63.9330  126.1790 C.2   121  ASP121      0.2266
     83  O          0.3250   65.1110  125.9250 O.2   121  ASP121     -0.2867
     84  CB         3.0810   63.3820  126.5290 C.3   121  ASP121      0.1410
     85  CG         4.2820   63.5070  127.4870 C.2   121  ASP121      0.3668
     86  OD1        4.0920   63.9160  128.6580 O.co2 121  ASP121     -0.2456
     87  OD2        5.4080   63.1630  127.0520 O.co2 121  ASP121     -0.2456
     88  N         -2.6280   54.6590  119.2860 N.3   183  CYS183     -0.1221
     89  CA        -1.1660   54.7460  119.2100 C.3   183  CYS183      0.1808
     90  C         -0.5500   55.2280  120.5450 C.2   183  CYS183      0.2601
     91  O          0.6110   55.6520  120.5680 O.2   183  CYS183     -0.2717
     92  CB        -0.7710   55.6900  118.0810 C.3   183  CYS183      0.0970
     93  SG        -0.9610   55.0420  116.3850 S.3   183  CYS183     -0.0800
     94  N         -1.3490   55.2310  121.6090 N.am  184  LYS184     -0.1979
     95  CA        -0.8910   55.5930  122.9720 C.3   184  LYS184      0.1596
     96  C         -1.0770   54.4550  124.0120 C.2   184  LYS184      0.2287
     97  O         -0.3200   54.3670  124.9930 O.2   184  LYS184     -0.2864
     98  CB        -1.6290   56.8640  123.4220 C.3   184  LYS184      0.0298
     99  CG        -1.5200   58.0380  122.4320 C.3   184  LYS184      0.0038
    100  CD        -0.0940   58.5660  122.2870 C.3   184  LYS184      0.0206
    101  CE         0.0180   59.8060  121.2440 C.3   184  LYS184      0.1093
    102  NZ         0.4850   59.6730  119.8280 N.3   184  LYS184     -0.1314
    103  N          1.7270   51.9880  126.0100 N.3   221  LEU221     -0.1245
    104  CA         2.4580   50.9660  125.2510 C.3   221  LEU221      0.1561
    105  C          2.4400   49.5920  125.9320 C.2   221  LEU221      0.2260
    106  O          3.4780   49.0580  126.2960 O.2   221  LEU221     -0.2867
    107  CB         3.9090   51.4340  124.9450 C.3   221  LEU221      0.0270
    108  CG         4.8720   50.6180  124.0660 C.3   221  LEU221      0.0019
    109  CD1        4.2130   50.0730  122.8480 C.3   221  LEU221      0.0001
    110  CD2        6.0990   51.4890  123.6300 C.3   221  LEU221      0.0001
    111  N          1.2430   44.6960  122.9370 N.3   225  MET225     -0.1230
    112  CA         1.1500   45.2610  121.5940 C.3   225  MET225      0.1702
    113  C          2.0600   44.5630  120.5790 C.2   225  MET225      0.2592
    114  O          1.7380   44.5700  119.3850 O.2   225  MET225     -0.2718
    115  CB         1.3930   46.7870  121.5970 C.3   225  MET225      0.0401
    116  CG         0.3250   47.5760  122.2940 C.3   225  MET225      0.0596
    117  SD         0.3240   49.3640  121.9780 S.3   225  MET225     -0.1393
    118  CE        -0.0870   49.4190  120.2360 C.3   225  MET225      0.0692
    119  N          3.1860   43.9610  121.0160 N.am  226  CYS226     -0.1970
    120  CA         4.0990   43.2870  120.1080 C.3   226  CYS226      0.1712
    121  C          4.2550   41.7680  120.3840 C.2   226  CYS226      0.2296
    122  O          4.9420   41.0700  119.6330 O.2   226  CYS226     -0.2864
    123  CB         5.4950   43.9150  120.2270 C.3   226  CYS226      0.0983
    124  SG         5.5280   45.7040  119.9390 S.3   226  CYS226     -0.0798
    125  N         10.9720   43.6970  114.0470 N.3   288  SER288     -0.1217
    126  CA        10.7240   45.0040  114.6790 C.3   288  SER288      0.1889
    127  C         10.2690   46.0960  113.7140 C.2   288  SER288      0.2288
    128  O          9.5860   47.0560  114.1410 O.2   288  SER288     -0.2866
    129  CB        11.9350   45.5060  115.5020 C.3   288  SER288      0.2089
    130  OG        13.0530   45.7180  114.6820 O.3   288  SER288     -0.2183
    131  N          6.5120   45.7730  113.8760 N.3   291  MET291     -0.1230
    132  CA         6.0630   46.0790  115.2480 C.3   291  MET291      0.1702
    133  C          6.0140   47.6060  115.5260 C.2   291  MET291      0.2592
    134  O          5.0250   48.1420  116.0450 O.2   291  MET291     -0.2718
    135  CB         6.9860   45.4240  116.2630 C.3   291  MET291      0.0401
    136  CG         6.9390   43.8530  116.3600 C.3   291  MET291      0.0596
    137  SD         8.2150   43.2910  117.4870 S.3   291  MET291     -0.1393
    138  CE         7.9160   41.5030  117.4230 C.3   291  MET291      0.0692
    139  N          7.1050   48.2820  115.1940 N.am  292  CYS292     -0.1970
    140  CA         7.2450   49.7340  115.4350 C.3   292  CYS292      0.1712
    141  C          6.3230   50.5690  114.5070 C.2   292  CYS292      0.2296
    142  O          5.8910   51.6740  114.8760 O.2   292  CYS292     -0.2864
    143  CB         8.7040   50.1910  115.3130 C.3   292  CYS292      0.0983
    144  SG         9.9490   49.3150  116.2590 S.3   292  CYS292     -0.0798
    145  N          3.2920   50.0150  113.9340 N.3   294  GLN294     -0.1231
    146  CA         1.9830   50.2400  114.5650 C.3   294  GLN294      0.1698
    147  C          1.7570   51.7150  114.9080 C.2   294  GLN294      0.2592
    148  O          0.5920   52.1680  114.9390 O.2   294  GLN294     -0.2718
    149  CB         1.7890   49.3980  115.8270 C.3   294  GLN294      0.0381
    150  CG         1.8250   47.8810  115.5350 C.3   294  GLN294      0.0905
    151  CD         1.5720   47.0490  116.7790 C.2   294  GLN294      0.2608
    152  OE1        0.4000   46.7860  117.1480 O.2   294  GLN294     -0.2717
    153  NE2        2.6560   46.6230  117.4280 N.am  294  GLN294     -0.0878
    154  N          2.8490   52.4560  115.1730 N.am  295  CYS295     -0.1956
    155  CA         2.7280   53.8700  115.5520 C.3   295  CYS295      0.1843
    156  C          3.5960   54.8610  114.7800 C.2   295  CYS295      0.2625
    157  O          3.1430   55.9990  114.5460 O.2   295  CYS295     -0.2714
    158  CB         3.0260   54.0110  117.0510 C.3   295  CYS295      0.0997
    159  SG         1.9190   53.0090  118.1210 S.3   295  CYS295     -0.0797
    160  N          4.8190   54.4660  114.4110 N.am  296  HIS296     -0.1973
    161  CA         5.7890   55.3760  113.7890 C.3   296  HIS296      0.1656
    162  C          5.5540   55.4410  112.2480 C.2   296  HIS296      0.2291
    163  O          6.4150   55.0620  111.4340 O.2   296  HIS296     -0.2864
    164  CB         7.2090   54.9750  114.2290 C.3   296  HIS296      0.0771
    165  CG         7.5260   55.3030  115.6770 C.ar  296  HIS296      0.0820
    166  ND1        8.1600   56.4710  116.0460 N.ar  296  HIS296     -0.2267
    167  CD2        7.3260   54.6160  116.8440 C.ar  296  HIS296      0.1154
    168  CE1        8.3170   56.4990  117.3700 C.ar  296  HIS296      0.1986
    169  NE2        7.8430   55.3780  117.8870 N.ar  296  HIS296     -0.2212
    170  N         14.5720   48.3350  112.9840 N.3   375  CYS375     -0.1235
    171  CA        14.5500   49.4040  114.0110 C.3   375  CYS375      0.1677
    172  C         15.2610   48.9340  115.2850 C.2   375  CYS375      0.2270
    173  O         16.0600   49.6860  115.8660 O.2   375  CYS375     -0.2867
    174  CB        13.1390   49.8720  114.4010 C.3   375  CYS375      0.0956
    175  SG        11.8480   50.0790  113.1210 S.3   375  CYS375     -0.0801
    176  N         17.9120   50.7700  118.0060 N.3   379  HIS379     -0.1226
    177  CA        17.1500   51.4600  119.0450 C.3   379  HIS379      0.1752
    178  C         16.7500   50.5640  120.2620 C.2   379  HIS379      0.2598
    179  O         16.2880   51.0890  121.2900 O.2   379  HIS379     -0.2717
    180  CB        15.9030   52.0830  118.4060 C.3   379  HIS379      0.0759
    181  CG        16.1600   53.2160  117.4450 C.ar  379  HIS379      0.0818
    182  ND1       16.6550   54.4380  117.8340 N.ar  379  HIS379     -0.2268
    183  CD2       15.8940   53.3400  116.1120 C.ar  379  HIS379      0.1154
    184  CE1       16.7130   55.2540  116.7750 C.ar  379  HIS379      0.1986
    185  NE2       16.2430   54.6220  115.7150 N.ar  379  HIS379     -0.2212
    186  N         16.8890   49.2430  120.1450 N.am  380  MET380     -0.1934
    187  CA        16.6630   48.3480  121.3110 C.3   380  MET380      0.1821
    188  C         17.4450   47.0280  121.1030 C.2   380  MET380      0.2332
    189  O         16.8720   45.9470  120.9110 O.2   380  MET380     -0.2860
    190  CB        15.1400   48.1510  121.5980 C.2   380  MET380      0.0096
    191  CG        14.2940   47.6630  120.4530 C.2   380  MET380      0.0285
    192  SD        12.5950   47.1250  120.9090 S.3   380  MET380     -0.1125
    193  CE        13.0040   45.6340  121.8430 C.3   380  MET380      0.0742
    194  N         13.7470   52.1060  124.3300 N.3   396  GLN396     -0.1231
    195  CA        13.7240   52.4520  122.8910 C.3   396  GLN396      0.1698
    196  C         14.1920   53.9070  122.8130 C.2   396  GLN396      0.2592
    197  O         13.4910   54.8470  123.2330 O.2   396  GLN396     -0.2718
    198  CB        12.3140   52.2630  122.3120 C.3   396  GLN396      0.0381
    199  CG        11.9000   50.7900  122.1420 C.3   396  GLN396      0.0905
    200  CD        11.0320   50.2220  123.2360 C.2   396  GLN396      0.2608
    201  OE1       10.4600   50.9350  124.0420 O.2   396  GLN396     -0.2717
    202  NE2       10.8970   48.8910  123.2370 N.am  396  GLN396     -0.0878
    203  N         15.4230   54.0990  122.3410 N.am  397  ARG397     -0.1966
    204  CA        16.0610   55.4100  122.4030 C.3   397  ARG397      0.1729
    205  C         17.1550   55.5520  121.3310 C.2   397  ARG397      0.2616
    206  O         17.4780   54.5770  120.5900 O.2   397  ARG397     -0.2715
    207  CB        16.6690   55.6350  123.8140 C.3   397  ARG397      0.0348
    208  CG        17.8580   54.7470  124.1530 C.3   397  ARG397      0.0492
    209  CD        18.6170   55.1540  125.4520 C.3   397  ARG397      0.2205
    210  NE        17.8550   54.8940  126.6610 N.pl3 397  ARG397     -0.0865
    211  CZ        18.1250   55.3820  127.8810 C.cat 397  ARG397      0.5346
    212  NH1       19.1000   56.2630  128.1020 N.pl3 397  ARG397      0.1354
    213  NH2       17.3430   55.0380  128.8890 N.pl3 397  ARG397      0.1354
    214  N         17.7340   56.7420  121.2600 N.am  398  THR398     -0.1951
    215  CA        18.7640   57.0310  120.2540 C.3   398  THR398      0.1897
    216  C         19.9760   56.1100  120.4430 C.2   398  THR398      0.2313
    217  O         20.3440   55.8390  121.5800 O.2   398  THR398     -0.2863
    218  CB        19.2510   58.5080  120.3360 C.3   398  THR398      0.1794
    219  OG1       20.4360   58.6400  119.5350 O.3   398  THR398     -0.2208
    220  CG2       19.5650   58.9060  121.8060 C.3   398  THR398      0.0378
@<TRIPOS>BOND
     1   163   162    2
     2   162   161    1
     3   170   171    1
     4   175   174    1
     5   127   128    2
     6   127   126    1
     7   161   164    1
     8   161   160    1
     9   131   132    1
    10   145   146    1
    11   171   174    1
    12   171   172    1
    13   125   126    1
    14   164   165    1
    15   160   156   am
    16   141   142    2
    17   141   140    1
    18   157   156    2
    19   146   147    1
    20   146   149    1
    21   126   129    1
    22   130   129    1
    23   156   155    1
    24   147   148    2
    25   147   154   am
    26   154   155    1
    27   139   140    1
    28   139   133   am
    29   132   133    1
    30   132   135    1
    31   172   173    2
    32   143   140    1
    33   143   144    1
    34   133   134    2
    35   150   149    1
    36   150   151    1
    37   155   158    1
    38   165   166   ar
    39   165   167   ar
    40   185   183   ar
    41   185   184   ar
    42   166   168   ar
    43   183   181   ar
    44   135   136    1
    45   136   137    1
    46    93    92    1
    47   184   182   ar
    48   151   152    2
    49   151   153   am
    50   167   169   ar
    51   158   159    1
    52   168   169   ar
    53   138   137    1
    54   181   182   ar
    55   181   180    1
    56   176   177    1
    57    92    89    1
    58   180   177    1
    59   177   178    1
    60    89    88    1
    61    89    90    1
    62    26    24   ar
    63   114   113    2
    64   219   218    1
    65    33    32    1
    66    33    27    1
    67   122   121    2
    68    24    23    1
    69    24    25   ar
    70    32    31    1
    71   102   101    1
    72    23    22    1
    73   124   123    1
    74   120   123    1
    75   120   121    1
    76   120   119    1
    77   186   178   am
    78   186   187    1
    79   118   117    1
    80   215   218    1
    81   215   216    1
    82   215   214    1
    83   178   179    2
    84   218   220    1
    85   216   217    2
    86   191   192    1
    87   191   190    2
    88    19    22    1
    89    19    18    1
    90    19    20    1
    91    90    91    2
    92    90    94   am
    93   113   119   am
    94   113   112    1
    95   206   205    2
    96    31    28    1
    97    27    20   am
    98    27    28    1
    99   192   193    1
   100   189   188    2
   101   188   187    1
   102   101   100    1
   103   214   205   am
   104   187   190    1
   105    20    21    2
   106   205   204    1
   107   112   115    1
   108   112   111    1
   109   115   116    1
   110    94    95    1
   111    28    29    1
   112    60    59   ar
   113    60    58   ar
   114   117   116    1
   115    59    57   ar
   116   199   198    1
   117   199   200    1
   118   100    99    1
   119   198   195    1
   120   203   204    1
   121   203   196   am
   122   204   207    1
   123    99    98    1
   124    30    29    2
   125   196   195    1
   126   196   197    2
   127    29    34   am
   128    58    56   ar
   129   109   108    1
   130   195   194    1
   131    95    98    1
   132    95    96    1
   133   200   202   am
   134   200   201    2
   135    57    56   ar
   136    79    78    1
   137   110   108    1
   138   207   208    1
   139    78    77    1
   140    34    35    1
   141    56    55    1
   142    96    97    2
   143   108   107    1
   144   208   209    1
   145    10     9    1
   146    11     9    1
   147    37    36    2
   148     9     8    2
   149    76    77    1
   150    76    73    1
   151    17    16    1
   152   107   104    1
   153    35    36    1
   154    35    38    1
   155   104   105    1
   156   104   103    1
   157    36    45   am
   158     8     7    1
   159    55    52    1
   160   209   210    1
   161    75    74    2
   162    16    13    1
   163     7     6    1
   164    73    74    1
   165    73    72    1
   166    52    51    1
   167    52    53    1
   168    83    82    2
   169   105   106    2
   170    13    14    1
   171    13    12    1
   172    51    47   am
   173    82    81    1
   174    38    39    1
   175    45    46    1
   176    14    15    2
   177    84    81    1
   178    84    85    1
   179    47    46    1
   180    47    48    2
   181    46    49    1
   182   210   211    2
   183    39    40    1
   184    54    53    2
   185    87    85   ar
   186    72    63   am
   187    81    80    1
   188     6     5    1
   189    85    86   ar
   190   211   212    1
   191   211   213    1
   192     5     2    1
   193    64    63    2
   194    49    50    1
   195    63    62    1
   196    40    41    1
   197    41    42    2
   198     4     3    2
   199    61    62    1
   200    62    65    1
   201    65    66    1
   202     2     3    1
   203     2     1    1
   204    42    44    1
   205    42    43    1
   206    68    66   ar
   207    68    70   ar
   208    66    67   ar
   209    70    71   ar
   210    67    69   ar
   211    71    69   ar
