@<TRIPOS>MOLECULE
tmp/3gm6B00.pdb
 86 80 0 0 0
SMALL
GASTEIGER

@<TRIPOS>ATOM
      1  N         15.8170   77.1670  117.7780 N.3    90  THR90      -0.1203
      2  CA        16.7990   76.1630  118.1430 C.3    90  THR90       0.1994
      3  C         16.2700   74.7250  118.0000 C.2    90  THR90       0.2619
      4  O         16.9710   73.7720  118.3640 O.2    90  THR90      -0.2717
      5  CB        17.2670   76.4060  119.6060 C.3    90  THR90       0.1784
      6  OG1       16.1250   76.5270  120.4390 O.3    90  THR90      -0.2211
      7  CG2       18.0490   77.6800  119.7240 C.3    90  THR90       0.0376
      8  N         15.0380   74.5480  117.5130 N.am   91  SER91      -0.1937
      9  CA        14.4790   73.1780  117.3420 C.3    91  SER91       0.2055
     10  C         14.2890   72.8550  115.8390 C.2    91  SER91       0.2642
     11  O         14.9930   73.4110  114.9680 O.2    91  SER91      -0.2714
     12  CB        13.1810   73.0230  118.1720 C.3    91  SER91       0.2130
     13  OG        12.6620   71.6870  118.1780 O.3    91  SER91      -0.2179
     14  N         13.3410   71.9760  115.5370 N.am   92  ARG92      -0.1977
     15  CA        13.2320   71.3440  114.2360 C.3    92  ARG92       0.1597
     16  C         12.6660   72.2490  113.1180 C.2    92  ARG92       0.2287
     17  O         12.9890   72.0310  111.9430 O.2    92  ARG92      -0.2864
     18  CB        12.3470   70.0880  114.3490 C.3    92  ARG92       0.0334
     19  CG        12.8490   68.9640  115.2520 C.3    92  ARG92       0.0492
     20  CD        14.1370   68.3660  114.7670 C.3    92  ARG92       0.2205
     21  NE        14.1590   68.2340  113.3150 N.pl3  92  ARG92      -0.0865
     22  CZ        13.5060   67.3180  112.6060 C.cat  92  ARG92       0.5346
     23  NH1       12.7920   66.3420  113.1820 N.pl3  92  ARG92       0.1354
     24  NH2       13.5960   67.3590  111.2690 N.pl3  92  ARG92       0.1354
     25  N          8.8290   68.1460  120.8440 N.3   111  GLU111     -0.1245
     26  CA         9.6560   66.9810  120.4890 C.3   111  GLU111      0.1567
     27  C          9.2360   65.7720  121.3240 C.2   111  GLU111      0.2260
     28  O          8.7100   65.9470  122.4390 O.2   111  GLU111     -0.2867
     29  CB        11.1640   67.2850  120.7610 C.3   111  GLU111      0.0388
     30  CG        11.7690   68.4530  119.8950 C.3   111  GLU111      0.1160
     31  CD        13.3110   68.4340  119.7620 C.2   111  GLU111      0.3649
     32  OE1       13.9540   67.4500  120.1530 O.co2 111  GLU111     -0.2457
     33  OE2       13.8730   69.4350  119.2890 O.co2 111  GLU111     -0.2457
     34  N         22.9390   56.8570  120.1970 N.3   400  ARG400     -0.1245
     35  CA        24.0230   57.5980  120.8810 C.3   400  ARG400      0.1563
     36  C         24.3480   57.1190  122.3010 C.2   400  ARG400      0.2260
     37  O         25.4950   57.2010  122.7530 O.2   400  ARG400     -0.2867
     38  CB        23.7180   59.0970  120.9040 C.3   400  ARG400      0.0307
     39  CG        23.8640   59.7750  119.5770 C.3   400  ARG400      0.0489
     40  CD        23.7070   61.3090  119.7080 C.3   400  ARG400      0.2205
     41  NE        23.3820   61.9190  118.4240 N.pl3 400  ARG400     -0.0865
     42  CZ        24.2060   62.5700  117.6090 C.cat 400  ARG400      0.5346
     43  NH1       25.5050   62.8090  117.8880 N.pl3 400  ARG400      0.1354
     44  NH2       23.7150   63.0100  116.4700 N.pl3 400  ARG400      0.1354
     45  N         26.2000   63.0220  112.1890 N.3   424  ASP424     -0.1239
     46  CA        26.0840   64.4780  112.1700 C.3   424  ASP424      0.1674
     47  C         26.2220   65.0940  110.7850 C.2   424  ASP424      0.2266
     48  O         25.5680   66.1040  110.4900 O.2   424  ASP424     -0.2867
     49  CB        26.9940   65.0780  113.1960 C.3   424  ASP424      0.1410
     50  CG        26.4470   64.8510  114.6260 C.2   424  ASP424      0.3668
     51  OD1       25.1860   64.8150  114.8150 O.co2 424  ASP424     -0.2456
     52  OD2       27.2620   64.6700  115.5250 O.co2 424  ASP424     -0.2456
     53  N         22.6360   64.6950  109.3530 N.3   427  LYS427     -0.1231
     54  CA        21.6710   65.5520  110.0420 C.3   427  LYS427      0.1693
     55  C         21.9270   67.0220  109.7450 C.2   427  LYS427      0.2592
     56  O         20.9820   67.7620  109.5160 O.2   427  LYS427     -0.2718
     57  CB        21.6700   65.2830  111.5510 C.3   427  LYS427      0.0285
     58  CG        21.2290   63.8590  111.9550 C.3   427  LYS427      0.0035
     59  CD        21.1290   63.7060  113.4880 C.3   427  LYS427      0.0206
     60  CE        19.7600   64.1640  114.0160 C.3   427  LYS427      0.1093
     61  NZ        19.6440   64.0660  115.5330 N.3   427  LYS427     -0.1314
     62  N         23.1860   67.4580  109.7720 N.am  428  ASN428     -0.1974
     63  CA        23.5290   68.8760  109.4670 C.3   428  ASN428      0.1688
     64  C         23.1150   69.2530  108.0250 C.2   428  ASN428      0.2292
     65  O         22.4970   70.3020  107.7980 O.2   428  ASN428     -0.2864
     66  CB        25.0350   69.0990  109.6590 C.3   428  ASN428      0.1181
     67  CG        25.4640   69.0560  111.1310 C.2   428  ASN428      0.2629
     68  OD1       24.6130   69.1420  112.0520 O.2   428  ASN428     -0.2716
     69  ND2       26.7940   68.9060  111.3650 N.am  428  ASN428     -0.0877
     70  N         19.1430   69.2570  107.7600 N.3   431  HIS431     -0.1241
     71  CA        18.5710   70.4210  108.4330 C.3   431  HIS431      0.1621
     72  C         18.7740   71.7190  107.6580 C.2   431  HIS431      0.2264
     73  O         17.8640   72.5800  107.6310 O.2   431  HIS431     -0.2867
     74  CB        19.1420   70.5450  109.8480 C.3   431  HIS431      0.0745
     75  CG        18.5710   71.6790  110.6470 C.ar  431  HIS431      0.0817
     76  ND1       17.2820   71.6750  111.1490 N.ar  431  HIS431     -0.2268
     77  CD2       19.1270   72.8570  111.0320 C.ar  431  HIS431      0.1154
     78  CE1       17.0810   72.8030  111.8220 C.ar  431  HIS431      0.1986
     79  NE2       18.1890   73.5320  111.7730 N.ar  431  HIS431     -0.2212
     80  N         15.9750   63.3720  111.1690 N.3   484  VAL484     -0.1245
     81  CA        16.5890   64.5100  110.4590 C.3   484  VAL484      0.1561
     82  C         17.4030   63.9870  109.2620 C.2   484  VAL484      0.2260
     83  O         18.5860   64.3010  109.0690 O.2   484  VAL484     -0.2867
     84  CB        17.4620   65.4400  111.3920 C.3   484  VAL484      0.0252
     85  CG1       17.7600   66.7880  110.6870 C.3   484  VAL484      0.0019
     86  CG2       16.7880   65.6940  112.7550 C.3   484  VAL484      0.0019
@<TRIPOS>BOND
     1    73    72    2
     2    72    71    1
     3    70    71    1
     4    65    64    2
     5    64    63    1
     6    71    74    1
     7    83    82    2
     8    82    81    1
     9    53    54    1
    10    63    66    1
    11    63    62    1
    12    56    55    2
    13    66    67    1
    14    55    62   am
    15    55    54    1
    16    74    75    1
    17    54    57    1
    18    81    80    1
    19    81    84    1
    20    48    47    2
    21    75    77   ar
    22    75    76   ar
    23    85    84    1
    24    47    46    1
    25    77    79   ar
    26    67    69   am
    27    67    68    2
    28    76    78   ar
    29    24    22    1
    30    84    86    1
    31    57    58    1
    32    79    78   ar
    33    17    16    2
    34    58    59    1
    35    46    45    1
    36    46    49    1
    37    22    23    1
    38    22    21    2
    39    16    15    1
    40    49    50    1
    41    21    20    1
    42    59    60    1
    43    60    61    1
    44    15    18    1
    45    15    14    1
    46    18    19    1
    47    50    51   ar
    48    50    52   ar
    49    20    19    1
    50    11    10    2
    51    14    10   am
    52    10     9    1
    53    44    42    1
    54     9     8    1
    55     9    12    1
    56     8     3   am
    57    42    43    1
    58    42    41    2
    59     1     2    1
    60     3     2    1
    61     3     4    2
    62     2     5    1
    63    12    13    1
    64    41    40    1
    65    33    31   ar
    66    39    40    1
    67    39    38    1
    68     5     7    1
    69     5     6    1
    70    31    30    1
    71    31    32   ar
    72    30    29    1
    73    34    35    1
    74    26    29    1
    75    26    25    1
    76    26    27    1
    77    35    38    1
    78    35    36    1
    79    27    28    2
    80    36    37    2
