@<TRIPOS>MOLECULE
tmp/3gm6B03.pdb
 203 193 0 0 0
SMALL
GASTEIGER

@<TRIPOS>ATOM
      1  N          1.0670   46.6640  132.8280 N.3    59  LEU59      -0.1245
      2  CA         2.3560   46.0840  132.4660 C.3    59  LEU59       0.1561
      3  C          2.9700   45.2120  133.5740 C.2    59  LEU59       0.2260
      4  O          3.7920   44.3080  133.2890 O.2    59  LEU59      -0.2867
      5  CB         3.3330   47.1860  132.0200 C.3    59  LEU59       0.0270
      6  CG         3.0400   47.8460  130.6550 C.3    59  LEU59       0.0019
      7  CD1        1.8020   48.7560  130.7100 C.3    59  LEU59       0.0001
      8  CD2        4.2740   48.6840  130.1060 C.3    59  LEU59       0.0001
      9  N          3.1620   41.3780  133.4010 N.3    62  CYS62      -0.1235
     10  CA         4.3060   40.7350  132.7440 C.3    62  CYS62       0.1677
     11  C          5.6110   40.8680  133.5480 C.2    62  CYS62       0.2270
     12  O          6.5480   40.0690  133.3980 O.2    62  CYS62      -0.2867
     13  CB         4.5290   41.3620  131.3620 C.3    62  CYS62       0.0956
     14  SG         3.0640   41.4650  130.2870 S.3    62  CYS62      -0.0801
     15  N          9.2280   38.7630  133.9990 N.3    66  HIS66      -0.1241
     16  CA        10.1050   39.4190  133.0040 C.3    66  HIS66       0.1621
     17  C         10.5370   40.8520  133.5350 C.2    66  HIS66       0.2264
     18  O         10.3580   41.8720  132.8630 O.2    66  HIS66      -0.2867
     19  CB         9.4050   39.5120  131.6130 C.3    66  HIS66       0.0745
     20  CG         8.9340   38.1890  131.0260 C.ar   66  HIS66       0.0817
     21  ND1        9.7900   37.1560  130.7190 N.ar   66  HIS66      -0.2268
     22  CD2        7.6970   37.7770  130.6090 C.ar   66  HIS66       0.1154
     23  CE1        9.1000   36.1540  130.1640 C.ar   66  HIS66       0.1986
     24  NE2        7.8200   36.4980  130.0880 N.ar   66  HIS66      -0.2212
     25  N         13.0610   43.1220  131.2270 N.3    69  GLN69      -0.1231
     26  CA        12.4230   43.7930  130.0900 C.3    69  GLN69       0.1698
     27  C         11.5190   44.9640  130.5480 C.2    69  GLN69       0.2592
     28  O         11.5360   46.0790  129.9510 O.2    69  GLN69      -0.2718
     29  CB        11.6420   42.7880  129.2310 C.3    69  GLN69       0.0381
     30  CG        12.5100   41.7260  128.4840 C.3    69  GLN69       0.0905
     31  CD        12.9440   40.5670  129.3490 C.2    69  GLN69       0.2608
     32  OE1       12.5630   40.4830  130.5450 O.2    69  GLN69      -0.2717
     33  NE2       13.7290   39.6540  128.7750 N.am   69  GLN69      -0.0878
     34  N         10.7570   44.7450  131.6120 N.am   70  PHE70      -0.1976
     35  CA         9.9600   45.8260  132.2050 C.3    70  PHE70       0.1639
     36  C         10.8270   47.0310  132.6590 C.2    70  PHE70       0.2290
     37  O         10.5560   48.1930  132.3130 O.2    70  PHE70      -0.2864
     38  CB         9.1450   45.2790  133.4020 C.3    70  PHE70       0.0560
     39  CG         8.3380   46.3260  134.0990 C.ar   70  PHE70      -0.0200
     40  CD1        7.0820   46.6570  133.6400 C.ar   70  PHE70      -0.0042
     41  CD2        8.8580   47.0120  135.1870 C.ar   70  PHE70      -0.0042
     42  CE1        6.3430   47.6410  134.2680 C.ar   70  PHE70      -0.0003
     43  CE2        8.1420   48.0000  135.8150 C.ar   70  PHE70      -0.0003
     44  CZ         6.8790   48.3240  135.3620 C.ar   70  PHE70      -0.0000
     45  N         12.2580   49.0060  129.8400 N.3    73  PHE73      -0.1241
     46  CA        11.1890   49.8070  129.2120 C.3    73  PHE73       0.1605
     47  C         10.8480   51.0870  129.9620 C.2    73  PHE73       0.2264
     48  O         10.6880   52.1510  129.3400 O.2    73  PHE73      -0.2867
     49  CB         9.8990   49.0020  129.0510 C.3    73  PHE73       0.0534
     50  CG         8.7390   49.8520  128.6480 C.ar   73  PHE73      -0.0203
     51  CD1        8.6770   50.3120  127.3590 C.ar   73  PHE73      -0.0042
     52  CD2        7.7590   50.2270  129.5530 C.ar   73  PHE73      -0.0042
     53  CE1        7.6360   51.1190  126.9520 C.ar   73  PHE73      -0.0003
     54  CE2        6.6990   51.0740  129.1500 C.ar   73  PHE73      -0.0003
     55  CZ         6.6650   51.5120  127.8520 C.ar   73  PHE73      -0.0000
     56  N          9.1170   56.6650  126.1060 N.3   115  HIS115     -0.1241
     57  CA         7.8570   55.9500  125.9130 C.3   115  HIS115      0.1621
     58  C          6.9520   55.9070  127.1590 C.2   115  HIS115      0.2264
     59  O          5.7230   55.9050  127.0300 O.2   115  HIS115     -0.2867
     60  CB         8.1140   54.4920  125.4120 C.3   115  HIS115      0.0745
     61  CG         8.3190   54.3420  123.9210 C.ar  115  HIS115      0.0817
     62  ND1        8.9560   53.2380  123.3890 N.ar  115  HIS115     -0.2268
     63  CD2        7.9130   55.0950  122.8450 C.ar  115  HIS115      0.1154
     64  CE1        8.9210   53.3170  122.0520 C.ar  115  HIS115      0.1986
     65  NE2        8.3230   54.4540  121.6930 N.ar  115  HIS115     -0.2212
     66  N          1.7270   51.9880  126.0100 N.3   221  LEU221     -0.1231
     67  CA         2.4580   50.9660  125.2510 C.3   221  LEU221      0.1693
     68  C          2.4400   49.5920  125.9320 C.2   221  LEU221      0.2592
     69  O          3.4780   49.0580  126.2960 O.2   221  LEU221     -0.2718
     70  CB         3.9090   51.4340  124.9450 C.3   221  LEU221      0.0284
     71  CG         4.8720   50.6180  124.0660 C.3   221  LEU221      0.0019
     72  CD1        4.2130   50.0730  122.8480 C.3   221  LEU221      0.0001
     73  CD2        6.0990   51.4890  123.6300 C.3   221  LEU221      0.0001
     74  N          1.2530   49.0010  126.0450 N.am  222  ASN222     -0.1960
     75  CA         1.1250   47.7130  126.7290 C.3   222  ASN222      0.1819
     76  C          2.0960   46.6790  126.1560 C.2   222  ASN222      0.2621
     77  O          2.3090   46.6110  124.9210 O.2   222  ASN222     -0.2715
     78  CB        -0.3270   47.1950  126.6170 C.3   222  ASN222      0.1195
     79  CG        -1.3530   48.2250  127.0430 C.2   222  ASN222      0.2630
     80  OD1       -1.5680   49.2360  126.3590 O.2   222  ASN222     -0.2716
     81  ND2       -1.9970   47.9790  128.1910 N.am  222  ASN222     -0.0877
     82  N          2.6380   45.8080  127.0100 N.am  223  CYS223     -0.1968
     83  CA         3.6130   44.8400  126.5580 C.3   223  CYS223      0.1712
     84  C          3.0430   43.9340  125.4550 C.2   223  CYS223      0.2296
     85  O          3.7730   43.4920  124.5880 O.2   223  CYS223     -0.2864
     86  CB         4.1090   43.9330  127.6830 C.3   223  CYS223      0.0983
     87  SG         4.9290   44.7180  129.1210 S.3   223  CYS223     -0.0798
     88  N          1.2430   44.6960  122.9370 N.3   225  MET225     -0.1230
     89  CA         1.1500   45.2610  121.5940 C.3   225  MET225      0.1702
     90  C          2.0600   44.5630  120.5790 C.2   225  MET225      0.2592
     91  O          1.7380   44.5700  119.3850 O.2   225  MET225     -0.2718
     92  CB         1.3930   46.7870  121.5970 C.3   225  MET225      0.0401
     93  CG         0.3250   47.5760  122.2940 C.3   225  MET225      0.0596
     94  SD         0.3240   49.3640  121.9780 S.3   225  MET225     -0.1393
     95  CE        -0.0870   49.4190  120.2360 C.3   225  MET225      0.0692
     96  N          3.1860   43.9610  121.0160 N.am  226  CYS226     -0.1956
     97  CA         4.0990   43.2870  120.1080 C.3   226  CYS226      0.1843
     98  C          4.2550   41.7680  120.3840 C.2   226  CYS226      0.2625
     99  O          4.9420   41.0700  119.6330 O.2   226  CYS226     -0.2714
    100  CB         5.4950   43.9150  120.2270 C.3   226  CYS226      0.0997
    101  SG         5.5280   45.7040  119.9390 S.3   226  CYS226     -0.0797
    102  N          3.6720   41.2950  121.4900 N.am  227  HIS227     -0.1973
    103  CA         3.7990   39.9030  121.9430 C.3   227  HIS227      0.1656
    104  C          2.3720   39.3380  122.2540 C.2   227  HIS227      0.2291
    105  O          1.6630   39.8670  123.1300 O.2   227  HIS227     -0.2864
    106  CB         4.6310   39.8650  123.2410 C.3   227  HIS227      0.0771
    107  CG         6.0260   40.4540  123.1380 C.ar  227  HIS227      0.0820
    108  ND1        6.9520   40.0370  122.2070 N.ar  227  HIS227     -0.2267
    109  CD2        6.6530   41.4120  123.8830 C.ar  227  HIS227      0.1154
    110  CE1        8.1090   40.6820  122.4180 C.ar  227  HIS227      0.1986
    111  NE2        7.9490   41.5440  123.4180 N.ar  227  HIS227     -0.2212
    112  N         10.1630   37.7920  114.2020 N.3   286  ALA286     -0.1245
    113  CA        10.1330   38.8240  115.2450 C.3   286  ALA286      0.1562
    114  C         10.6250   40.1120  114.6220 C.2   286  ALA286      0.2260
    115  O         11.7330   40.5890  114.9480 O.2   286  ALA286     -0.2867
    116  CB        11.0410   38.4230  116.4510 C.3   286  ALA286      0.0290
    117  N         10.9720   43.6970  114.0470 N.3   288  SER288     -0.1217
    118  CA        10.7240   45.0040  114.6790 C.3   288  SER288      0.1889
    119  C         10.2690   46.0960  113.7140 C.2   288  SER288      0.2288
    120  O          9.5860   47.0560  114.1410 O.2   288  SER288     -0.2866
    121  CB        11.9350   45.5060  115.5020 C.3   288  SER288      0.2089
    122  OG        13.0530   45.7180  114.6820 O.3   288  SER288     -0.2183
    123  N          6.5120   45.7730  113.8760 N.3   291  MET291     -0.1230
    124  CA         6.0630   46.0790  115.2480 C.3   291  MET291      0.1702
    125  C          6.0140   47.6060  115.5260 C.2   291  MET291      0.2592
    126  O          5.0250   48.1420  116.0450 O.2   291  MET291     -0.2718
    127  CB         6.9860   45.4240  116.2630 C.3   291  MET291      0.0401
    128  CG         6.9390   43.8530  116.3600 C.3   291  MET291      0.0596
    129  SD         8.2150   43.2910  117.4870 S.3   291  MET291     -0.1393
    130  CE         7.9160   41.5030  117.4230 C.3   291  MET291      0.0692
    131  N          7.1050   48.2820  115.1940 N.am  292  CYS292     -0.1970
    132  CA         7.2450   49.7340  115.4350 C.3   292  CYS292      0.1712
    133  C          6.3230   50.5690  114.5070 C.2   292  CYS292      0.2296
    134  O          5.8910   51.6740  114.8760 O.2   292  CYS292     -0.2864
    135  CB         8.7040   50.1910  115.3130 C.3   292  CYS292      0.0983
    136  SG         9.9490   49.3150  116.2590 S.3   292  CYS292     -0.0798
    137  N         14.9530   47.7230  115.7220 N.3   376  ALA376     -0.1245
    138  CA        15.5220   47.1900  116.9980 C.3   376  ALA376      0.1562
    139  C         17.0640   47.1390  117.0100 C.2   376  ALA376      0.2260
    140  O         17.6860   47.2410  118.0810 O.2   376  ALA376     -0.2867
    141  CB        14.9420   45.7570  117.3370 C.3   376  ALA376      0.0290
    142  N         16.8890   49.2430  120.1450 N.3   380  MET380     -0.1196
    143  CA        16.6630   48.3480  121.3110 C.3   380  MET380      0.1786
    144  C         17.4450   47.0280  121.1030 C.2   380  MET380      0.2306
    145  O         16.8720   45.9470  120.9110 O.2   380  MET380     -0.2863
    146  CB        15.1400   48.1510  121.5980 C.2   380  MET380      0.0070
    147  CG        14.2940   47.6630  120.4530 C.2   380  MET380      0.0282
    148  SD        12.5950   47.1250  120.9090 S.3   380  MET380     -0.1125
    149  CE        13.0040   45.6340  121.8430 C.3   380  MET380      0.0742
    150  N         20.3220   43.8420  121.7390 N.3   382  LYS382     -0.1245
    151  CA        20.6850   42.8820  122.7920 C.3   382  LYS382      0.1561
    152  C         21.6870   43.5180  123.7660 C.2   382  LYS382      0.2260
    153  O         22.6060   44.2460  123.3400 O.2   382  LYS382     -0.2867
    154  CB        21.2930   41.6240  122.1610 C.3   382  LYS382      0.0271
    155  CG        20.2460   40.7860  121.4650 C.3   382  LYS382      0.0035
    156  CD        20.8180   39.5380  120.8270 C.3   382  LYS382      0.0206
    157  CE        19.7060   38.5080  120.5310 C.3   382  LYS382      0.1093
    158  NZ        18.3400   39.1070  120.4300 N.3   382  LYS382     -0.1314
    159  N         21.8310   36.8040  128.4090 N.3   390  VAL390     -0.1231
    160  CA        21.5210   37.9040  127.4870 C.3   390  VAL390      0.1692
    161  C         19.9990   38.0990  127.4160 C.2   390  VAL390      0.2592
    162  O         19.2550   37.1320  127.4860 O.2   390  VAL390     -0.2718
    163  CB        22.1470   37.6840  126.0930 C.3   390  VAL390      0.0266
    164  CG1       21.6400   38.7180  125.0780 C.3   390  VAL390      0.0020
    165  CG2       23.6900   37.7740  126.1930 C.3   390  VAL390      0.0020
    166  N         19.5680   39.3620  127.3310 N.am  391  TYR391     -0.1962
    167  CA        18.1760   39.7290  127.0380 C.3   391  TYR391      0.1771
    168  C         18.1650   40.9670  126.1060 C.2   391  TYR391      0.2620
    169  O         19.2390   41.5500  125.8230 O.2   391  TYR391     -0.2715
    170  CB        17.3920   40.0020  128.3260 C.3   391  TYR391      0.0574
    171  CG        17.8440   41.2520  129.0840 C.ar  391  TYR391     -0.0198
    172  CD1       18.8980   41.1980  129.9880 C.ar  391  TYR391     -0.0009
    173  CD2       17.2340   42.4940  128.8680 C.ar  391  TYR391     -0.0009
    174  CE1       19.3320   42.3330  130.6760 C.ar  391  TYR391      0.0417
    175  CE2       17.6610   43.6490  129.5730 C.ar  391  TYR391      0.0417
    176  CZ        18.7190   43.5530  130.4600 C.ar  391  TYR391      0.1957
    177  OH        19.1780   44.6590  131.1440 O.3   391  TYR391     -0.2866
    178  N         16.9850   41.3030  125.5870 N.am  392  THR392     -0.1951
    179  CA        16.8300   42.4130  124.6370 C.3   392  THR392      0.1897
    180  C         16.4740   43.6800  125.4150 C.2   392  THR392      0.2313
    181  O         15.4810   43.7140  126.1500 O.2   392  THR392     -0.2863
    182  CB        15.7660   42.1000  123.5410 C.3   392  THR392      0.1794
    183  OG1       16.1030   40.8910  122.8360 O.3   392  THR392     -0.2208
    184  CG2       15.6630   43.2600  122.5690 C.3   392  THR392      0.0378
    185  N         14.6900   46.8610  126.2680 N.3   394  HIS394     -0.1241
    186  CA        13.4460   47.5080  125.8680 C.3   394  HIS394      0.1621
    187  C         13.4880   49.0500  126.0920 C.2   394  HIS394      0.2264
    188  O         12.4310   49.7020  126.0990 O.2   394  HIS394     -0.2867
    189  CB        12.2520   46.8280  126.5650 C.3   394  HIS394      0.0745
    190  CG        11.8330   45.5120  125.9410 C.ar  394  HIS394      0.0817
    191  ND1       12.6850   44.4360  125.8170 N.ar  394  HIS394     -0.2268
    192  CD2       10.6320   45.0990  125.4310 C.ar  394  HIS394      0.1154
    193  CE1       12.0310   43.4200  125.2430 C.ar  394  HIS394      0.1986
    194  NE2       10.7820   43.7920  125.0070 N.ar  394  HIS394     -0.2212
    195  N         13.7470   52.1060  124.3300 N.3   396  GLN396     -0.1245
    196  CA        13.7240   52.4520  122.8910 C.3   396  GLN396      0.1566
    197  C         14.1920   53.9070  122.8130 C.2   396  GLN396      0.2260
    198  O         13.4910   54.8470  123.2330 O.2   396  GLN396     -0.2867
    199  CB        12.3140   52.2630  122.3120 C.3   396  GLN396      0.0367
    200  CG        11.9000   50.7900  122.1420 C.3   396  GLN396      0.0905
    201  CD        11.0320   50.2220  123.2360 C.2   396  GLN396      0.2608
    202  OE1       10.4600   50.9350  124.0420 O.2   396  GLN396     -0.2717
    203  NE2       10.8970   48.8910  123.2370 N.am  396  GLN396     -0.0878
@<TRIPOS>BOND
     1   119   120    2
     2   119   118    1
     3   123   124    1
     4   117   118    1
     5   112   113    1
     6   133   134    2
     7   133   132    1
     8   114   115    2
     9   114   113    1
    10   118   121    1
    11   122   121    1
    12   131   132    1
    13   131   125   am
    14   113   116    1
    15   124   125    1
    16   124   127    1
    17   135   132    1
    18   135   136    1
    19   125   126    2
    20   137   138    1
    21   127   128    1
    22   128   129    1
    23   138   139    1
    24   138   141    1
    25   139   140    2
    26   130   129    1
    27    91    90    2
    28    99    98    2
    29   101   100    1
    30    97   100    1
    31    97    98    1
    32    97    96    1
    33   142   143    1
    34    95    94    1
    35    98   102   am
    36   158   157    1
    37   147   148    1
    38   147   146    2
    39   157   156    1
    40    90    96   am
    41    90    89    1
    42   156   155    1
    43   148   149    1
    44   145   144    2
    45   144   143    1
    46   143   146    1
    47   155   154    1
    48   102   103    1
    49    89    92    1
    50    89    88    1
    51    92    93    1
    52    65    64   ar
    53    65    63   ar
    54   150   151    1
    55   103   104    1
    56   103   106    1
    57    94    93    1
    58    64    62   ar
    59   200   199    1
    60   200   201    1
    61   154   151    1
    62   108   110   ar
    63   108   107   ar
    64   104   105    2
    65   199   196    1
    66   110   111   ar
    67   184   182    1
    68   151   152    1
    69   197   196    1
    70   197   198    2
    71   183   182    1
    72    63    61   ar
    73    72    71    1
    74   196   195    1
    75   107   106    1
    76   107   109   ar
    77   201   203   am
    78   201   202    2
    79   153   152    2
    80    62    61   ar
    81   111   109   ar
    82   182   179    1
    83    73    71    1
    84    61    60    1
    85    71    70    1
    86    85    84    2
    87   179   180    1
    88   179   178    1
    89    77    76    2
    90    70    67    1
    91   194   193   ar
    92   194   192   ar
    93   164   163    1
    94   193   191   ar
    95    67    68    1
    96    67    66    1
    97    60    57    1
    98   180   181    2
    99   192   190   ar
   100    84    83    1
   101   178   168   am
   102   191   190   ar
   103   169   168    2
   104   186   187    1
   105   186   185    1
   106   186   189    1
   107    57    56    1
   108    57    58    1
   109    68    74   am
   110    68    69    2
   111   190   189    1
   112    74    75    1
   113   187   188    2
   114   163   165    1
   115   163   160    1
   116   168   167    1
   117    76    75    1
   118    76    82   am
   119    80    79    2
   120    83    82    1
   121    83    86    1
   122    78    75    1
   123    78    79    1
   124    53    51   ar
   125    53    55   ar
   126    59    58    2
   127   167   166    1
   128   167   170    1
   129    79    81   am
   130   166   161   am
   131    51    50   ar
   132   161   162    2
   133   161   160    1
   134   160   159    1
   135    86    87    1
   136    55    54   ar
   137   170   171    1
   138    30    29    1
   139    30    31    1
   140    50    49    1
   141    50    52   ar
   142    33    31   am
   143   173   171   ar
   144   173   175   ar
   145    49    46    1
   146   171   172   ar
   147    54    52   ar
   148    46    45    1
   149    46    47    1
   150    29    26    1
   151    48    47    2
   152    31    32    2
   153   175   176   ar
   154    28    27    2
   155   172   174   ar
   156    24    23   ar
   157    24    22   ar
   158    26    27    1
   159    26    25    1
   160     8     6    1
   161    23    21   ar
   162    14    13    1
   163   176   174   ar
   164   176   177    1
   165    27    34   am
   166    22    20   ar
   167     6     7    1
   168     6     5    1
   169    21    20   ar
   170    20    19    1
   171    13    10    1
   172    34    35    1
   173    19    16    1
   174     5     2    1
   175    35    36    1
   176    35    38    1
   177    37    36    2
   178     2     1    1
   179     2     3    1
   180    10     9    1
   181    10    11    1
   182    18    17    2
   183    16    17    1
   184    16    15    1
   185     4     3    2
   186    12    11    2
   187    38    39    1
   188    40    39   ar
   189    40    42   ar
   190    39    41   ar
   191    42    44   ar
   192    41    43   ar
   193    44    43   ar
