@<TRIPOS>MOLECULE
tmp/3gm6B08.pdb
 156 154 0 0 0
SMALL
GASTEIGER

@<TRIPOS>ATOM
      1  N          5.3950   29.3360  123.9710 N.3    25  LYS25      -0.1231
      2  CA         6.2250   29.3540  125.1750 C.3    25  LYS25       0.1693
      3  C          5.5040   29.8660  126.4220 C.2    25  LYS25       0.2592
      4  O          6.1300   30.0140  127.4720 O.2    25  LYS25      -0.2718
      5  CB         7.5280   30.1510  124.9500 C.3    25  LYS25       0.0285
      6  CG         8.4670   29.5580  123.9250 C.3    25  LYS25       0.0035
      7  CD         9.8670   30.2160  123.9670 C.3    25  LYS25       0.0206
      8  CE        10.7010   29.8320  122.7460 C.3    25  LYS25       0.1093
      9  NZ        10.9830   28.3650  122.6800 N.3    25  LYS25      -0.1314
     10  N          4.2010   30.1050  126.3370 N.am   26  HIS26      -0.1976
     11  CA         3.4130   30.3790  127.5310 C.3    26  HIS26       0.1656
     12  C          2.4550   29.1870  127.8860 C.2    26  HIS26       0.2291
     13  O          1.4990   29.3630  128.6820 O.2    26  HIS26      -0.2864
     14  CB         2.6380   31.7020  127.3760 C.3    26  HIS26       0.0771
     15  CG         3.4120   32.9600  127.7290 C.ar   26  HIS26       0.0820
     16  ND1        2.8670   34.2060  127.5320 N.ar   26  HIS26      -0.2267
     17  CD2        4.6350   33.1770  128.2990 C.ar   26  HIS26       0.1154
     18  CE1        3.7120   35.1390  127.9730 C.ar   26  HIS26       0.1986
     19  NE2        4.7980   34.5490  128.4400 N.ar   26  HIS26      -0.2212
     20  N          2.7950   26.8460  129.9380 N.3    28  THR28      -0.1203
     21  CA         2.7640   26.6120  131.3900 C.3    28  THR28       0.1994
     22  C          2.2460   27.8140  132.2240 C.2    28  THR28       0.2617
     23  O          2.1900   27.7390  133.4720 O.2    28  THR28      -0.2717
     24  CB         4.1530   26.2160  131.9380 C.3    28  THR28       0.1784
     25  OG1        5.0570   27.3120  131.8000 O.3    28  THR28      -0.2211
     26  CG2        4.7350   24.9900  131.2010 C.3    28  THR28       0.0376
     27  N          1.8770   28.9120  131.5610 N.am   29  VAL29      -0.1979
     28  CA         1.4300   30.1180  132.2640 C.3    29  VAL29       0.1595
     29  C         -0.0900   30.1170  132.4500 C.2    29  VAL29       0.2287
     30  O         -0.8590   30.2100  131.4750 O.2    29  VAL29      -0.2864
     31  CB         1.8870   31.4130  131.5420 C.3    29  VAL29       0.0276
     32  CG1        1.4220   32.6760  132.3190 C.3    29  VAL29       0.0022
     33  CG2        3.4160   31.4290  131.3670 C.3    29  VAL29       0.0022
     34  N         -3.0020   34.5590  135.9650 N.3    33  HIS33      -0.1226
     35  CA        -2.0380   35.6760  135.8850 C.3    33  HIS33       0.1752
     36  C         -2.6000   36.9420  135.2240 C.2    33  HIS33       0.2596
     37  O         -2.1150   38.0390  135.4870 O.2    33  HIS33      -0.2718
     38  CB        -0.7430   35.2600  135.1690 C.3    33  HIS33       0.0759
     39  CG         0.1830   34.4840  136.0460 C.ar   33  HIS33       0.0818
     40  ND1        1.0410   35.0920  136.9460 N.ar   33  HIS33      -0.2268
     41  CD2        0.3230   33.1460  136.2310 C.ar   33  HIS33       0.1154
     42  CE1        1.6690   34.1550  137.6390 C.ar   33  HIS33       0.1986
     43  NE2        1.2650   32.9660  137.2150 N.ar   33  HIS33      -0.2212
     44  N         -3.6120   36.7890  134.3680 N.am   34  CYS34      -0.1970
     45  CA        -4.1590   37.9190  133.6290 C.3    34  CYS34       0.1712
     46  C         -5.7140   38.0060  133.5520 C.2    34  CYS34       0.2296
     47  O         -6.2500   39.0360  133.0690 O.2    34  CYS34      -0.2864
     48  CB        -3.6210   37.8800  132.2000 C.3    34  CYS34       0.0983
     49  SG        -1.8050   37.9110  132.1080 S.3    34  CYS34      -0.0798
     50  N          1.5590   42.9030  135.0970 N.3    61  ALA61      -0.1231
     51  CA         1.1600   41.5030  134.8250 C.3    61  ALA61       0.1694
     52  C          2.2590   40.6910  134.1230 C.2    61  ALA61       0.2592
     53  O          2.2970   39.4490  134.2480 O.2    61  ALA61      -0.2718
     54  CB        -0.1650   41.4560  134.0150 C.3    61  ALA61       0.0304
     55  N          3.1620   41.3780  133.4010 N.am   62  CYS62      -0.1970
     56  CA         4.3060   40.7350  132.7440 C.3    62  CYS62       0.1712
     57  C          5.6110   40.8680  133.5480 C.2    62  CYS62       0.2296
     58  O          6.5480   40.0690  133.3980 O.2    62  CYS62      -0.2864
     59  CB         4.5290   41.3620  131.3620 C.3    62  CYS62       0.0983
     60  SG         3.0640   41.4650  130.2870 S.3    62  CYS62      -0.0798
     61  N          6.3680   40.4190  136.7350 N.3    64  THR64      -0.1203
     62  CA         6.7740   39.4540  137.7780 C.3    64  THR64       0.1994
     63  C          7.6360   38.3220  137.2220 C.2    64  THR64       0.2618
     64  O          8.5760   37.9030  137.9100 O.2    64  THR64      -0.2717
     65  CB         5.6120   38.8690  138.6500 C.3    64  THR64       0.1784
     66  OG1        4.7620   38.0650  137.8380 O.3    64  THR64      -0.2211
     67  CG2        4.8210   39.9820  139.3540 C.3    64  THR64       0.0376
     68  N          7.3960   37.8810  135.9800 N.am   65  CYS65      -0.1955
     69  CA         8.2690   36.8850  135.3310 C.3    65  CYS65       0.1843
     70  C          9.3290   37.4660  134.3380 C.2    65  CYS65       0.2625
     71  O         10.2000   36.7180  133.8820 O.2    65  CYS65      -0.2714
     72  CB         7.4110   35.8850  134.5600 C.3    65  CYS65       0.0997
     73  SG         6.2480   34.9370  135.6150 S.3    65  CYS65      -0.0797
     74  N          9.2280   38.7630  133.9990 N.am   66  HIS66      -0.1973
     75  CA        10.1050   39.4190  133.0040 C.3    66  HIS66       0.1656
     76  C         10.5370   40.8520  133.5350 C.2    66  HIS66       0.2291
     77  O         10.3580   41.8720  132.8630 O.2    66  HIS66      -0.2864
     78  CB         9.4050   39.5120  131.6130 C.3    66  HIS66       0.0771
     79  CG         8.9340   38.1890  131.0260 C.ar   66  HIS66       0.0820
     80  ND1        9.7900   37.1560  130.7190 N.ar   66  HIS66      -0.2267
     81  CD2        7.6970   37.7770  130.6090 C.ar   66  HIS66       0.1154
     82  CE1        9.1000   36.1540  130.1640 C.ar   66  HIS66       0.1986
     83  NE2        7.8200   36.4980  130.0880 N.ar   66  HIS66      -0.2212
     84  N          2.6380   45.8080  127.0100 N.3   223  CYS223     -0.1221
     85  CA         3.6130   44.8400  126.5580 C.3   223  CYS223      0.1808
     86  C          3.0430   43.9340  125.4550 C.2   223  CYS223      0.2601
     87  O          3.7730   43.4920  124.5880 O.2   223  CYS223     -0.2717
     88  CB         4.1090   43.9330  127.6830 C.3   223  CYS223      0.0970
     89  SG         4.9290   44.7180  129.1210 S.3   223  CYS223     -0.0800
     90  N          1.7370   43.6720  125.5090 N.am  224  PHE224     -0.1976
     91  CA         1.1080   42.7790  124.5450 C.3   224  PHE224      0.1639
     92  C          0.8880   43.4210  123.1460 C.2   224  PHE224      0.2290
     93  O          0.3480   42.7580  122.2560 O.2   224  PHE224     -0.2864
     94  CB        -0.2000   42.1790  125.1080 C.3   224  PHE224      0.0560
     95  CG        -1.2020   43.1870  125.5740 C.ar  224  PHE224     -0.0200
     96  CD1       -2.0210   43.8550  124.6800 C.ar  224  PHE224     -0.0042
     97  CD2       -1.3820   43.4080  126.9360 C.ar  224  PHE224     -0.0042
     98  CE1       -2.9630   44.8040  125.1260 C.ar  224  PHE224     -0.0003
     99  CE2       -2.2960   44.3570  127.3870 C.ar  224  PHE224     -0.0003
    100  CZ        -3.1110   45.0350  126.4880 C.ar  224  PHE224     -0.0000
    101  N          3.6720   41.2950  121.4900 N.3   227  HIS227     -0.1226
    102  CA         3.7990   39.9030  121.9430 C.3   227  HIS227      0.1752
    103  C          2.3720   39.3380  122.2540 C.2   227  HIS227      0.2596
    104  O          1.6630   39.8670  123.1300 O.2   227  HIS227     -0.2718
    105  CB         4.6310   39.8650  123.2410 C.3   227  HIS227      0.0759
    106  CG         6.0260   40.4540  123.1380 C.ar  227  HIS227      0.0818
    107  ND1        6.9520   40.0370  122.2070 N.ar  227  HIS227     -0.2268
    108  CD2        6.6530   41.4120  123.8830 C.ar  227  HIS227      0.1154
    109  CE1        8.1090   40.6820  122.4180 C.ar  227  HIS227      0.1986
    110  NE2        7.9490   41.5440  123.4180 N.ar  227  HIS227     -0.2212
    111  N          1.9480   38.2680  121.5840 N.am  228  ASP228     -0.1960
    112  CA         0.6450   37.6720  121.9160 C.3   228  ASP228      0.1825
    113  C          0.7210   37.1220  123.3430 C.2   228  ASP228      0.2464
    114  O          1.6510   36.4050  123.6440 O.2   228  ASP228     -0.2730
    115  CB         0.3010   36.5190  120.9770 C.3   228  ASP228      0.1450
    116  CG        -1.1430   36.0610  121.1500 C.2   228  ASP228      0.3671
    117  OD1       -2.0540   36.6360  120.4810 O.co2 228  ASP228     -0.2456
    118  OD2       -1.3800   35.1450  121.9800 O.co2 228  ASP228     -0.2456
    119  N         -0.2340   37.4520  124.2240 N.am  229  PRO229     -0.2727
    120  CA        -0.0930   36.9580  125.6080 C.3   229  PRO229      0.1402
    121  C         -0.3340   35.4430  125.7690 C.2   229  PRO229      0.2269
    122  O          0.1310   34.8280  126.7440 O.2   229  PRO229     -0.2865
    123  CB        -1.1490   37.7410  126.3760 C.3   229  PRO229      0.0296
    124  CG        -2.1780   38.1420  125.3280 C.3   229  PRO229      0.0237
    125  CD        -1.4330   38.2910  124.0290 C.3   229  PRO229      0.0939
    126  N          0.3070   32.8580  123.0610 N.3   231  SER231     -0.1202
    127  CA         1.3720   32.0740  122.4190 C.3   231  SER231      0.2020
    128  C          2.7830   32.5800  122.7550 C.2   231  SER231      0.2619
    129  O          3.7600   31.8800  122.5530 O.2   231  SER231     -0.2717
    130  CB         1.2240   32.1220  120.8850 C.3   231  SER231      0.2103
    131  OG         1.4690   33.4630  120.4080 O.3   231  SER231     -0.2182
    132  N          2.8560   33.8190  123.2480 N.am  232  ALA232     -0.1965
    133  CA         4.1030   34.5750  123.4390 C.3   232  ALA232      0.1728
    134  C          4.7960   34.9190  122.1190 C.2   232  ALA232      0.2617
    135  O          5.9090   35.4310  122.1280 O.2   232  ALA232     -0.2715
    136  CB         5.0700   33.8960  124.4190 C.3   232  ALA232      0.0334
    137  N          4.1450   34.6660  120.9900 N.am  233  GLY233     -0.1941
    138  CA         4.7670   34.9140  119.6740 C.3   233  GLY233      0.1998
    139  C          4.6460   36.3570  119.1660 C.2   233  GLY233      0.2480
    140  O          3.8350   37.1270  119.6670 O.2   233  GLY233     -0.2729
    141  N          5.4480   36.7400  118.1530 N.am  234  PRO234     -0.2726
    142  CA         5.4230   38.1400  117.7200 C.3   234  PRO234      0.1402
    143  C          4.1560   38.5160  116.9830 C.2   234  PRO234      0.2269
    144  O          3.6610   37.7020  116.1790 O.2   234  PRO234     -0.2865
    145  CB         6.6380   38.2330  116.8050 C.3   234  PRO234      0.0296
    146  CG         6.8310   36.8080  116.2820 C.3   234  PRO234      0.0237
    147  CD         6.4600   35.9530  117.4420 C.3   234  PRO234      0.0939
    148  N         23.0040   36.1540  131.5440 N.3   389  LYS389     -0.1245
    149  CA        22.0030   35.7220  130.5980 C.3   389  LYS389      0.1561
    150  C         21.6380   36.9310  129.7170 C.2   389  LYS389      0.2260
    151  O         21.1950   37.9570  130.2340 O.2   389  LYS389     -0.2867
    152  CB        20.7720   35.2350  131.3500 C.3   389  LYS389      0.0271
    153  CG        19.6290   34.7630  130.4500 C.3   389  LYS389      0.0035
    154  CD        18.5340   34.0650  131.2810 C.3   389  LYS389      0.0206
    155  CE        17.2850   33.7630  130.4500 C.3   389  LYS389      0.1093
    156  NZ        17.5940   32.7870  129.3530 N.3   389  LYS389     -0.1314
@<TRIPOS>BOND
     1   144   143    2
     2   146   145    1
     3   146   147    1
     4   145   142    1
     5   143   142    1
     6   147   141    1
     7   142   141    1
     8   141   139   am
     9   139   140    2
    10   139   138    1
    11   138   137    1
    12   131   130    1
    13   117   116   ar
    14   130   127    1
    15   115   116    1
    16   115   112    1
    17   137   134   am
    18   116   118   ar
    19   101   102    1
    20   111   112    1
    21   111   103   am
    22   112   113    1
    23   102   103    1
    24   102   105    1
    25   134   135    2
    26   134   133    1
    27   107   109   ar
    28   107   106   ar
    29   103   104    2
    30    93    92    2
    31   109   110   ar
    32   127   128    1
    33   127   126    1
    34   129   128    2
    35     9     8    1
    36     8     7    1
    37   128   132   am
    38   106   105    1
    39   106   108   ar
    40    92    91    1
    41   132   133    1
    42   113   114    2
    43   113   119   am
    44   110   108   ar
    45   133   136    1
    46     6     7    1
    47     6     5    1
    48     1     2    1
    49   125   119    1
    50   125   124    1
    51   119   120    1
    52    91    94    1
    53    91    90    1
    54    87    86    2
    55    96    98   ar
    56    96    95   ar
    57     5     2    1
    58    94    95    1
    59    98   100   ar
    60     2     3    1
    61   124   123    1
    62    86    90   am
    63    86    85    1
    64    95    97   ar
    65   120   121    1
    66   120   123    1
    67   121   122    2
    68    10     3   am
    69    10    11    1
    70     3     4    2
    71   100    99   ar
    72    85    84    1
    73    85    88    1
    74    97    99   ar
    75    14    11    1
    76    14    15    1
    77    11    12    1
    78    16    15   ar
    79    16    18   ar
    80    88    89    1
    81    15    17   ar
    82    12    13    2
    83    18    19   ar
    84    17    19   ar
    85   156   155    1
    86   150   151    2
    87   150   149    1
    88    20    21    1
    89    83    82   ar
    90    83    81   ar
    91    82    80   ar
    92    60    59    1
    93   155   154    1
    94   153   154    1
    95   153   152    1
    96   149   152    1
    97   149   148    1
    98    81    79   ar
    99    80    79   ar
   100    79    78    1
   101    26    24    1
   102    59    56    1
   103    33    31    1
   104    21    24    1
   105    21    22    1
   106    30    29    2
   107    31    28    1
   108    31    32    1
   109    27    22   am
   110    27    28    1
   111    78    75    1
   112    25    24    1
   113    49    48    1
   114    48    45    1
   115    22    23    2
   116    28    29    1
   117    56    55    1
   118    56    57    1
   119    77    76    2
   120    75    76    1
   121    75    74    1
   122    47    46    2
   123    58    57    2
   124    55    52   am
   125    46    45    1
   126    45    44    1
   127    71    70    2
   128    74    70   am
   129    54    51    1
   130    52    53    2
   131    52    51    1
   132    70    69    1
   133    44    36   am
   134    72    69    1
   135    72    73    1
   136    51    50    1
   137    38    35    1
   138    38    39    1
   139    36    37    2
   140    36    35    1
   141    69    68    1
   142    35    34    1
   143    68    63   am
   144    39    41   ar
   145    39    40   ar
   146    41    43   ar
   147    61    62    1
   148    40    42   ar
   149    43    42   ar
   150    63    62    1
   151    63    64    2
   152    62    65    1
   153    66    65    1
   154    65    67    1
