@<TRIPOS>MOLECULE
tmp/3gm6B05.pdb
 211 202 0 0 0
SMALL
GASTEIGER

@<TRIPOS>ATOM
      1  N         14.8510   58.5890  129.9630 N.3    77  ARG77      -0.1245
      2  CA        16.0540   59.1950  129.4050 C.3    77  ARG77       0.1563
      3  C         15.9840   60.6900  129.6950 C.2    77  ARG77       0.2260
      4  O         15.3300   61.4440  128.9460 O.2    77  ARG77      -0.2867
      5  CB        16.1290   58.9520  127.8960 C.3    77  ARG77       0.0307
      6  CG        17.4250   59.4670  127.2760 C.3    77  ARG77       0.0489
      7  CD        17.6300   59.1520  125.7660 C.3    77  ARG77       0.2205
      8  NE        18.9730   59.5360  125.3440 N.pl3  77  ARG77      -0.0865
      9  CZ        19.2840   60.6730  124.7500 C.cat  77  ARG77       0.5346
     10  NH1       18.3550   61.5830  124.4490 N.pl3  77  ARG77       0.1354
     11  NH2       20.5610   60.9070  124.4560 N.pl3  77  ARG77       0.1354
     12  N         16.5970   63.3790  126.9550 N.3    80  SER80      -0.1217
     13  CA        15.5460   63.6460  125.9700 C.3    80  SER80       0.1889
     14  C         14.7020   64.7890  126.5140 C.2    80  SER80       0.2288
     15  O         13.7730   64.5950  127.3200 O.2    80  SER80      -0.2866
     16  CB        14.7070   62.3770  125.6720 C.3    80  SER80       0.2089
     17  OG        15.4010   61.4410  124.8260 O.3    80  SER80      -0.2183
     18  N          9.4740   64.5540  120.8170 N.3   112  PRO112     -0.2116
     19  CA         9.0710   63.4080  121.6330 C.3   112  PRO112      0.1372
     20  C          9.9830   63.2280  122.8210 C.2   112  PRO112      0.2244
     21  O         11.1420   63.6920  122.7710 O.2   112  PRO112     -0.2868
     22  CB         9.2200   62.2410  120.6690 C.3   112  PRO112      0.0268
     23  CG        10.3820   62.6420  119.7680 C.3   112  PRO112      0.0207
     24  CD        10.1150   64.1250  119.5450 C.3   112  PRO112      0.0892
     25  N         10.6280   46.0090  112.4230 N.3   289  ASN289     -0.1240
     26  CA        10.1920   47.0700  111.4890 C.3   289  ASN289      0.1653
     27  C          8.6550   47.2020  111.4860 C.2   289  ASN289      0.2266
     28  O          8.1090   48.3070  111.4640 O.2   289  ASN289     -0.2867
     29  CB        10.6600   46.8470  110.0570 C.3   289  ASN289      0.1155
     30  CG        12.1660   47.0230  109.8670 C.2   289  ASN289      0.2627
     31  OD1       12.8060   47.8440  110.5520 O.2   289  ASN289     -0.2716
     32  ND2       12.7230   46.3140  108.8850 N.am  289  ASN289     -0.0877
     33  N          7.1050   48.2820  115.1940 N.3   292  CYS292     -0.1235
     34  CA         7.2450   49.7340  115.4350 C.3   292  CYS292      0.1677
     35  C          6.3230   50.5690  114.5070 C.2   292  CYS292      0.2270
     36  O          5.8910   51.6740  114.8760 O.2   292  CYS292     -0.2867
     37  CB         8.7040   50.1910  115.3130 C.3   292  CYS292      0.0956
     38  SG         9.9490   49.3150  116.2590 S.3   292  CYS292     -0.0801
     39  N          4.8190   54.4660  114.4110 N.3   296  HIS296     -0.1241
     40  CA         5.7890   55.3760  113.7890 C.3   296  HIS296      0.1621
     41  C          5.5540   55.4410  112.2480 C.2   296  HIS296      0.2264
     42  O          6.4150   55.0620  111.4340 O.2   296  HIS296     -0.2867
     43  CB         7.2090   54.9750  114.2290 C.3   296  HIS296      0.0745
     44  CG         7.5260   55.3030  115.6770 C.ar  296  HIS296      0.0817
     45  ND1        8.1600   56.4710  116.0460 N.ar  296  HIS296     -0.2268
     46  CD2        7.3260   54.6160  116.8440 C.ar  296  HIS296      0.1154
     47  CE1        8.3170   56.4990  117.3700 C.ar  296  HIS296      0.1986
     48  NE2        7.8430   55.3780  117.8870 N.ar  296  HIS296     -0.2212
     49  N          8.4620   57.4220  110.0550 N.3   359  GLU359     -0.1231
     50  CA         9.7370   56.6830  110.1350 C.3   359  GLU359      0.1699
     51  C          9.7250   55.3440  109.3390 C.2   359  GLU359      0.2592
     52  O         10.6710   55.0390  108.5960 O.2   359  GLU359     -0.2718
     53  CB        10.1520   56.4430  111.5900 C.3   359  GLU359      0.0402
     54  CG        10.6710   57.7140  112.3240 C.3   359  GLU359      0.1161
     55  CD         9.5600   58.5710  112.9210 C.2   359  GLU359      0.3649
     56  OE1        8.6690   57.9920  113.6020 O.co2 359  GLU359     -0.2457
     57  OE2        9.6070   59.8290  112.7670 O.co2 359  GLU359     -0.2457
     58  N          8.6420   54.5900  109.4400 N.am  360  ALA360     -0.1980
     59  CA         8.5730   53.2740  108.7910 C.3   360  ALA360      0.1597
     60  C          8.6250   53.4280  107.2430 C.2   360  ALA360      0.2287
     61  O          9.3900   52.7420  106.5430 O.2   360  ALA360     -0.2864
     62  CB         7.2660   52.5360  109.2350 C.3   360  ALA360      0.0319
     63  N         12.1050   54.6300  106.0260 N.3   363  PHE363     -0.1241
     64  CA        13.1200   53.5570  106.0920 C.3   363  PHE363      0.1605
     65  C         13.1340   52.6110  104.8720 C.2   363  PHE363      0.2264
     66  O         14.2010   52.1620  104.4380 O.2   363  PHE363     -0.2867
     67  CB        12.9280   52.7680  107.4170 C.3   363  PHE363      0.0534
     68  CG        14.0530   51.8430  107.7600 C.ar  363  PHE363     -0.0203
     69  CD1       15.3550   52.3100  107.8290 C.ar  363  PHE363     -0.0042
     70  CD2       13.8050   50.5070  108.0570 C.ar  363  PHE363     -0.0042
     71  CE1       16.4110   51.4810  108.1960 C.ar  363  PHE363     -0.0003
     72  CE2       14.8590   49.6360  108.3830 C.ar  363  PHE363     -0.0003
     73  CZ        16.1710   50.1230  108.4540 C.ar  363  PHE363     -0.0000
     74  N         20.3210   50.6740  104.8540 N.3   368  HIS368     -0.1241
     75  CA        20.2190   49.7480  105.9920 C.3   368  HIS368      0.1621
     76  C         19.0440   48.7600  105.7950 C.2   368  HIS368      0.2264
     77  O         19.2260   47.5300  105.9840 O.2   368  HIS368     -0.2867
     78  CB        20.1670   50.4750  107.3540 C.3   368  HIS368      0.0745
     79  CG        21.4910   51.0540  107.8010 C.ar  368  HIS368      0.0817
     80  ND1       21.7350   52.4120  107.7920 N.ar  368  HIS368     -0.2268
     81  CD2       22.6380   50.4680  108.2620 C.ar  368  HIS368      0.1154
     82  CE1       22.9770   52.6350  108.2180 C.ar  368  HIS368      0.1986
     83  NE2       23.5520   51.4740  108.5180 N.ar  368  HIS368     -0.2212
     84  N         18.6570   45.2270  107.9740 N.3   373  VAL373     -0.1231
     85  CA        18.7260   45.8600  109.3090 C.3   373  VAL373      0.1692
     86  C         17.3220   46.3390  109.6940 C.2   373  VAL373      0.2592
     87  O         16.5310   46.6430  108.8140 O.2   373  VAL373     -0.2718
     88  CB        19.7440   47.0220  109.3090 C.3   373  VAL373      0.0266
     89  CG1       19.9250   47.6070  110.7450 C.3   373  VAL373      0.0020
     90  CG2       21.0910   46.5380  108.7680 C.3   373  VAL373      0.0020
     91  N         16.9830   46.3420  110.9850 N.am  374  ALA374     -0.1966
     92  CA        15.6480   46.7220  111.4590 C.3   374  ALA374      0.1728
     93  C         15.7090   47.7100  112.6430 C.2   374  ALA374      0.2616
     94  O         16.7840   47.8810  113.2500 O.2   374  ALA374     -0.2715
     95  CB        14.8810   45.4540  111.8870 C.3   374  ALA374      0.0334
     96  N         14.5720   48.3350  112.9840 N.am  375  CYS375     -0.1968
     97  CA        14.5500   49.4040  114.0110 C.3   375  CYS375      0.1712
     98  C         15.2610   48.9340  115.2850 C.2   375  CYS375      0.2296
     99  O         16.0600   49.6860  115.8660 O.2   375  CYS375     -0.2864
    100  CB        13.1390   49.8720  114.4010 C.3   375  CYS375      0.0983
    101  SG        11.8480   50.0790  113.1210 S.3   375  CYS375     -0.0798
    102  N         19.1650   49.2850  116.0250 N.3   378  CYS378     -0.1221
    103  CA        19.7510   50.5650  116.3890 C.3   378  CYS378      0.1808
    104  C         19.1350   51.1900  117.6420 C.2   378  CYS378      0.2601
    105  O         19.7460   52.0970  118.2370 O.2   378  CYS378     -0.2717
    106  CB        19.6570   51.5300  115.1920 C.3   378  CYS378      0.0970
    107  SG        20.5880   50.9990  113.6960 S.3   378  CYS378     -0.0800
    108  N         17.9120   50.7700  118.0060 N.am  379  HIS379     -0.1975
    109  CA        17.1500   51.4600  119.0450 C.3   379  HIS379      0.1656
    110  C         16.7500   50.5640  120.2620 C.2   379  HIS379      0.2291
    111  O         16.2880   51.0890  121.2900 O.2   379  HIS379     -0.2864
    112  CB        15.9030   52.0830  118.4060 C.3   379  HIS379      0.0771
    113  CG        16.1600   53.2160  117.4450 C.ar  379  HIS379      0.0820
    114  ND1       16.6550   54.4380  117.8340 N.ar  379  HIS379     -0.2267
    115  CD2       15.8940   53.3400  116.1120 C.ar  379  HIS379      0.1154
    116  CE1       16.7130   55.2540  116.7750 C.ar  379  HIS379      0.1986
    117  NE2       16.2430   54.6220  115.7150 N.ar  379  HIS379     -0.2212
    118  N         15.4230   54.0990  122.3410 N.3   397  ARG397     -0.1231
    119  CA        16.0610   55.4100  122.4030 C.3   397  ARG397      0.1694
    120  C         17.1550   55.5520  121.3310 C.2   397  ARG397      0.2593
    121  O         17.4780   54.5770  120.5900 O.2   397  ARG397     -0.2718
    122  CB        16.6690   55.6350  123.8140 C.3   397  ARG397      0.0321
    123  CG        17.8580   54.7470  124.1530 C.3   397  ARG397      0.0489
    124  CD        18.6170   55.1540  125.4520 C.3   397  ARG397      0.2205
    125  NE        17.8550   54.8940  126.6610 N.pl3 397  ARG397     -0.0865
    126  CZ        18.1250   55.3820  127.8810 C.cat 397  ARG397      0.5346
    127  NH1       19.1000   56.2630  128.1020 N.pl3 397  ARG397      0.1354
    128  NH2       17.3430   55.0380  128.8890 N.pl3 397  ARG397      0.1354
    129  N         17.7340   56.7420  121.2600 N.am  398  THR398     -0.1940
    130  CA        18.7640   57.0310  120.2540 C.3   398  THR398      0.2013
    131  C         19.9760   56.1100  120.4430 C.2   398  THR398      0.2484
    132  O         20.3440   55.8390  121.5800 O.2   398  THR398     -0.2729
    133  CB        19.2510   58.5080  120.3360 C.3   398  THR398      0.1807
    134  OG1       20.4360   58.6400  119.5350 O.3   398  THR398     -0.2208
    135  CG2       19.5650   58.9060  121.8060 C.3   398  THR398      0.0379
    136  N         20.5850   55.6100  119.3480 N.am  399  PRO399     -0.2715
    137  CA        21.8060   54.7930  119.5000 C.3   399  PRO399      0.1536
    138  C         22.9920   55.5300  120.1220 C.2   399  PRO399      0.2598
    139  O         23.9830   54.8900  120.5250 O.2   399  PRO399     -0.2715
    140  CB        22.1440   54.3710  118.0690 C.3   399  PRO399      0.0310
    141  CG        21.5910   55.4510  117.2310 C.3   399  PRO399      0.0237
    142  CD        20.2510   55.8010  117.9300 C.3   399  PRO399      0.0939
    143  N         22.9390   56.8570  120.1970 N.am  400  ARG400     -0.1978
    144  CA        24.0230   57.5980  120.8810 C.3   400  ARG400      0.1597
    145  C         24.3480   57.1190  122.3010 C.2   400  ARG400      0.2287
    146  O         25.4950   57.2010  122.7530 O.2   400  ARG400     -0.2864
    147  CB        23.7180   59.0970  120.9040 C.3   400  ARG400      0.0334
    148  CG        23.8640   59.7750  119.5770 C.3   400  ARG400      0.0492
    149  CD        23.7070   61.3090  119.7080 C.3   400  ARG400      0.2205
    150  NE        23.3820   61.9190  118.4240 N.pl3 400  ARG400     -0.0865
    151  CZ        24.2060   62.5700  117.6090 C.cat 400  ARG400      0.5346
    152  NH1       25.5050   62.8090  117.8880 N.pl3 400  ARG400      0.1354
    153  NH2       23.7150   63.0100  116.4700 N.pl3 400  ARG400      0.1354
    154  N         25.7730   50.0200  116.8080 N.3   407  CYS407     -0.1235
    155  CA        26.4410   50.5870  115.6530 C.3   407  CYS407      0.1677
    156  C         27.7770   49.9230  115.3560 C.2   407  CYS407      0.2270
    157  O         28.0450   49.4600  114.2400 O.2   407  CYS407     -0.2867
    158  CB        26.7490   52.0310  115.9950 C.3   407  CYS407      0.0956
    159  SG        25.4620   53.1860  115.7540 S.3   407  CYS407     -0.0801
    160  N         26.8560   60.3970  111.4690 N.3   423  ILE423     -0.1245
    161  CA        25.4390   60.7590  111.7570 C.3   423  ILE423      0.1561
    162  C         25.2890   62.2690  111.5880 C.2   423  ILE423      0.2260
    163  O         24.3580   62.7380  110.9310 O.2   423  ILE423     -0.2867
    164  CB        24.9940   60.4010  113.2100 C.3   423  ILE423      0.0252
    165  CG1       25.0320   58.8870  113.4620 C.3   423  ILE423      0.0019
    166  CG2       23.5480   60.9570  113.5020 C.3   423  ILE423      0.0019
    167  CD1       24.7840   58.4930  114.9330 C.3   423  ILE423      0.0001
    168  N         22.6360   64.6950  109.3530 N.3   427  LYS427     -0.1245
    169  CA        21.6710   65.5520  110.0420 C.3   427  LYS427      0.1561
    170  C         21.9270   67.0220  109.7450 C.2   427  LYS427      0.2260
    171  O         20.9820   67.7620  109.5160 O.2   427  LYS427     -0.2867
    172  CB        21.6700   65.2830  111.5510 C.3   427  LYS427      0.0271
    173  CG        21.2290   63.8590  111.9550 C.3   427  LYS427      0.0035
    174  CD        21.1290   63.7060  113.4880 C.3   427  LYS427      0.0206
    175  CE        19.7600   64.1640  114.0160 C.3   427  LYS427      0.1093
    176  NZ        19.6440   64.0660  115.5330 N.3   427  LYS427     -0.1314
    177  N         11.5370   61.8360  112.4300 N.3   482  ASN482     -0.1225
    178  CA        12.3630   62.1020  113.5880 C.3   482  ASN482      0.1785
    179  C         13.8850   61.9490  113.4610 C.2   482  ASN482      0.2597
    180  O         14.6110   62.2710  114.4220 O.2   482  ASN482     -0.2718
    181  CB        11.8560   61.2960  114.7870 C.3   482  ASN482      0.1169
    182  CG        10.6310   61.9470  115.4550 C.2   482  ASN482      0.2627
    183  OD1       10.7700   62.8460  116.3450 O.2   482  ASN482     -0.2716
    184  ND2        9.4240   61.4930  115.0490 N.am  482  ASN482     -0.0877
    185  N         14.3700   61.4690  112.3190 N.am  483  SER483     -0.1952
    186  CA        15.8020   61.1540  112.1490 C.3   483  SER483      0.1924
    187  C         16.6380   62.2740  111.5390 C.2   483  SER483      0.2314
    188  O         17.8680   62.1380  111.4110 O.2   483  SER483     -0.2863
    189  CB        15.9650   59.8580  111.3390 C.3   483  SER483      0.2116
    190  OG        15.7610   60.0370  109.9360 O.3   483  SER483     -0.2180
    191  N         18.5810   60.8730  108.6510 N.3   486  PHE486     -0.1227
    192  CA        19.4360   59.7000  108.8190 C.3   486  PHE486      0.1736
    193  C         18.8390   58.4070  108.2370 C.2   486  PHE486      0.2595
    194  O         19.5680   57.6130  107.6460 O.2   486  PHE486     -0.2718
    195  CB        19.8730   59.4480  110.2820 C.3   486  PHE486      0.0547
    196  CG        20.8650   58.3200  110.4040 C.ar  486  PHE486     -0.0202
    197  CD1       22.2120   58.5350  110.2280 C.ar  486  PHE486     -0.0042
    198  CD2       20.4360   57.0180  110.5960 C.ar  486  PHE486     -0.0042
    199  CE1       23.1270   57.4740  110.2950 C.ar  486  PHE486     -0.0003
    200  CE2       21.3110   55.9750  110.6210 C.ar  486  PHE486     -0.0003
    201  CZ        22.6650   56.1810  110.4850 C.ar  486  PHE486     -0.0000
    202  N         17.5290   58.1890  108.4020 N.am  487  HIS487     -0.1975
    203  CA        16.9110   56.9310  107.9960 C.3   487  HIS487      0.1656
    204  C         16.9650   56.7550  106.4540 C.2   487  HIS487      0.2291
    205  O         16.8880   55.6230  105.9770 O.2   487  HIS487     -0.2864
    206  CB        15.4710   56.8730  108.5200 C.3   487  HIS487      0.0771
    207  CG        15.3340   56.7040  110.0110 C.ar  487  HIS487      0.0820
    208  ND1       14.1900   57.0810  110.6680 N.ar  487  HIS487     -0.2267
    209  CD2       16.1510   56.1670  110.9670 C.ar  487  HIS487      0.1154
    210  CE1       14.2990   56.7940  111.9610 C.ar  487  HIS487      0.1986
    211  NE2       15.4840   56.2250  112.1820 N.ar  487  HIS487     -0.2212
@<TRIPOS>BOND
     1    66    65    2
     2    74    75    1
     3    65    64    1
     4    76    77    2
     5    76    75    1
     6   205   204    2
     7    75    78    1
     8    63    64    1
     9    64    67    1
    10   204   203    1
    11    61    60    2
    12    60    59    1
    13    78    79    1
    14    67    68    1
    15   194   193    2
    16    68    69   ar
    17    68    70   ar
    18    80    79   ar
    19    80    82   ar
    20    79    81   ar
    21    69    71   ar
    22    84    85    1
    23   203   202    1
    24   203   206    1
    25    70    72   ar
    26    71    73   ar
    27    82    83   ar
    28   193   202   am
    29   193   192    1
    30    81    83   ar
    31    72    73   ar
    32   206   207    1
    33    52    51    2
    34   191   192    1
    35    90    88    1
    36    59    62    1
    37    59    58    1
    38    87    86    2
    39   192   195    1
    40    32    30   am
    41    88    85    1
    42    88    89    1
    43    85    86    1
    44    51    58   am
    45    51    50    1
    46   168   169    1
    47   171   170    2
    48    86    91   am
    49   170   169    1
    50    30    29    1
    51    30    31    2
    52   190   189    1
    53   207   208   ar
    54   207   209   ar
    55   169   172    1
    56    49    50    1
    57    29    26    1
    58    50    53    1
    59   197   199   ar
    60   197   196   ar
    61   195   196    1
    62   199   201   ar
    63   196   198   ar
    64   201   200   ar
    65   198   200   ar
    66   208   210   ar
    67   163   162    2
    68   209   211   ar
    69    91    92    1
    70   189   186    1
    71   188   187    2
    72    42    41    2
    73    92    95    1
    74    92    93    1
    75    28    27    2
    76   160   161    1
    77    27    26    1
    78    26    25    1
    79   187   186    1
    80   172   173    1
    81   162   161    1
    82    53    54    1
    83   161   164    1
    84   173   174    1
    85   210   211   ar
    86   186   185    1
    87    41    40    1
    88   185   179   am
    89    54    55    1
    90   177   178    1
    91    93    96   am
    92    93    94    2
    93    57    55   ar
    94    55    56   ar
    95    96    97    1
    96   101   100    1
    97   164   165    1
    98   164   166    1
    99   179   178    1
   100   179   180    2
   101   165   167    1
   102   174   175    1
   103   178   181    1
   104   107   106    1
   105    40    43    1
   106    40    39    1
   107    97   100    1
   108    97    98    1
   109   175   176    1
   110    43    44    1
   111   157   156    2
   112    35    36    2
   113    35    34    1
   114   181   182    1
   115   184   182   am
   116   106   103    1
   117    33    34    1
   118    98    99    2
   119    37    34    1
   120    37    38    1
   121   156   155    1
   122   182   183    2
   123   155   158    1
   124   155   154    1
   125    44    45   ar
   126    44    46   ar
   127   117   115   ar
   128   117   116   ar
   129   159   158    1
   130   102   103    1
   131    45    47   ar
   132   115   113   ar
   133   103   104    1
   134   153   151    1
   135   116   114   ar
   136    46    48   ar
   137   141   142    1
   138   141   140    1
   139    47    48   ar
   140   113   114   ar
   141   113   112    1
   142   151   152    1
   143   151   150    2
   144   104   108   am
   145   104   105    2
   146   142   136    1
   147   108   109    1
   148   140   137    1
   149   112   109    1
   150   150   149    1
   151   109   110    1
   152   136   137    1
   153   136   131   am
   154   137   138    1
   155   134   133    1
   156    24    23    1
   157    24    18    1
   158   148   149    1
   159   148   147    1
   160    23    22    1
   161   138   143   am
   162   138   139    2
   163   143   144    1
   164   130   133    1
   165   130   131    1
   166   130   129    1
   167   110   111    2
   168   133   135    1
   169   131   132    2
   170   121   120    2
   171    22    19    1
   172    18    19    1
   173   144   147    1
   174   144   145    1
   175   129   120   am
   176   120   119    1
   177    19    20    1
   178   145   146    2
   179   118   119    1
   180   119   122    1
   181    21    20    2
   182   122   123    1
   183   123   124    1
   184    10     9    1
   185    11     9    1
   186     9     8    2
   187    17    16    1
   188     8     7    1
   189   124   125    1
   190    16    13    1
   191     7     6    1
   192    13    14    1
   193    13    12    1
   194    14    15    2
   195   125   126    2
   196     6     5    1
   197   126   127    1
   198   126   128    1
   199     5     2    1
   200     4     3    2
   201     2     3    1
   202     2     1    1
