@<TRIPOS>MOLECULE
tmp/3gm6B09.pdb
 207 199 0 0 0
SMALL
GASTEIGER

@<TRIPOS>ATOM
      1  N         -6.3460   28.1680  137.9390 N.3     5  VAL5       -0.1231
      2  CA        -7.6480   27.6540  137.4780 C.3     5  VAL5        0.1692
      3  C         -7.4510   26.5440  136.4560 C.2     5  VAL5        0.2592
      4  O         -6.3700   26.3810  135.8900 O.2     5  VAL5       -0.2718
      5  CB        -8.5510   28.7650  136.8380 C.3     5  VAL5        0.0266
      6  CG1       -8.7770   29.9190  137.8020 C.3     5  VAL5        0.0020
      7  CG2       -7.9660   29.2590  135.5370 C.3     5  VAL5        0.0020
      8  N         -8.5080   25.7620  136.2350 N.am    6  ASP6       -0.1974
      9  CA        -8.4850   24.6640  135.2890 C.3     6  ASP6        0.1709
     10  C         -8.6220   25.1740  133.8480 C.2     6  ASP6        0.2293
     11  O         -9.7320   25.4690  133.4020 O.2     6  ASP6       -0.2864
     12  CB        -9.6650   23.7260  135.6100 C.3     6  ASP6        0.1436
     13  CG        -9.7170   22.5170  134.7280 C.2     6  ASP6        0.3671
     14  OD1       -8.8820   22.3520  133.8060 O.co2   6  ASP6       -0.2456
     15  OD2      -10.6400   21.7100  134.9660 O.co2   6  ASP6       -0.2456
     16  N        -11.2280   23.6050  131.2740 N.3     9  GLN9       -0.1231
     17  CA       -12.5840   24.1070  131.3480 C.3     9  GLN9        0.1698
     18  C        -12.7790   25.3290  130.4230 C.2     9  GLN9        0.2592
     19  O        -13.8060   25.4530  129.7590 O.2     9  GLN9       -0.2718
     20  CB       -12.9060   24.4440  132.8000 C.3     9  GLN9        0.0381
     21  CG       -14.3550   24.6880  133.1060 C.3     9  GLN9        0.0905
     22  CD       -14.5890   24.8480  134.6070 C.2     9  GLN9        0.2608
     23  OE1      -13.7540   25.4000  135.3280 O.2     9  GLN9       -0.2717
     24  NE2      -15.7320   24.3730  135.0800 N.am    9  GLN9       -0.0878
     25  N        -11.7830   26.2190  130.3600 N.am   10  CYS10      -0.1970
     26  CA       -11.8620   27.3750  129.4700 C.3    10  CYS10       0.1712
     27  C        -11.7950   26.9350  128.0120 C.2    10  CYS10       0.2296
     28  O        -12.5100   27.4730  127.1590 O.2    10  CYS10      -0.2864
     29  CB       -10.6920   28.3570  129.7270 C.3    10  CYS10       0.0983
     30  SG       -10.3760   28.8320  131.4520 S.3    10  CYS10      -0.0798
     31  N        -12.7570   24.3360  126.5050 N.3    12  ASP12      -0.1225
     32  CA       -14.0220   23.7900  125.9890 C.3    12  ASP12       0.1805
     33  C        -14.7610   24.7930  125.1010 C.2    12  ASP12       0.2598
     34  O        -15.3350   24.3980  124.0790 O.2    12  ASP12      -0.2718
     35  CB       -14.9380   23.3380  127.1340 C.3    12  ASP12       0.1424
     36  CG       -15.9900   22.3410  126.6790 C.2    12  ASP12       0.3668
     37  OD1      -15.6110   21.2260  126.2730 O.co2  12  ASP12      -0.2456
     38  OD2      -17.1880   22.6670  126.7330 O.co2  12  ASP12      -0.2456
     39  N        -14.7380   26.0780  125.4650 N.am   13  CYS13      -0.1956
     40  CA       -15.4030   27.1210  124.6980 C.3    13  CYS13       0.1843
     41  C        -14.4620   28.0320  123.8980 C.2    13  CYS13       0.2625
     42  O        -14.9430   28.8640  123.1200 O.2    13  CYS13      -0.2714
     43  CB       -16.1840   28.0250  125.6350 C.3    13  CYS13       0.0997
     44  SG       -17.5450   27.2360  126.6010 S.3    13  CYS13      -0.0797
     45  N        -13.1570   27.9490  124.1450 N.am   14  HIS14      -0.1973
     46  CA       -12.1930   28.9070  123.5910 C.3    14  HIS14       0.1656
     47  C        -11.1140   28.1440  122.7690 C.2    14  HIS14       0.2291
     48  O         -9.9070   28.0750  123.1180 O.2    14  HIS14      -0.2864
     49  CB       -11.6040   29.7780  124.7430 C.3    14  HIS14       0.0771
     50  CG       -12.5620   30.7610  125.3740 C.ar   14  HIS14       0.0820
     51  ND1      -13.1370   31.8030  124.6800 N.ar   14  HIS14      -0.2267
     52  CD2      -12.9610   30.9230  126.6650 C.ar   14  HIS14       0.1154
     53  CE1      -13.8710   32.5410  125.5010 C.ar   14  HIS14       0.1986
     54  NE2      -13.7900   32.0340  126.7260 N.ar   14  HIS14      -0.2212
     55  N         -4.0340   30.9380  133.3860 N.3    31  CYS31      -0.1235
     56  CA        -4.9150   32.0640  133.0530 C.3    31  CYS31       0.1677
     57  C         -5.0570   33.0910  134.2050 C.2    31  CYS31       0.2270
     58  O         -5.3380   34.2920  133.9560 O.2    31  CYS31      -0.2867
     59  CB        -6.3060   31.5520  132.5890 C.3    31  CYS31       0.0956
     60  SG        -6.2730   30.0550  131.5830 S.3    31  CYS31      -0.0801
     61  N         -6.4160   36.9820  134.0270 N.3    35  HIS35      -0.1241
     62  CA        -7.8930   36.9810  133.9820 C.3    35  HIS35       0.1621
     63  C         -8.5090   36.5460  135.3460 C.2    35  HIS35       0.2264
     64  O         -7.9760   35.6190  135.9980 O.2    35  HIS35      -0.2867
     65  CB        -8.3840   36.0280  132.8840 C.3    35  HIS35       0.0745
     66  CG        -7.8960   36.3160  131.4800 C.ar   35  HIS35       0.0817
     67  ND1       -8.3230   37.4020  130.7370 N.ar   35  HIS35      -0.2268
     68  CD2       -7.0940   35.5970  130.6520 C.ar   35  HIS35       0.1154
     69  CE1       -7.7730   37.3500  129.5290 C.ar   35  HIS35       0.1986
     70  NE2       -7.0150   36.2580  129.4400 N.ar   35  HIS35      -0.2212
     71  N        -12.0800   35.0170  136.1240 N.3    37  ALA37      -0.1245
     72  CA       -13.1720   34.5120  135.2690 C.3    37  ALA37       0.1562
     73  C        -14.1480   33.5790  136.0010 C.2    37  ALA37       0.2260
     74  O        -14.9310   32.8630  135.3670 O.2    37  ALA37      -0.2867
     75  CB       -12.5790   33.8140  134.0380 C.3    37  ALA37       0.0290
     76  N        -17.7670   34.3890  135.2240 N.3    40  HIS40      -0.1226
     77  CA       -17.8770   34.1060  133.7730 C.3    40  HIS40       0.1752
     78  C        -18.0990   32.6200  133.5330 C.2    40  HIS40       0.2595
     79  O        -19.0090   32.2420  132.7900 O.2    40  HIS40      -0.2718
     80  CB       -16.6110   34.6360  133.0270 C.3    40  HIS40       0.0759
     81  CG       -16.4950   34.2570  131.5690 C.ar   40  HIS40       0.0818
     82  ND1      -17.4590   34.5590  130.6320 N.ar   40  HIS40      -0.2268
     83  CD2      -15.4690   33.6860  130.8750 C.ar   40  HIS40       0.1154
     84  CE1      -17.0470   34.1540  129.4330 C.ar   40  HIS40       0.1986
     85  NE2      -15.8330   33.6180  129.5460 N.ar   40  HIS40      -0.2212
     86  N        -17.3120   31.7650  134.1800 N.am   41  VAL41      -0.1980
     87  CA       -17.4020   30.3240  133.9250 C.3    41  VAL41       0.1595
     88  C        -18.7690   29.8090  134.3850 C.2    41  VAL41       0.2287
     89  O        -19.3280   28.9010  133.7780 O.2    41  VAL41      -0.2864
     90  CB       -16.2820   29.5390  134.6340 C.3    41  VAL41       0.0276
     91  CG1      -16.5390   28.0320  134.5880 C.3    41  VAL41       0.0022
     92  CG2      -14.9280   29.8310  133.9900 C.3    41  VAL41       0.0022
     93  N        -21.5890   31.7080  131.4690 N.3    44  ALA44      -0.1231
     94  CA       -21.4500   31.7450  130.0160 C.3    44  ALA44       0.1694
     95  C        -22.0810   30.5200  129.3710 C.2    44  ALA44       0.2593
     96  O        -22.2380   29.4920  130.0230 O.2    44  ALA44      -0.2718
     97  CB       -19.9650   31.8040  129.6380 C.3    44  ALA44       0.0304
     98  N        -22.4070   30.6260  128.0840 N.am   45  SER45      -0.1938
     99  CA       -22.6900   29.4610  127.2580 C.3    45  SER45       0.2055
    100  C        -21.6590   29.4200  126.1340 C.2    45  SER45       0.2644
    101  O        -20.7980   30.3070  126.0410 O.2    45  SER45      -0.2714
    102  CB       -24.1030   29.5440  126.6810 C.3    45  SER45       0.2130
    103  OG       -24.1730   30.5340  125.6580 O.3    45  SER45      -0.2179
    104  N        -21.7410   28.4080  125.2780 N.am   46  SER46      -0.1935
    105  CA       -20.7990   28.2930  124.1690 C.3    46  SER46       0.2055
    106  C        -20.8730   29.4960  123.2340 C.2    46  SER46       0.2643
    107  O        -19.8940   29.7790  122.5510 O.2    46  SER46      -0.2714
    108  CB       -20.9820   26.9910  123.3790 C.3    46  SER46       0.2130
    109  OG       -21.9830   27.1360  122.3930 O.3    46  SER46      -0.2179
    110  N        -21.9990   30.2080  123.1980 N.am   47  ARG47      -0.1963
    111  CA       -22.1110   31.3580  122.2930 C.3    47  ARG47       0.1729
    112  C        -22.4090   32.6950  122.9670 C.2    47  ARG47       0.2616
    113  O        -22.3460   33.7140  122.3000 O.2    47  ARG47      -0.2715
    114  CB       -23.1190   31.0590  121.1550 C.3    47  ARG47       0.0348
    115  CG       -24.5400   31.6000  121.3550 C.3    47  ARG47       0.0492
    116  CD       -25.5710   31.0310  120.3100 C.3    47  ARG47       0.2205
    117  NE       -25.2480   29.6630  119.8610 N.pl3  47  ARG47      -0.0865
    118  CZ       -24.6950   29.3480  118.6850 C.cat  47  ARG47       0.5346
    119  NH1      -24.4050   30.2930  117.7760 N.pl3  47  ARG47       0.1354
    120  NH2      -24.4340   28.0700  118.4070 N.pl3  47  ARG47       0.1354
    121  N        -22.7230   32.7050  124.2640 N.am   48  ARG48      -0.1963
    122  CA       -23.0070   33.9360  124.9870 C.3    48  ARG48       0.1729
    123  C        -22.0310   34.1160  126.1720 C.2    48  ARG48       0.2616
    124  O        -21.6970   33.1550  126.8880 O.2    48  ARG48      -0.2715
    125  CB       -24.4490   33.9600  125.4940 C.3    48  ARG48       0.0348
    126  CG       -25.5360   33.6480  124.4110 C.3    48  ARG48       0.0492
    127  CD       -25.5190   34.5730  123.1750 C.3    48  ARG48       0.2205
    128  NE       -26.5030   34.1290  122.1620 N.pl3  48  ARG48      -0.0865
    129  CZ       -26.6930   34.6850  120.9620 C.cat  48  ARG48       0.5346
    130  NH1      -25.9680   35.7350  120.5590 N.pl3  48  ARG48       0.1354
    131  NH2      -27.6280   34.1760  120.1460 N.pl3  48  ARG48       0.1354
    132  N        -21.6070   35.3580  126.3860 N.am   49  MET49      -0.1977
    133  CA       -20.5110   35.6320  127.3210 C.3    49  MET49       0.1605
    134  C        -20.9110   35.4550  128.7800 C.2    49  MET49       0.2287
    135  O        -20.0820   35.0820  129.6070 O.2    49  MET49      -0.2864
    136  CB       -19.9700   37.0480  127.1340 C.3    49  MET49       0.0413
    137  CG       -18.6110   37.2900  127.8520 C.3    49  MET49       0.0598
    138  SD       -18.2220   39.0240  127.8490 S.3    49  MET49      -0.1393
    139  CE       -17.6240   39.1910  126.1460 C.3    49  MET49       0.0692
    140  N        -19.0570   39.2310  132.4820 N.3    52  ARG52      -0.1231
    141  CA       -17.8260   39.5550  131.7780 C.3    52  ARG52       0.1679
    142  C        -16.6250   39.3000  132.6840 C.2    52  ARG52       0.2434
    143  O        -16.6090   39.8000  133.7980 O.2    52  ARG52      -0.2733
    144  CB       -17.8730   41.0100  131.3810 C.3    52  ARG52       0.0321
    145  CG       -16.6520   41.4740  130.6520 C.3    52  ARG52       0.0489
    146  CD       -16.8180   42.8860  130.1040 C.3    52  ARG52       0.2205
    147  NE       -15.7300   43.1170  129.1660 N.pl3  52  ARG52      -0.0865
    148  CZ       -15.5000   44.2610  128.5350 C.cat  52  ARG52       0.5346
    149  NH1      -16.2610   45.3330  128.7620 N.pl3  52  ARG52       0.1354
    150  NH2      -14.4640   44.3340  127.7050 N.pl3  52  ARG52       0.1354
    151  N        -15.6390   38.5160  132.2280 N.am   53  PRO53      -0.2729
    152  CA       -14.4570   38.3030  133.0840 C.3    53  PRO53       0.1401
    153  C        -13.5830   39.5470  133.1240 C.2    53  PRO53       0.2269
    154  O        -13.7030   40.3910  132.2340 O.2    53  PRO53      -0.2865
    155  CB       -13.7290   37.1620  132.4090 C.3    53  PRO53       0.0296
    156  CG       -14.1060   37.2760  130.9370 C.3    53  PRO53       0.0237
    157  CD       -15.5340   37.7910  130.9520 C.3    53  PRO53       0.0939
    158  N        -10.0020   41.3820  132.7390 N.3    55  THR55      -0.1218
    159  CA        -8.7340   41.0890  132.0680 C.3    55  THR55       0.1862
    160  C         -7.7020   42.1690  132.4630 C.2    55  THR55       0.2287
    161  O         -7.9850   43.3560  132.3370 O.2    55  THR55      -0.2866
    162  CB        -8.9200   41.0250  130.5200 C.3    55  THR55       0.1770
    163  OG1       -9.7860   39.9360  130.1620 O.3    55  THR55      -0.2211
    164  CG2       -7.5660   40.8340  129.8080 C.3    55  THR55       0.0375
    165  N        -10.3340   45.1070  124.0740 N.3   190  LEU190     -0.1245
    166  CA       -11.5820   44.2990  124.0960 C.3   190  LEU190      0.1561
    167  C        -12.8900   45.1180  124.0190 C.2   190  LEU190      0.2260
    168  O        -13.9940   44.5350  124.0390 O.2   190  LEU190     -0.2867
    169  CB       -11.5740   43.3880  125.3310 C.3   190  LEU190      0.0270
    170  CG       -10.4280   42.3710  125.4840 C.3   190  LEU190      0.0019
    171  CD1      -10.5360   41.5300  126.8080 C.3   190  LEU190      0.0001
    172  CD2      -10.3080   41.4330  124.2550 C.3   190  LEU190      0.0001
    173  N        -14.6070   36.8180  117.4030 N.3   271  GLN271     -0.1231
    174  CA       -16.0220   37.1910  117.2460 C.3   271  GLN271      0.1698
    175  C        -16.7720   37.4590  118.5380 C.2   271  GLN271      0.2592
    176  O        -16.3400   37.0100  119.6070 O.2   271  GLN271     -0.2718
    177  CB       -16.7540   36.0740  116.4900 C.3   271  GLN271      0.0381
    178  CG       -16.1480   35.8050  115.1260 C.3   271  GLN271      0.0905
    179  CD       -17.0150   34.8890  114.2780 C.2   271  GLN271      0.2608
    180  OE1      -17.4020   33.8080  114.7180 O.2   271  GLN271     -0.2717
    181  NE2      -17.3020   35.3120  113.0550 N.am  271  GLN271     -0.0878
    182  N        -17.9070   38.1760  118.4180 N.am  272  ARG272     -0.1966
    183  CA       -18.8790   38.4030  119.5040 C.3   272  ARG272      0.1729
    184  C        -20.2600   38.0770  118.9130 C.2   272  ARG272      0.2617
    185  O        -20.6710   38.7160  117.9400 O.2   272  ARG272     -0.2715
    186  CB       -18.8790   39.8520  119.9820 C.3   272  ARG272      0.0348
    187  CG       -17.5090   40.3230  120.5540 C.3   272  ARG272      0.0492
    188  CD       -17.2760   39.7090  121.9320 C.3   272  ARG272      0.2205
    189  NE       -16.0250   40.1480  122.5550 N.pl3 272  ARG272     -0.0865
    190  CZ       -14.8420   39.5870  122.3340 C.cat 272  ARG272      0.5346
    191  NH1      -14.7040   38.5650  121.5160 N.pl3 272  ARG272      0.1354
    192  NH2      -13.7770   40.0340  122.9790 N.pl3 272  ARG272      0.1354
    193  N        -20.9460   37.0920  119.4870 N.am  273  GLY273     -0.1940
    194  CA       -22.2360   36.6380  118.9320 C.3   273  GLY273      0.2014
    195  C        -22.1190   36.1370  117.5020 C.2   273  GLY273      0.2638
    196  O        -23.0330   36.3480  116.6810 O.2   273  GLY273     -0.2714
    197  N        -21.0050   35.4820  117.2060 N.am  274  ARG274     -0.1977
    198  CA       -20.6840   34.9630  115.8750 C.3   274  ARG274      0.1597
    199  C        -20.6630   36.0340  114.7580 C.2   274  ARG274      0.2287
    200  O        -20.8870   35.7240  113.5860 O.2   274  ARG274     -0.2864
    201  CB       -21.6280   33.8040  115.5250 C.3   274  ARG274      0.0334
    202  CG       -21.7170   32.7180  116.6190 C.3   274  ARG274      0.0492
    203  CD       -20.3220   32.1940  117.0260 C.3   274  ARG274      0.2205
    204  NE       -20.3370   31.4190  118.2740 N.pl3 274  ARG274     -0.0865
    205  CZ       -20.5270   30.1020  118.3470 C.cat 274  ARG274      0.5346
    206  NH1      -20.7310   29.3740  117.2480 N.pl3 274  ARG274      0.1354
    207  NH2      -20.5250   29.5050  119.5330 N.pl3 274  ARG274      0.1354
@<TRIPOS>BOND
     1   181   179   am
     2   200   199    2
     3   179   180    2
     4   179   178    1
     5   199   198    1
     6   178   177    1
     7   201   198    1
     8   201   202    1
     9   198   197    1
    10   177   174    1
    11   202   203    1
    12   196   195    2
    13   203   204    1
    14   197   195   am
    15   174   173    1
    16   174   175    1
    17   206   205    1
    18   195   194    1
    19   119   118    1
    20   185   184    2
    21   204   205    2
    22   205   207    1
    23   120   118    1
    24   182   175   am
    25   182   183    1
    26   175   176    2
    27   118   117    2
    28   184   193   am
    29   184   183    1
    30   194   193    1
    31   183   186    1
    32   117   116    1
    33   186   187    1
    34   131   129    1
    35   116   115    1
    36   187   188    1
    37   130   129    1
    38   129   128    2
    39   114   115    1
    40   114   111    1
    41   191   190    1
    42   188   189    1
    43   128   127    1
    44   111   112    1
    45   111   110    1
    46   113   112    2
    47   190   189    2
    48   190   192    1
    49   109   108    1
    50   107   106    2
    51    47    48    2
    52    47    46    1
    53   112   121   am
    54    42    41    2
    55   127   126    1
    56   110   106   am
    57   106   105    1
    58   108   105    1
    59    46    45    1
    60    46    49    1
    61    41    45   am
    62    41    40    1
    63   167   168    2
    64   167   166    1
    65   165   166    1
    66    34    33    2
    67   166   169    1
    68   105   104    1
    69   172   170    1
    70   121   122    1
    71   126   125    1
    72    51    50   ar
    73    51    53   ar
    74    40    39    1
    75    40    43    1
    76    49    50    1
    77   122   125    1
    78   122   123    1
    79    33    39   am
    80    33    32    1
    81   104   100   am
    82   169   170    1
    83    50    52   ar
    84   170   171    1
    85    53    54   ar
    86    43    44    1
    87   103   102    1
    88    32    31    1
    89    32    35    1
    90   101   100    2
    91   100    99    1
    92   139   138    1
    93   123   132   am
    94   123   124    2
    95    37    36   ar
    96   132   133    1
    97    52    54   ar
    98    36    38   ar
    99    36    35    1
   100   102    99    1
   101   136   133    1
   102   136   137    1
   103    28    27    2
   104    99    98    1
   105   133   134    1
   106   150   148    1
   107   138   137    1
   108    27    26    1
   109    98    95   am
   110   148   149    1
   111   148   147    2
   112   134   135    2
   113   147   146    1
   114    95    94    1
   115    95    96    2
   116    84    85   ar
   117    84    82   ar
   118    70    69   ar
   119    70    68   ar
   120    26    29    1
   121    26    25    1
   122    69    67   ar
   123    85    83   ar
   124    97    94    1
   125    29    30    1
   126    19    18    2
   127   164   162    1
   128    94    93    1
   129   146   145    1
   130   163   162    1
   131    25    18   am
   132    18    17    1
   133   162   159    1
   134    82    81   ar
   135   145   144    1
   136    68    66   ar
   137    67    66   ar
   138    83    81   ar
   139   156   157    1
   140   156   155    1
   141   157   151    1
   142    16    17    1
   143    17    20    1
   144   144   141    1
   145    66    65    1
   146    81    80    1
   147    60    59    1
   148   141   140    1
   149   141   142    1
   150   159   160    1
   151   159   158    1
   152   151   142   am
   153   151   152    1
   154   154   153    2
   155   161   160    2
   156   155   152    1
   157    59    56    1
   158   142   143    2
   159    79    78    2
   160    20    21    1
   161    65    62    1
   162    80    77    1
   163    56    55    1
   164    56    57    1
   165   152   153    1
   166    21    22    1
   167    11    10    2
   168    78    77    1
   169    78    86   am
   170    77    76    1
   171    89    88    2
   172    14    13   ar
   173    10     9    1
   174    87    86    1
   175    87    88    1
   176    87    90    1
   177    58    57    2
   178    62    61    1
   179    62    63    1
   180    92    90    1
   181    75    72    1
   182    91    90    1
   183    22    24   am
   184    22    23    2
   185    13    15   ar
   186    13    12    1
   187    72    73    1
   188    72    71    1
   189     9    12    1
   190     9     8    1
   191    63    64    2
   192    74    73    2
   193     7     5    1
   194     4     3    2
   195     8     3   am
   196     3     2    1
   197     5     2    1
   198     5     6    1
   199     2     1    1
