@<TRIPOS>MOLECULE
tmp/3gm6B06.pdb
 163 157 0 0 0
SMALL
GASTEIGER

@<TRIPOS>ATOM
      1  N         19.6970   52.1650  102.4540 N.3   367  VAL367     -0.1231
      2  CA        20.7910   51.1880  102.4880 C.3   367  VAL367      0.1692
      3  C         20.6660   50.1910  103.6630 C.2   367  VAL367      0.2592
      4  O         20.8180   48.9770  103.4680 O.2   367  VAL367     -0.2718
      5  CB        22.1790   51.8650  102.5020 C.3   367  VAL367      0.0266
      6  CG1       23.2400   50.8350  102.7970 C.3   367  VAL367      0.0020
      7  CG2       22.4180   52.5760  101.1470 C.3   367  VAL367      0.0020
      8  N         20.3210   50.6740  104.8540 N.am  368  HIS368     -0.1976
      9  CA        20.2190   49.7480  105.9920 C.3   368  HIS368      0.1656
     10  C         19.0440   48.7600  105.7950 C.2   368  HIS368      0.2291
     11  O         19.2260   47.5300  105.9840 O.2   368  HIS368     -0.2864
     12  CB        20.1670   50.4750  107.3540 C.3   368  HIS368      0.0771
     13  CG        21.4910   51.0540  107.8010 C.ar  368  HIS368      0.0820
     14  ND1       21.7350   52.4120  107.7920 N.ar  368  HIS368     -0.2267
     15  CD2       22.6380   50.4680  108.2620 C.ar  368  HIS368      0.1154
     16  CE1       22.9770   52.6350  108.2180 C.ar  368  HIS368      0.1986
     17  NE2       23.5520   51.4740  108.5180 N.ar  368  HIS368     -0.2212
     18  N         19.7850   45.9660  103.4230 N.3   371  ASN371     -0.1240
     19  CA        20.7590   45.0040  103.9840 C.3   371  ASN371      0.1653
     20  C         20.2010   44.1930  105.1690 C.2   371  ASN371      0.2266
     21  O         20.9470   43.5260  105.8950 O.2   371  ASN371     -0.2867
     22  CB        22.0430   45.7280  104.3960 C.3   371  ASN371      0.1155
     23  CG        22.9760   45.9570  103.2230 C.2   371  ASN371      0.2627
     24  OD1       23.7690   45.0770  102.8800 O.2   371  ASN371     -0.2716
     25  ND2       22.8920   47.1270  102.5960 N.am  371  ASN371     -0.0877
     26  N         18.6570   45.2270  107.9740 N.3   373  VAL373     -0.1245
     27  CA        18.7260   45.8600  109.3090 C.3   373  VAL373      0.1561
     28  C         17.3220   46.3390  109.6940 C.2   373  VAL373      0.2260
     29  O         16.5310   46.6430  108.8140 O.2   373  VAL373     -0.2867
     30  CB        19.7440   47.0220  109.3090 C.3   373  VAL373      0.0252
     31  CG1       19.9250   47.6070  110.7450 C.3   373  VAL373      0.0019
     32  CG2       21.0910   46.5380  108.7680 C.3   373  VAL373      0.0019
     33  N         17.6770   46.9460  115.8520 N.3   377  ASP377     -0.1225
     34  CA        19.1370   46.8410  115.7850 C.3   377  ASP377      0.1805
     35  C         19.8140   48.1440  116.2320 C.2   377  ASP377      0.2598
     36  O         20.9110   48.0980  116.7930 O.2   377  ASP377     -0.2718
     37  CB        19.6150   46.4510  114.3920 C.3   377  ASP377      0.1424
     38  CG        19.1330   45.0650  113.9730 C.2   377  ASP377      0.3668
     39  OD1       19.1910   44.1360  114.8130 O.co2 377  ASP377     -0.2456
     40  OD2       18.7080   44.9340  112.8160 O.co2 377  ASP377     -0.2456
     41  N         19.1650   49.2850  116.0250 N.am  378  CYS378     -0.1970
     42  CA        19.7510   50.5650  116.3890 C.3   378  CYS378      0.1712
     43  C         19.1350   51.1900  117.6420 C.2   378  CYS378      0.2296
     44  O         19.7460   52.0970  118.2370 O.2   378  CYS378     -0.2864
     45  CB        19.6570   51.5300  115.1920 C.3   378  CYS378      0.0983
     46  SG        20.5880   50.9990  113.6960 S.3   378  CYS378     -0.0798
     47  N         20.5850   55.6100  119.3480 N.3   399  PRO399     -0.2116
     48  CA        21.8060   54.7930  119.5000 C.3   399  PRO399      0.1372
     49  C         22.9920   55.5300  120.1220 C.2   399  PRO399      0.2244
     50  O         23.9830   54.8900  120.5250 O.2   399  PRO399     -0.2868
     51  CB        22.1440   54.3710  118.0690 C.3   399  PRO399      0.0268
     52  CG        21.5910   55.4510  117.2310 C.3   399  PRO399      0.0207
     53  CD        20.2510   55.8010  117.9300 C.3   399  PRO399      0.0892
     54  N         26.7840   48.6060  120.9930 N.3   405  GLN405     -0.1231
     55  CA        25.8430   47.5380  120.6540 C.3   405  GLN405      0.1698
     56  C         24.9990   47.9070  119.4120 C.2   405  GLN405      0.2592
     57  O         24.6680   47.0470  118.5800 O.2   405  GLN405     -0.2718
     58  CB        24.9630   47.2300  121.8690 C.3   405  GLN405      0.0381
     59  CG        25.7620   47.0030  123.1960 C.3   405  GLN405      0.0905
     60  CD        25.8530   48.2960  124.0780 C.2   405  GLN405      0.2608
     61  OE1       25.1110   48.4330  125.0660 O.2   405  GLN405     -0.2717
     62  NE2       26.7450   49.2380  123.7150 N.am  405  GLN405     -0.0878
     63  N         24.7190   49.1850  119.2440 N.am  406  ALA406     -0.1966
     64  CA        23.7860   49.6240  118.2120 C.3   406  ALA406      0.1728
     65  C         24.4420   49.9910  116.8820 C.2   406  ALA406      0.2616
     66  O         23.7300   50.2020  115.8810 O.2   406  ALA406     -0.2715
     67  CB        22.9420   50.8020  118.7330 C.3   406  ALA406      0.0334
     68  N         25.7730   50.0200  116.8080 N.am  407  CYS407     -0.1968
     69  CA        26.4410   50.5870  115.6530 C.3   407  CYS407      0.1712
     70  C         27.7770   49.9230  115.3560 C.2   407  CYS407      0.2296
     71  O         28.0450   49.4600  114.2400 O.2   407  CYS407     -0.2864
     72  CB        26.7490   52.0310  115.9950 C.3   407  CYS407      0.0983
     73  SG        25.4620   53.1860  115.7540 S.3   407  CYS407     -0.0798
     74  N         29.3330   47.2810  116.5190 N.3   409  ASN409     -0.1225
     75  CA        29.4300   45.8320  116.2900 C.3   409  ASN409      0.1785
     76  C         29.3590   45.5170  114.8010 C.2   409  ASN409      0.2597
     77  O         30.0440   44.6130  114.3300 O.2   409  ASN409     -0.2718
     78  CB        28.3360   45.0780  117.0330 C.3   409  ASN409      0.1169
     79  CG        28.6580   44.8530  118.4970 C.2   409  ASN409      0.2627
     80  OD1       27.7820   44.4090  119.2570 O.2   409  ASN409     -0.2716
     81  ND2       29.9160   45.1170  118.9120 N.am  409  ASN409     -0.0877
     82  N         28.5620   46.2780  114.0510 N.am  410  CYS410     -0.1956
     83  CA        28.4990   46.0960  112.6050 C.3   410  CYS410      0.1843
     84  C         29.6480   46.8610  111.9150 C.2   410  CYS410      0.2625
     85  O         30.2810   46.3440  110.9810 O.2   410  CYS410     -0.2714
     86  CB        27.1440   46.5580  112.0340 C.3   410  CYS410      0.0997
     87  SG        25.5950   45.5900  112.4160 S.3   410  CYS410     -0.0797
     88  N         29.9260   48.0750  112.3730 N.am  411  HIS411     -0.1973
     89  CA        30.8760   48.9740  111.7280 C.3   411  HIS411      0.1656
     90  C         32.2580   48.9260  112.4550 C.2   411  HIS411      0.2291
     91  O         32.6840   49.8860  113.1100 O.2   411  HIS411     -0.2864
     92  CB        30.2870   50.4010  111.6920 C.3   411  HIS411      0.0771
     93  CG        29.1830   50.6000  110.6860 C.ar  411  HIS411      0.0820
     94  ND1       29.4300   50.7520  109.3380 N.ar  411  HIS411     -0.2267
     95  CD2       27.8310   50.7090  110.8320 C.ar  411  HIS411      0.1154
     96  CE1       28.2750   50.9450  108.7000 C.ar  411  HIS411      0.1986
     97  NE2       27.2860   50.9380  109.5810 N.ar  411  HIS411     -0.2212
     98  N         35.1560   51.6720  112.4520 N.3   414  TRP414     -0.1241
     99  CA        34.9690   52.9960  113.0300 C.3   414  TRP414      0.1605
    100  C         35.1550   52.9870  114.5410 C.2   414  TRP414      0.2264
    101  O         34.8330   51.9830  115.1920 O.2   414  TRP414     -0.2867
    102  CB        33.5320   53.4880  112.7490 C.3   414  TRP414      0.0550
    103  CG        33.2750   54.2410  111.4690 C.ar  414  TRP414      0.0003
    104  CD1       34.1800   54.9100  110.7070 C.ar  414  TRP414      0.0946
    105  CD2       31.9930   54.4780  110.8680 C.ar  414  TRP414      0.0152
    106  NE1       33.5460   55.5170  109.6150 N.ar  414  TRP414     -0.2442
    107  CE2       32.2040   55.2710  109.7090 C.ar  414  TRP414      0.0810
    108  CE3       30.6870   54.0990  111.1950 C.ar  414  TRP414      0.0012
    109  CZ2       31.1650   55.6730  108.8810 C.ar  414  TRP414      0.0191
    110  CZ3       29.6600   54.4770  110.3540 C.ar  414  TRP414      0.0001
    111  CH2       29.9020   55.2840  109.2220 C.ar  414  TRP414      0.0015
    112  N         31.7090   57.2840  114.0730 N.3   419  ALA419     -0.1245
    113  CA        30.2950   56.9330  113.7590 C.3   419  ALA419      0.1562
    114  C         29.3800   58.1330  114.0560 C.2   419  ALA419      0.2260
    115  O         28.4510   58.4410  113.2620 O.2   419  ALA419     -0.2867
    116  CB        29.8450   55.7190  114.5550 C.3   419  ALA419      0.0290
    117  N         29.6350   60.6760  111.2770 N.3   422  ALA422     -0.1231
    118  CA        28.8720   60.2720  110.0980 C.3   422  ALA422      0.1694
    119  C         27.3900   60.6000  110.2580 C.2   422  ALA422      0.2591
    120  O         26.7290   61.0440  109.2970 O.2   422  ALA422     -0.2718
    121  CB        29.0900   58.7650  109.7850 C.3   422  ALA422      0.0304
    122  N         26.8560   60.3970  111.4690 N.am  423  ILE423     -0.1980
    123  CA        25.4390   60.7590  111.7570 C.3   423  ILE423      0.1595
    124  C         25.2890   62.2690  111.5880 C.2   423  ILE423      0.2287
    125  O         24.3580   62.7380  110.9310 O.2   423  ILE423     -0.2864
    126  CB        24.9940   60.4010  113.2100 C.3   423  ILE423      0.0276
    127  CG1       25.0320   58.8870  113.4620 C.3   423  ILE423      0.0022
    128  CG2       23.5480   60.9570  113.5020 C.3   423  ILE423      0.0022
    129  CD1       24.7840   58.4930  114.9330 C.3   423  ILE423      0.0001
    130  N         25.0300   63.8180  107.9920 N.3   426  ILE426     -0.1245
    131  CA        23.6750   63.6730  107.4060 C.3   426  ILE426      0.1561
    132  C         22.6820   64.6530  108.0170 C.2   426  ILE426      0.2260
    133  O         21.9460   65.3630  107.2950 O.2   426  ILE426     -0.2867
    134  CB        23.1320   62.2250  107.5510 C.3   426  ILE426      0.0252
    135  CG1       23.9640   61.2340  106.7030 C.3   426  ILE426      0.0019
    136  CG2       21.6460   62.1790  107.1510 C.3   426  ILE426      0.0019
    137  CD1       23.7890   59.7100  107.1140 C.3   426  ILE426      0.0001
    138  N         18.5810   60.8730  108.6510 N.3   486  PHE486     -0.1241
    139  CA        19.4360   59.7000  108.8190 C.3   486  PHE486      0.1605
    140  C         18.8390   58.4070  108.2370 C.2   486  PHE486      0.2264
    141  O         19.5680   57.6130  107.6460 O.2   486  PHE486     -0.2867
    142  CB        19.8730   59.4480  110.2820 C.3   486  PHE486      0.0534
    143  CG        20.8650   58.3200  110.4040 C.ar  486  PHE486     -0.0203
    144  CD1       22.2120   58.5350  110.2280 C.ar  486  PHE486     -0.0042
    145  CD2       20.4360   57.0180  110.5960 C.ar  486  PHE486     -0.0042
    146  CE1       23.1270   57.4740  110.2950 C.ar  486  PHE486     -0.0003
    147  CE2       21.3110   55.9750  110.6210 C.ar  486  PHE486     -0.0003
    148  CZ        22.6650   56.1810  110.4850 C.ar  486  PHE486     -0.0000
    149  N         18.9900   59.3120  103.7120 N.3   489  PRO489     -0.2102
    150  CA        19.5180   60.6400  103.3820 C.3   489  PRO489      0.1504
    151  C         19.3350   61.0610  101.9270 C.2   489  PRO489      0.2575
    152  O         19.1020   62.2340  101.6570 O.2   489  PRO489     -0.2718
    153  CB        21.0100   60.5210  103.7140 C.3   489  PRO489      0.0282
    154  CG        21.2810   59.0910  103.7290 C.3   489  PRO489      0.0208
    155  CD        20.0340   58.4390  104.2520 C.3   489  PRO489      0.0893
    156  N         19.4520   60.1330  100.9830 N.am  490  ASP490     -0.1974
    157  CA        19.2520   60.5160   99.5640 C.3   490  ASP490      0.1708
    158  C         17.7930   60.9170   99.2540 C.2   490  ASP490      0.2293
    159  O         17.5450   61.8210   98.4500 O.2   490  ASP490     -0.2864
    160  CB        19.6350   59.3870   98.6330 C.3   490  ASP490      0.1436
    161  CG        21.1230   59.1270   98.5870 C.2   490  ASP490      0.3671
    162  OD1       21.9240   60.0640   98.6420 O.co2 490  ASP490     -0.2456
    163  OD2       21.4690   57.9420   98.4840 O.co2 490  ASP490     -0.2456
@<TRIPOS>BOND
     1   159   158    2
     2   163   161   ar
     3   161   160    1
     4   161   162   ar
     5   160   157    1
     6   158   157    1
     7   157   156    1
     8   156   151   am
     9     7     5    1
    10   152   151    2
    11   151   150    1
    12     1     2    1
    13     2     5    1
    14     2     3    1
    15     5     6    1
    16    25    23   am
    17    24    23    2
    18    23    22    1
    19   150   149    1
    20   150   153    1
    21    18    19    1
    22     4     3    2
    23     3     8   am
    24   149   155    1
    25   153   154    1
    26   154   155    1
    27    19    22    1
    28    19    20    1
    29     8     9    1
    30    20    21    2
    31    10    11    2
    32    10     9    1
    33     9    12    1
    34   135   137    1
    35   135   134    1
    36   136   134    1
    37   133   132    2
    38    12    13    1
    39   131   134    1
    40   131   130    1
    41   131   132    1
    42   141   140    2
    43    14    13   ar
    44    14    16   ar
    45    13    15   ar
    46    26    27    1
    47    16    17   ar
    48   140   139    1
    49    15    17   ar
    50   138   139    1
    51    96    94   ar
    52    96    97   ar
    53    32    30    1
    54    29    28    2
    55   139   142    1
    56   109   111   ar
    57   109   107   ar
    58   111   110   ar
    59   120   119    2
    60    30    27    1
    61    30    31    1
    62    27    28    1
    63    94    93   ar
    64    97    95   ar
    65   106   107   ar
    66   106   104   ar
    67   107   105   ar
    68   121   118    1
    69   118   119    1
    70   118   117    1
    71   144   146   ar
    72   144   143   ar
    73   119   122   am
    74   142   143    1
    75   146   148   ar
    76   110   108   ar
    77   143   145   ar
    78   148   147   ar
    79   145   147   ar
    80    93    95   ar
    81    93    92    1
    82   104   103   ar
    83   105   108   ar
    84   105   103   ar
    85   125   124    2
    86    85    84    2
    87   103   102    1
    88   122   123    1
    89   124   123    1
    90    92    89    1
    91    89    88    1
    92    89    90    1
    93   123   126    1
    94    84    88   am
    95    84    83    1
    96    86    87    1
    97    86    83    1
    98    98    99    1
    99    90    91    2
   100    83    82    1
   101   102    99    1
   102    40    38   ar
   103    99   100    1
   104   126   127    1
   105   126   128    1
   106   115   114    2
   107   127   129    1
   108    46    45    1
   109   113   114    1
   110   113   112    1
   111   113   116    1
   112    38    37    1
   113    38    39   ar
   114    82    76   am
   115    71    70    2
   116    77    76    2
   117    37    34    1
   118   100   101    2
   119    76    75    1
   120    45    42    1
   121    70    69    1
   122    69    72    1
   123    69    68    1
   124    73    72    1
   125    34    33    1
   126    34    35    1
   127    66    65    2
   128    41    35   am
   129    41    42    1
   130    35    36    2
   131    75    74    1
   132    75    78    1
   133    42    43    1
   134    68    65   am
   135    65    64    1
   136    78    79    1
   137    52    53    1
   138    52    51    1
   139    43    44    2
   140    53    47    1
   141    51    48    1
   142    64    67    1
   143    64    63    1
   144    79    81   am
   145    79    80    2
   146    57    56    2
   147    63    56   am
   148    47    48    1
   149    56    55    1
   150    48    49    1
   151    49    50    2
   152    55    54    1
   153    55    58    1
   154    58    59    1
   155    59    60    1
   156    62    60   am
   157    60    61    2
