@<TRIPOS>MOLECULE
tmp/3gmaB00.pdb
 192 186 0 0 0
SMALL
GASTEIGER

@<TRIPOS>ATOM
      1  N        -30.1840   27.3390  -27.6200 N.3    48  ILE48      -0.1231
      2  CA       -29.7290   26.7120  -26.3710 C.3    48  ILE48       0.1692
      3  C        -30.7280   26.6550  -25.1960 C.2    48  ILE48       0.2592
      4  O        -30.4990   25.9060  -24.2490 O.2    48  ILE48      -0.2718
      5  CB       -28.3670   27.3000  -25.8790 C.3    48  ILE48       0.0266
      6  CG1      -28.2090   28.7660  -26.3230 C.3    48  ILE48       0.0019
      7  CG2      -27.1990   26.4220  -26.3690 C.3    48  ILE48       0.0020
      8  CD1      -27.1450   29.5560  -25.5580 C.3    48  ILE48       0.0001
      9  N        -31.8160   27.4260  -25.2490 N.am   49  THR49      -0.1953
     10  CA       -32.8290   27.4290  -24.1780 C.3    49  THR49       0.1897
     11  C        -34.2320   27.2810  -24.7520 C.2    49  THR49       0.2313
     12  O        -34.6450   28.0830  -25.5900 O.2    49  THR49      -0.2863
     13  CB       -32.7990   28.7380  -23.3600 C.3    49  THR49       0.1794
     14  OG1      -31.4510   29.0700  -23.0220 O.3    49  THR49      -0.2208
     15  CG2      -33.6160   28.6030  -22.0790 C.3    49  THR49       0.0378
     16  N        -37.4920   28.6700  -20.4230 N.3    54  LEU54      -0.1245
     17  CA       -37.7730   30.0960  -20.2750 C.3    54  LEU54       0.1561
     18  C        -38.9600   30.3440  -19.3410 C.2    54  LEU54       0.2260
     19  O        -38.8730   31.1730  -18.4240 O.2    54  LEU54      -0.2867
     20  CB       -38.0570   30.7130  -21.6450 C.3    54  LEU54       0.0270
     21  CG       -37.1250   31.7100  -22.3420 C.3    54  LEU54       0.0019
     22  CD1      -35.6620   31.5980  -21.9550 C.3    54  LEU54       0.0001
     23  CD2      -37.3010   31.5760  -23.8500 C.3    54  LEU54       0.0001
     24  N        -38.2540   29.7730  -15.6330 N.3    57  ARG57      -0.1245
     25  CA       -37.4820   30.8600  -15.0360 C.3    57  ARG57       0.1563
     26  C        -38.2690   32.1720  -14.9500 C.2    57  ARG57       0.2260
     27  O        -37.7200   33.2000  -14.5460 O.2    57  ARG57      -0.2867
     28  CB       -36.1820   31.0850  -15.8160 C.3    57  ARG57       0.0307
     29  CG       -35.0820   30.0490  -15.5670 C.3    57  ARG57       0.0489
     30  CD       -34.0360   30.0820  -16.6880 C.3    57  ARG57       0.2205
     31  NE       -34.0440   31.3590  -17.4160 N.pl3  57  ARG57      -0.0865
     32  CZ       -33.3100   31.6280  -18.4930 C.cat  57  ARG57       0.5346
     33  NH1      -32.4780   30.7180  -18.9950 N.pl3  57  ARG57       0.1354
     34  NH2      -33.4090   32.8140  -19.0710 N.pl3  57  ARG57       0.1354
     35  N        -34.9060   35.3570  -27.2830 N.3   113  ASN113     -0.1240
     36  CA       -34.1800   35.0640  -26.0430 C.3   113  ASN113      0.1653
     37  C        -33.9210   33.5690  -25.8120 C.2   113  ASN113      0.2266
     38  O        -33.4350   33.1810  -24.7460 O.2   113  ASN113     -0.2867
     39  CB       -34.8930   35.6870  -24.8370 C.3   113  ASN113      0.1155
     40  CG       -36.3410   35.2430  -24.7140 C.2   113  ASN113      0.2627
     41  OD1      -36.8640   34.5420  -25.5800 O.2   113  ASN113     -0.2716
     42  ND2      -36.9960   35.6530  -23.6330 N.am  113  ASN113     -0.0877
     43  N        -28.6890   32.5620  -27.4190 N.3   116  MET116     -0.1230
     44  CA       -27.6300   33.4190  -26.8590 C.3   116  MET116      0.1702
     45  C        -28.1920   34.7060  -26.2500 C.2   116  MET116      0.2592
     46  O        -27.6270   35.7890  -26.4270 O.2   116  MET116     -0.2718
     47  CB       -26.5580   33.7540  -27.9130 C.3   116  MET116      0.0401
     48  CG       -25.7410   32.5690  -28.4230 C.3   116  MET116      0.0596
     49  SD       -24.8970   32.9500  -29.9940 S.3   116  MET116     -0.1393
     50  CE       -26.2950   32.8520  -31.1550 C.3   116  MET116      0.0692
     51  N        -29.3120   34.5700  -25.5410 N.am  117  ALA117     -0.1980
     52  CA       -29.9950   35.6940  -24.8800 C.3   117  ALA117      0.1597
     53  C        -30.2490   36.9050  -25.8040 C.2   117  ALA117      0.2287
     54  O        -30.0880   38.0560  -25.3950 O.2   117  ALA117     -0.2864
     55  CB       -29.2430   36.1070  -23.5930 C.3   117  ALA117      0.0319
     56  N        -28.6580   37.7420  -28.7740 N.3   119  ALA119     -0.1231
     57  CA       -27.4160   38.3700  -29.2090 C.3   119  ALA119      0.1694
     58  C        -27.4630   38.8310  -30.6640 C.2   119  ALA119      0.2592
     59  O        -28.2000   38.2660  -31.4770 O.2   119  ALA119     -0.2718
     60  CB       -26.2300   37.4130  -28.9940 C.3   119  ALA119      0.0304
     61  N        -26.6690   39.8540  -30.9790 N.am  120  TRP120     -0.1976
     62  CA       -26.4890   40.2980  -32.3520 C.3   120  TRP120      0.1640
     63  C        -25.7810   39.2160  -33.1420 C.2   120  TRP120      0.2290
     64  O        -24.6430   38.8690  -32.8340 O.2   120  TRP120     -0.2864
     65  CB       -25.6390   41.5680  -32.4150 C.3   120  TRP120      0.0576
     66  CG       -26.2820   42.7850  -31.8800 C.ar  120  TRP120      0.0006
     67  CD1      -27.5400   42.8970  -31.3670 C.ar  120  TRP120      0.0946
     68  CD2      -25.7100   44.0940  -31.8340 C.ar  120  TRP120      0.0152
     69  NE1      -27.7830   44.1950  -30.9880 N.ar  120  TRP120     -0.2442
     70  CE2      -26.6770   44.9540  -31.2660 C.ar  120  TRP120      0.0810
     71  CE3      -24.4690   44.6270  -32.2100 C.ar  120  TRP120      0.0012
     72  CZ2      -26.4400   46.3220  -31.0610 C.ar  120  TRP120      0.0191
     73  CZ3      -24.2320   45.9880  -31.9990 C.ar  120  TRP120      0.0001
     74  CH2      -25.2170   46.8170  -31.4340 C.ar  120  TRP120      0.0015
     75  N        -28.6090   40.7830  -25.6750 N.3   149  SER149     -0.1202
     76  CA       -27.3310   40.6740  -24.9730 C.3   149  SER149      0.2020
     77  C        -26.1840   41.3140  -25.7500 C.2   149  SER149      0.2619
     78  O        -25.0230   41.2230  -25.3380 O.2   149  SER149     -0.2717
     79  CB       -27.0050   39.2080  -24.6940 C.3   149  SER149      0.2103
     80  OG       -26.8860   38.5000  -25.9120 O.3   149  SER149     -0.2182
     81  N        -26.5120   41.9480  -26.8720 N.am  150  GLY150     -0.1942
     82  CA       -25.5310   42.6620  -27.6740 C.3   150  GLY150      0.2014
     83  C        -24.7150   41.7860  -28.6070 C.2   150  GLY150      0.2639
     84  O        -25.1380   40.6840  -28.9890 O.2   150  GLY150     -0.2714
     85  N        -23.5370   42.3000  -28.9650 N.am  151  VAL151     -0.1963
     86  CA       -22.5970   41.6610  -29.8960 C.3   151  VAL151      0.1727
     87  C        -22.2700   40.2150  -29.5320 C.2   151  VAL151      0.2616
     88  O        -21.8940   39.9270  -28.3980 O.2   151  VAL151     -0.2715
     89  CB       -21.2770   42.4770  -29.9830 C.3   151  VAL151      0.0290
     90  CG1      -20.1840   41.7180  -30.7540 C.3   151  VAL151      0.0023
     91  CG2      -21.5320   43.8400  -30.6200 C.3   151  VAL151      0.0023
     92  N        -22.4300   39.3120  -30.4970 N.am  152  GLU152     -0.1963
     93  CA       -21.9110   37.9610  -30.3720 C.3   152  GLU152      0.1733
     94  C        -20.3880   38.0270  -30.5430 C.2   152  GLU152      0.2616
     95  O        -19.8940   38.3030  -31.6470 O.2   152  GLU152     -0.2715
     96  CB       -22.5310   37.0540  -31.4310 C.3   152  GLU152      0.0429
     97  CG       -22.3960   35.5720  -31.1330 C.3   152  GLU152      0.1163
     98  CD       -22.5660   34.6900  -32.3680 C.2   152  GLU152      0.3649
     99  OE1      -22.9750   35.1930  -33.4460 O.co2 152  GLU152     -0.2457
    100  OE2      -22.2840   33.4760  -32.2480 O.co2 152  GLU152     -0.2457
    101  N        -19.6530   37.7820  -29.4570 N.am  153  PHE153     -0.1960
    102  CA       -18.1920   37.9920  -29.4260 C.3   153  PHE153      0.1756
    103  C        -17.3870   37.3240  -30.5610 C.2   153  PHE153      0.2461
    104  O        -16.5490   37.9860  -31.1840 O.2   153  PHE153     -0.2730
    105  CB       -17.6050   37.6390  -28.0510 C.3   153  PHE153      0.0574
    106  CG       -18.0520   38.5610  -26.9390 C.ar  153  PHE153     -0.0200
    107  CD1      -17.5010   39.8340  -26.8030 C.ar  153  PHE153     -0.0042
    108  CD2      -19.0220   38.1510  -26.0240 C.ar  153  PHE153     -0.0042
    109  CE1      -17.9110   40.6880  -25.7760 C.ar  153  PHE153     -0.0003
    110  CE2      -19.4400   38.9980  -24.9930 C.ar  153  PHE153     -0.0003
    111  CZ       -18.8810   40.2690  -24.8700 C.ar  153  PHE153     -0.0000
    112  N        -17.6350   36.0250  -30.8410 N.am  154  PRO154     -0.2727
    113  CA       -16.9400   35.3780  -31.9650 C.3   154  PRO154      0.1402
    114  C        -17.1840   36.0390  -33.3280 C.2   154  PRO154      0.2269
    115  O        -16.3290   35.9440  -34.2160 O.2   154  PRO154     -0.2865
    116  CB       -17.5250   33.9590  -31.9750 C.3   154  PRO154      0.0296
    117  CG       -18.0240   33.7430  -30.6020 C.3   154  PRO154      0.0237
    118  CD       -18.5280   35.0790  -30.1460 C.3   154  PRO154      0.0939
    119  N        -20.7680   44.2290  -35.4430 N.3   160  TYR160     -0.1241
    120  CA       -20.4590   45.4920  -34.7860 C.3   160  TYR160      0.1605
    121  C        -20.2410   46.7080  -35.7240 C.2   160  TYR160      0.2264
    122  O        -20.8460   47.7650  -35.5030 O.2   160  TYR160     -0.2867
    123  CB       -19.2800   45.3430  -33.7970 C.3   160  TYR160      0.0534
    124  CG       -18.7170   46.6870  -33.3810 C.ar  160  TYR160     -0.0201
    125  CD1      -19.3450   47.4410  -32.3990 C.ar  160  TYR160     -0.0009
    126  CD2      -17.5900   47.2220  -34.0090 C.ar  160  TYR160     -0.0009
    127  CE1      -18.8620   48.6810  -32.0350 C.ar  160  TYR160      0.0417
    128  CE2      -17.0970   48.4630  -33.6520 C.ar  160  TYR160      0.0417
    129  CZ       -17.7400   49.1850  -32.6590 C.ar  160  TYR160      0.1957
    130  OH       -17.2710   50.4230  -32.2880 O.3   160  TYR160     -0.2866
    131  N        -29.9740   52.5050  -34.1140 N.3   170  PHE170     -0.1241
    132  CA       -30.0550   53.5930  -33.1390 C.3   170  PHE170      0.1605
    133  C        -30.2580   54.9460  -33.8370 C.2   170  PHE170      0.2264
    134  O        -30.9410   55.8370  -33.3100 O.2   170  PHE170     -0.2867
    135  CB       -28.8130   53.6420  -32.2540 C.3   170  PHE170      0.0534
    136  CG       -28.3490   52.2990  -31.7620 C.ar  170  PHE170     -0.0203
    137  CD1      -29.2640   51.3250  -31.3570 C.ar  170  PHE170     -0.0042
    138  CD2      -26.9820   52.0170  -31.6760 C.ar  170  PHE170     -0.0042
    139  CE1      -28.8320   50.0870  -30.9010 C.ar  170  PHE170     -0.0003
    140  CE2      -26.5370   50.7790  -31.2170 C.ar  170  PHE170     -0.0003
    141  CZ       -27.4650   49.8110  -30.8290 C.ar  170  PHE170     -0.0000
    142  N        -31.4340   41.2380  -19.5610 N.3   190  THR190     -0.1218
    143  CA       -30.2210   42.0470  -19.5320 C.3   190  THR190      0.1862
    144  C        -29.9180   42.6620  -20.8980 C.2   190  THR190      0.2287
    145  O        -29.8250   41.9530  -21.9050 O.2   190  THR190     -0.2866
    146  CB       -29.0110   41.2380  -18.9760 C.3   190  THR190      0.1770
    147  OG1      -29.2620   40.9020  -17.6070 O.3   190  THR190     -0.2211
    148  CG2      -27.7170   42.0470  -19.0360 C.3   190  THR190      0.0375
    149  N        -27.0940   45.0620  -22.1880 N.3   192  PRO192     -0.2102
    150  CA       -25.8660   45.8420  -22.0670 C.3   192  PRO192      0.1504
    151  C        -25.3370   46.3200  -23.4200 C.2   192  PRO192      0.2576
    152  O        -25.5070   45.6360  -24.4440 O.2   192  PRO192     -0.2718
    153  CB       -24.8880   44.8330  -21.4530 C.3   192  PRO192      0.0282
    154  CG       -25.3530   43.4870  -21.9950 C.3   192  PRO192      0.0208
    155  CD       -26.7980   43.6420  -22.4680 C.3   192  PRO192      0.0893
    156  N        -24.6860   47.4830  -23.4020 N.am  193  ALA193     -0.1966
    157  CA       -24.0050   48.0500  -24.5700 C.3   193  ALA193      0.1728
    158  C        -24.9290   48.1320  -25.7910 C.2   193  ALA193      0.2616
    159  O        -25.7990   48.9950  -25.8400 O.2   193  ALA193     -0.2715
    160  CB       -22.7300   47.2600  -24.8730 C.3   193  ALA193      0.0334
    161  N        -24.7600   47.2240  -26.7510 N.am  194  GLY194     -0.1955
    162  CA       -25.6090   47.1770  -27.9270 C.3   194  GLY194      0.1869
    163  C        -27.0890   47.0970  -27.6050 C.2   194  GLY194      0.2309
    164  O        -27.8970   47.7950  -28.2190 O.2   194  GLY194     -0.2863
    165  N        -28.4900   50.4060  -26.1300 N.3   197  TYR197     -0.1241
    166  CA       -28.8830   51.4420  -27.0800 C.3   197  TYR197      0.1605
    167  C        -30.1840   51.1310  -27.7950 C.2   197  TYR197      0.2264
    168  O        -30.9170   52.0450  -28.1800 O.2   197  TYR197     -0.2867
    169  CB       -27.7490   51.7660  -28.0520 C.3   197  TYR197      0.0534
    170  CG       -26.7090   52.6120  -27.3790 C.ar  197  TYR197     -0.0201
    171  CD1      -25.6440   52.0270  -26.6890 C.ar  197  TYR197     -0.0009
    172  CD2      -26.8250   53.9950  -27.3670 C.ar  197  TYR197     -0.0009
    173  CE1      -24.7180   52.8000  -26.0290 C.ar  197  TYR197      0.0417
    174  CE2      -25.9030   54.7740  -26.7190 C.ar  197  TYR197      0.0417
    175  CZ       -24.8540   54.1720  -26.0550 C.ar  197  TYR197      0.1957
    176  OH       -23.9360   54.9670  -25.4160 O.3   197  TYR197     -0.2866
    177  N        -24.6750   51.0430  -20.5790 N.3   215  VAL215     -0.1245
    178  CA       -23.5540   51.3160  -21.4830 C.3   215  VAL215      0.1561
    179  C        -22.6310   50.0970  -21.5730 C.2   215  VAL215      0.2260
    180  O        -22.1400   49.7580  -22.6500 O.2   215  VAL215     -0.2867
    181  CB       -22.7340   52.5300  -21.0040 C.3   215  VAL215      0.0252
    182  CG1      -21.5170   52.7260  -21.8740 C.3   215  VAL215      0.0019
    183  CG2      -23.5910   53.7930  -20.9830 C.3   215  VAL215      0.0019
    184  N        -22.0150   46.0040  -19.4740 N.3   217  GLY217     -0.1210
    185  CA       -22.4420   45.0020  -18.4880 C.3   217  GLY217      0.1956
    186  C        -21.4690   44.7800  -17.3390 C.2   217  GLY217      0.2611
    187  O        -20.4500   45.4710  -17.2280 O.2   217  GLY217     -0.2717
    188  N        -21.7920   43.8030  -16.4900 N.am  218  ALA218     -0.1979
    189  CA       -21.0220   43.5150  -15.2750 C.3   218  ALA218      0.1597
    190  C        -19.5830   43.0250  -15.5730 C.2   218  ALA218      0.2287
    191  O        -19.3910   42.1190  -16.4000 O.2   218  ALA218     -0.2864
    192  CB       -21.7760   42.5140  -14.3910 C.3   218  ALA218      0.0319
@<TRIPOS>BOND
     1   121   122    2
     2   121   120    1
     3   119   120    1
     4   120   123    1
     5   115   114    2
     6   131   132    1
     7   126   128   ar
     8   126   124   ar
     9   133   134    2
    10   133   132    1
    11   123   124    1
    12   128   129   ar
    13    99    98   ar
    14   124   125   ar
    15   114   113    1
    16    63    64    2
    17    63    62    1
    18   132   135    1
    19   129   130    1
    20   129   127   ar
    21    65    62    1
    22    65    66    1
    23   125   127   ar
    24    98   100   ar
    25    98    97    1
    26    62    61    1
    27   135   136    1
    28    71    73   ar
    29    71    68   ar
    30    73    74   ar
    31   116   113    1
    32   116   117    1
    33   113   112    1
    34    66    68   ar
    35    66    67   ar
    36    68    70   ar
    37   136   138   ar
    38   136   137   ar
    39   138   140   ar
    40    95    94    2
    41    59    58    2
    42    74    72   ar
    43    96    97    1
    44    96    93    1
    45    67    69   ar
    46   137   139   ar
    47    70    72   ar
    48    70    69   ar
    49   140   141   ar
    50   104   103    2
    51    50    49    1
    52    61    58   am
    53   139   141   ar
    54   112   103   am
    55   112   118    1
    56    90    89    1
    57    58    57    1
    58    91    89    1
    59   117   118    1
    60   103   102    1
    61    94    93    1
    62    94   101   am
    63    92    93    1
    64    92    87   am
    65    49    48    1
    66    89    86    1
    67    86    87    1
    68    86    85    1
    69    87    88    2
    70   101   102    1
    71   102   105    1
    72    57    60    1
    73    57    56    1
    74    84    83    2
    75    85    83   am
    76    83    82    1
    77    48    47    1
    78   164   163    2
    79   168   167    2
    80   169   170    1
    81   169   166    1
    82   105   106    1
    83   162   163    1
    84   162   161    1
    85    47    44    1
    86   167   166    1
    87    82    81    1
    88     1     2    1
    89    43    44    1
    90   170   172   ar
    91   170   171   ar
    92   172   174   ar
    93    35    36    1
    94   166   165    1
    95   106   107   ar
    96   106   108   ar
    97    81    77   am
    98    44    45    1
    99   107   109   ar
   100   161   158   am
   101   174   175   ar
   102   171   173   ar
   103    46    45    2
   104     2     5    1
   105     2     3    1
   106     7     5    1
   107     6     5    1
   108     6     8    1
   109    45    51   am
   110   175   173   ar
   111   175   176    1
   112    36    37    1
   113    36    39    1
   114   108   110   ar
   115    80    79    1
   116   159   158    2
   117    37    38    2
   118    53    54    2
   119    53    52    1
   120   158   157    1
   121   109   111   ar
   122    77    78    2
   123    77    76    1
   124    75    76    1
   125    12    11    2
   126    41    40    2
   127    51    52    1
   128     9     3   am
   129     9    10    1
   130     3     4    2
   131   110   111   ar
   132    76    79    1
   133    52    55    1
   134   160   157    1
   135    39    40    1
   136    11    10    1
   137    40    42   am
   138   157   156    1
   139   152   151    2
   140    10    13    1
   141    23    21    1
   142   151   156   am
   143   151   150    1
   144    13    14    1
   145    13    15    1
   146   180   179    2
   147   155   149    1
   148   155   154    1
   149    21    22    1
   150    21    20    1
   151   149   150    1
   152   150   153    1
   153   154   153    1
   154   145   144    2
   155   182   181    1
   156    20    17    1
   157   179   178    1
   158   178   181    1
   159   178   177    1
   160   181   183    1
   161   144   143    1
   162    16    17    1
   163    17    18    1
   164   142   143    1
   165   143   146    1
   166   184   185    1
   167    18    19    2
   168    34    32    1
   169   148   146    1
   170    33    32    1
   171   146   147    1
   172    32    31    2
   173   185   186    1
   174    31    30    1
   175   186   187    2
   176   186   188   am
   177    30    29    1
   178   188   189    1
   179   191   190    2
   180    28    29    1
   181    28    25    1
   182    24    25    1
   183   190   189    1
   184   189   192    1
   185    25    26    1
   186    26    27    2
