@<TRIPOS>MOLECULE
tmp/3gmdC01.pdb
 147 138 0 0 0
SMALL
GASTEIGER

@<TRIPOS>ATOM
      1  N         68.5010   -5.9290   53.0320 N.3    96  ILE96      -0.1245
      2  CA        67.6790   -6.4070   54.1450 C.3    96  ILE96       0.1561
      3  C         68.5130   -7.3710   54.9950 C.2    96  ILE96       0.2260
      4  O         69.4860   -7.9230   54.4890 O.2    96  ILE96      -0.2867
      5  CB        66.4170   -7.1690   53.6400 C.3    96  ILE96       0.0252
      6  CG1       66.7890   -8.0740   52.4650 C.3    96  ILE96       0.0019
      7  CG2       65.3250   -6.1940   53.2400 C.3    96  ILE96       0.0019
      8  CD1       67.4560   -9.3480   52.8360 C.3    96  ILE96       0.0001
      9  N         69.2370  -10.9660   57.1440 N.3    98  GLN98      -0.1231
     10  CA        68.8660  -12.3670   56.9970 C.3    98  GLN98       0.1698
     11  C         67.3710  -12.4990   57.3510 C.2    98  GLN98       0.2592
     12  O         66.9190  -11.9680   58.3740 O.2    98  GLN98      -0.2718
     13  CB        69.7230  -13.2140   57.9410 C.3    98  GLN98       0.0381
     14  CG        69.5390  -14.7140   57.8070 C.3    98  GLN98       0.0905
     15  CD        68.2180  -15.1890   58.3790 C.2    98  GLN98       0.2608
     16  OE1       67.6170  -16.1400   57.8790 O.2    98  GLN98      -0.2717
     17  NE2       67.7590  -14.5260   59.4330 N.am   98  GLN98      -0.0878
     18  N         66.6120  -13.1920   56.5060 N.am   99  THR99      -0.1953
     19  CA        65.1830  -13.3760   56.7440 C.3    99  THR99       0.1897
     20  C         64.7770  -14.8360   56.6830 C.2    99  THR99       0.2313
     21  O         64.9860  -15.5020   55.6700 O.2    99  THR99      -0.2863
     22  CB        64.3280  -12.6320   55.7140 C.3    99  THR99       0.1794
     23  OG1       64.7920  -11.2820   55.5990 O.3    99  THR99      -0.2208
     24  CG2       62.8600  -12.6200   56.1590 C.3    99  THR99       0.0378
     25  N         61.5960  -17.7980   57.2500 N.3   101  LEU101     -0.1245
     26  CA        60.1720  -18.0830   57.3690 C.3   101  LEU101      0.1561
     27  C         59.8910  -18.7740   58.6990 C.2   101  LEU101      0.2260
     28  O         60.1660  -19.9670   58.8650 O.2   101  LEU101     -0.2867
     29  CB        59.7150  -18.9870   56.2270 C.3   101  LEU101      0.0270
     30  CG        58.9810  -18.3530   55.0420 C.3   101  LEU101      0.0019
     31  CD1       59.3080  -16.8820   54.9330 C.3   101  LEU101      0.0001
     32  CD2       59.3620  -19.0850   53.7570 C.3   101  LEU101      0.0001
     33  N         57.9920   -5.0440   48.7740 N.3   145  SER145     -0.1202
     34  CA        57.5550   -6.4160   48.5680 C.3   145  SER145      0.2020
     35  C         56.0190   -6.4470   48.5790 C.2   145  SER145      0.2619
     36  O         55.3730   -5.5120   49.0700 O.2   145  SER145     -0.2717
     37  CB        58.1360   -7.3040   49.6980 C.3   145  SER145      0.2103
     38  OG        57.5490   -8.5960   49.7640 O.3   145  SER145     -0.2182
     39  N         55.4380   -7.5080   48.0260 N.am  146  LEU146     -0.1965
     40  CA        54.0170   -7.7610   48.2110 C.3   146  LEU146      0.1728
     41  C         53.7220   -7.7120   49.7060 C.2   146  LEU146      0.2616
     42  O         52.6960   -7.1670   50.1340 O.2   146  LEU146     -0.2715
     43  CB        53.6390   -9.1400   47.6480 C.3   146  LEU146      0.0311
     44  CG        53.6900   -9.2700   46.1260 C.3   146  LEU146      0.0022
     45  CD1       53.4780  -10.7150   45.7160 C.3   146  LEU146      0.0001
     46  CD2       52.6270   -8.3650   45.5020 C.3   146  LEU146      0.0001
     47  N         54.6430   -8.2730   50.4860 N.am  147  ALA147     -0.1977
     48  CA        54.5110   -8.3450   51.9370 C.3   147  ALA147      0.1597
     49  C         54.6780   -6.9820   52.6030 C.2   147  ALA147      0.2287
     50  O         54.7230   -6.8790   53.8240 O.2   147  ALA147     -0.2864
     51  CB        55.5380   -9.3460   52.5120 C.3   147  ALA147      0.0319
     52  N         51.4910  -11.7740   54.7130 N.3   152  TYR152     -0.1228
     53  CA        51.6860  -13.1940   54.5060 C.3   152  TYR152      0.1721
     54  C         52.1810  -13.7550   55.8320 C.2   152  TYR152      0.2437
     55  O         52.9660  -13.1170   56.5210 O.2   152  TYR152     -0.2733
     56  CB        52.7550  -13.4280   53.4470 C.3   152  TYR152      0.0547
     57  CG        52.4470  -12.8740   52.0770 C.ar  152  TYR152     -0.0200
     58  CD1       52.8040  -11.5790   51.7340 C.ar  152  TYR152     -0.0009
     59  CD2       51.8330  -13.6610   51.1110 C.ar  152  TYR152     -0.0009
     60  CE1       52.5600  -11.0810   50.4640 C.ar  152  TYR152      0.0417
     61  CE2       51.5850  -13.1730   49.8390 C.ar  152  TYR152      0.0417
     62  CZ        51.9500  -11.8840   49.5240 C.ar  152  TYR152      0.1957
     63  OH        51.6950  -11.4030   48.2620 O.3   152  TYR152     -0.2866
     64  N         51.7390  -14.9610   56.2010 N.am  153  PRO153     -0.2729
     65  CA        52.2140  -15.5840   57.4400 C.3   153  PRO153      0.1401
     66  C         53.7340  -15.7580   57.4520 C.2   153  PRO153      0.2269
     67  O         54.3310  -16.0260   56.4130 O.2   153  PRO153     -0.2865
     68  CB        51.5060  -16.9390   57.4550 C.3   153  PRO153      0.0296
     69  CG        50.3250  -16.7640   56.5750 C.3   153  PRO153      0.0237
     70  CD        50.7700  -15.8150   55.4940 C.3   153  PRO153      0.0939
     71  N         56.4750  -13.8140   58.2740 N.3   155  VAL155     -0.1245
     72  CA        57.4790  -12.7940   58.0020 C.3   155  VAL155      0.1561
     73  C         57.2080  -11.4870   58.7560 C.2   155  VAL155      0.2260
     74  O         57.4080  -10.3930   58.2070 O.2   155  VAL155     -0.2867
     75  CB        57.5820  -12.5210   56.4610 C.3   155  VAL155      0.0252
     76  CG1       57.9100  -13.8190   55.7360 C.3   155  VAL155      0.0019
     77  CG2       56.2730  -11.9510   55.9110 C.3   155  VAL155      0.0019
     78  N         59.7170   -8.5280   59.1100 N.3   158  TYR158     -0.1241
     79  CA        59.9710   -8.1810   57.7000 C.3   158  TYR158      0.1605
     80  C         58.8620   -7.3300   57.0510 C.2   158  TYR158      0.2264
     81  O         59.1450   -6.2840   56.4650 O.2   158  TYR158     -0.2867
     82  CB        60.1710   -9.4830   56.9110 C.3   158  TYR158      0.0534
     83  CG        60.3830   -9.3290   55.4250 C.ar  158  TYR158     -0.0201
     84  CD1       61.6570   -9.1070   54.9040 C.ar  158  TYR158     -0.0009
     85  CD2       59.3290   -9.4760   54.5320 C.ar  158  TYR158     -0.0009
     86  CE1       61.8710   -9.0460   53.5350 C.ar  158  TYR158      0.0417
     87  CE2       59.5370   -9.4220   53.1650 C.ar  158  TYR158      0.0417
     88  CZ        60.8100   -9.2120   52.6720 C.ar  158  TYR158      0.1957
     89  OH        61.0350   -9.2150   51.3130 O.3   158  TYR158     -0.2866
     90  N         57.6420   -6.1140   44.8880 N.3   190  LEU190     -0.1231
     91  CA        58.1100   -7.3180   44.2200 C.3   190  LEU190      0.1693
     92  C         57.4480   -8.5740   44.7780 C.2   190  LEU190      0.2593
     93  O         57.1680   -8.6670   45.9800 O.2   190  LEU190     -0.2718
     94  CB        59.6270   -7.4470   44.3820 C.3   190  LEU190      0.0284
     95  CG        60.6040   -6.6570   43.4930 C.3   190  LEU190      0.0019
     96  CD1       59.9410   -5.4050   42.9260 C.3   190  LEU190      0.0001
     97  CD2       61.8530   -6.3080   44.3160 C.3   190  LEU190      0.0001
     98  N         57.2080   -9.5380   43.8910 N.am  191  GLY191     -0.1942
     99  CA        56.8310  -10.8740   44.3110 C.3   191  GLY191      0.2014
    100  C         58.0700  -11.7480   44.3930 C.2   191  GLY191      0.2638
    101  O         59.1880  -11.2400   44.3240 O.2   191  GLY191     -0.2714
    102  N         57.8790  -13.0570   44.5380 N.am  192  LEU192     -0.1977
    103  CA        59.0000  -13.9770   44.6410 C.3   192  LEU192      0.1596
    104  C         59.9490  -13.8380   43.4590 C.2   192  LEU192      0.2287
    105  O         59.5340  -13.9350   42.3090 O.2   192  LEU192     -0.2864
    106  CB        58.5040  -15.4250   44.7110 C.3   192  LEU192      0.0297
    107  CG        59.5930  -16.4830   44.8970 C.3   192  LEU192      0.0022
    108  CD1       60.3230  -16.2570   46.2270 C.3   192  LEU192      0.0001
    109  CD2       58.9590  -17.8630   44.8560 C.3   192  LEU192      0.0001
    110  N         66.2370  -15.4330   43.5680 N.3   195  THR195     -0.1218
    111  CA        67.5620  -15.2890   44.1700 C.3   195  THR195      0.1862
    112  C         67.8090  -16.5140   45.0350 C.2   195  THR195      0.2287
    113  O         66.8540  -17.0960   45.5780 O.2   195  THR195     -0.2866
    114  CB        67.6810  -14.0160   45.0700 C.3   195  THR195      0.1770
    115  OG1       66.9610  -14.2020   46.2970 O.3   195  THR195     -0.2211
    116  CG2       67.1350  -12.8040   44.3360 C.3   195  THR195      0.0375
    117  N         69.2860  -16.9490   47.9830 N.3   197  THR197     -0.1203
    118  CA        68.9070  -16.7710   49.3710 C.3   197  THR197      0.1994
    119  C         67.4030  -16.9510   49.5610 C.2   197  THR197      0.2617
    120  O         66.9690  -17.5850   50.5220 O.2   197  THR197     -0.2717
    121  CB        69.3100  -15.3750   49.8900 C.3   197  THR197      0.1784
    122  OG1       70.7300  -15.2150   49.7730 O.3   197  THR197     -0.2211
    123  CG2       68.9060  -15.2140   51.3540 C.3   197  THR197      0.0376
    124  N         66.6050  -16.3990   48.6510 N.am  198  ALA198     -0.1979
    125  CA        65.1540  -16.5150   48.7770 C.3   198  ALA198      0.1597
    126  C         64.6630  -17.9130   48.4020 C.2   198  ALA198      0.2287
    127  O         63.6950  -18.4100   48.9810 O.2   198  ALA198     -0.2864
    128  CB        64.4560  -15.4640   47.9170 C.3   198  ALA198      0.0319
    129  N         65.3420  -19.9780   51.2190 N.3   201  ALA201     -0.1231
    130  CA        64.5170  -19.6480   52.3690 C.3   201  ALA201      0.1694
    131  C         63.1320  -20.2870   52.2880 C.2   201  ALA201      0.2591
    132  O         62.6030  -20.7650   53.2950 O.2   201  ALA201     -0.2718
    133  CB        64.3830  -18.1380   52.4970 C.3   201  ALA201      0.0304
    134  N         62.5390  -20.2940   51.0980 N.am  202  VAL202     -0.1980
    135  CA        61.1620  -20.7560   50.9650 C.3   202  VAL202      0.1595
    136  C         61.0660  -22.2660   50.8700 C.2   202  VAL202      0.2287
    137  O         59.9700  -22.8250   50.9680 O.2   202  VAL202     -0.2864
    138  CB        60.4700  -20.1580   49.7200 C.3   202  VAL202      0.0276
    139  CG1       60.4220  -18.6510   49.8330 C.3   202  VAL202      0.0022
    140  CG2       61.2130  -20.5850   48.4480 C.3   202  VAL202      0.0022
    141  N         57.1390  -22.6840   51.1820 N.3   206  VAL206     -0.1245
    142  CA        56.2620  -21.9520   50.2660 C.3   206  VAL206      0.1561
    143  C         56.5110  -22.3380   48.8110 C.2   206  VAL206      0.2260
    144  O         57.6360  -22.2510   48.3230 O.2   206  VAL206     -0.2867
    145  CB        56.4500  -20.4150   50.4120 C.3   206  VAL206      0.0252
    146  CG1       55.7760  -19.6890   49.2560 C.3   206  VAL206      0.0019
    147  CG2       55.8510  -19.9460   51.7220 C.3   206  VAL206      0.0019
@<TRIPOS>BOND
     1   105   104    2
     2    96    95    1
     3   104   103    1
     4    95    97    1
     5    95    94    1
     6   110   111    1
     7    98    99    1
     8    98    92   am
     9   111   112    1
    10   111   114    1
    11    91    94    1
    12    91    92    1
    13    91    90    1
    14    99   100    1
    15   101   100    2
    16   116   114    1
    17   100   102   am
    18   102   103    1
    19   103   106    1
    20   106   107    1
    21    92    93    2
    22   109   107    1
    23   107   108    1
    24   112   113    2
    25   114   115    1
    26    46    44    1
    27    45    44    1
    28    44    43    1
    29    43    40    1
    30   128   125    1
    31   117   118    1
    32    39    40    1
    33    39    35   am
    34    40    41    1
    35    63    62    1
    36   144   143    2
    37   126   125    1
    38   126   127    2
    39   140   138    1
    40    34    35    1
    41    34    33    1
    42    34    37    1
    43    35    36    2
    44   124   125    1
    45   124   119   am
    46   143   142    1
    47   146   145    1
    48   118   119    1
    49   118   121    1
    50    62    61   ar
    51    62    60   ar
    52   119   120    2
    53    37    38    1
    54    41    42    2
    55    41    47   am
    56   138   139    1
    57   138   135    1
    58   122   121    1
    59    61    59   ar
    60   121   123    1
    61   142   145    1
    62   142   141    1
    63   145   147    1
    64    60    58   ar
    65    47    48    1
    66   136   135    1
    67   136   137    2
    68   135   134    1
    69   134   131   am
    70    59    57   ar
    71   129   130    1
    72    89    88    1
    73    58    57   ar
    74    48    51    1
    75    48    49    1
    76    57    56    1
    77   131   130    1
    78   131   132    2
    79   130   133    1
    80     6     8    1
    81     6     5    1
    82    49    50    2
    83    88    87   ar
    84    88    86   ar
    85     1     2    1
    86    87    85   ar
    87     7     5    1
    88    56    53    1
    89    86    84   ar
    90     5     2    1
    91    32    30    1
    92     2     3    1
    93     4     3    2
    94    53    52    1
    95    53    54    1
    96    85    83   ar
    97    84    83   ar
    98    31    30    1
    99    30    29    1
   100    83    82    1
   101    70    64    1
   102    70    69    1
   103    23    22    1
   104    21    20    2
   105    22    24    1
   106    22    19    1
   107    76    75    1
   108    54    64   am
   109    54    55    2
   110    77    75    1
   111    64    65    1
   112    29    26    1
   113    67    66    2
   114    75    72    1
   115    81    80    2
   116    18    19    1
   117    18    11   am
   118    69    68    1
   119    20    19    1
   120    82    79    1
   121    10     9    1
   122    10    11    1
   123    10    13    1
   124    80    79    1
   125    25    26    1
   126    11    12    2
   127    26    27    1
   128    65    66    1
   129    65    68    1
   130    79    78    1
   131    14    13    1
   132    14    15    1
   133    16    15    2
   134    72    71    1
   135    72    73    1
   136    74    73    2
   137    15    17   am
   138    27    28    2
