@<TRIPOS>MOLECULE
tmp/3gmmA00.pdb
 87 84 0 0 0
SMALL
GASTEIGER

@<TRIPOS>ATOM
      1  N          1.6420    7.4560    1.8350 N.3    16  SER16      -0.1202
      2  CA         0.3940    7.9360    2.4220 C.3    16  SER16       0.2020
      3  C         -0.7870    6.9960    2.2420 C.2    16  SER16       0.2619
      4  O         -1.9270    7.3860    2.5230 O.2    16  SER16      -0.2717
      5  CB        -0.0080    9.2540    1.7660 C.3    16  SER16       0.2103
      6  OG         1.0390   10.1790    1.9260 O.3    16  SER16      -0.2182
      7  N         -0.5770    5.8080    1.6870 N.am   17  TRP17      -0.1961
      8  CA        -1.7320    4.9610    1.3360 C.3    17  TRP17       0.1771
      9  C         -1.4230    3.4890    1.5770 C.2    17  TRP17       0.2620
     10  O         -0.4710    2.9450    1.0080 O.2    17  TRP17      -0.2715
     11  CB        -2.0790    5.1100   -0.1470 C.3    17  TRP17       0.0590
     12  CG        -3.3730    4.5070   -0.5590 C.ar   17  TRP17       0.0006
     13  CD1       -4.5660    5.1740   -0.7420 C.ar   17  TRP17       0.0946
     14  CD2       -3.6330    3.1220   -0.9010 C.ar   17  TRP17       0.0152
     15  NE1       -5.5510    4.2830   -1.1280 N.ar   17  TRP17      -0.2442
     16  CE2       -5.0090    3.0250   -1.2300 C.ar   17  TRP17       0.0810
     17  CE3       -2.8490    1.9390   -0.8990 C.ar   17  TRP17       0.0012
     18  CZ2       -5.6100    1.8100   -1.5810 C.ar   17  TRP17       0.0191
     19  CZ3       -3.4450    0.7510   -1.2630 C.ar   17  TRP17       0.0001
     20  CH2       -4.8140    0.6910   -1.6040 C.ar   17  TRP17       0.0015
     21  N         -2.2120    2.8240    2.3950 N.am   18  SER18      -0.1936
     22  CA        -2.0100    1.3710    2.5010 C.3    18  SER18       0.2055
     23  C         -3.3050    0.8190    2.9600 C.2    18  SER18       0.2642
     24  O         -4.1680    1.5820    3.4660 O.2    18  SER18      -0.2714
     25  CB        -0.9120    1.0440    3.5090 C.3    18  SER18       0.2130
     26  OG        -1.4510    1.0010    4.8240 O.3    18  SER18      -0.2179
     27  N         -3.4880   -0.4750    2.7820 N.am   19  ARG19      -0.1977
     28  CA        -4.6430   -1.0930    3.3450 C.3    19  ARG19       0.1597
     29  C         -4.3290   -2.5020    3.7660 C.2    19  ARG19       0.2287
     30  O         -3.4630   -3.1420    3.1710 O.2    19  ARG19      -0.2864
     31  CB        -5.8650   -1.0510    2.3950 C.3    19  ARG19       0.0334
     32  CG        -5.9370   -1.9840    1.2020 C.3    19  ARG19       0.0492
     33  CD        -7.3930   -1.7470    0.4990 C.3    19  ARG19       0.2205
     34  NE        -8.4900   -2.4930    1.1770 N.pl3  19  ARG19      -0.0865
     35  CZ        -9.6280   -1.9580    1.6440 C.cat  19  ARG19       0.5346
     36  NH1       -9.8720   -0.6830    1.4610 N.pl3  19  ARG19       0.1354
     37  NH2      -10.5350   -2.6860    2.2750 N.pl3  19  ARG19       0.1354
     38  N        -10.2040   -3.5520    5.8590 N.3    36  ASN36      -0.1225
     39  CA        -9.4710   -2.3960    6.2970 C.3    36  ASN36       0.1785
     40  C        -10.4420   -1.3290    6.8080 C.2    36  ASN36       0.2597
     41  O        -10.0830   -0.5840    7.7120 O.2    36  ASN36      -0.2718
     42  CB        -8.6980   -1.7540    5.1440 C.3    36  ASN36       0.1169
     43  CG        -7.6900   -0.7400    5.6440 C.2    36  ASN36       0.2627
     44  OD1       -6.6190   -1.0860    6.1260 O.2    36  ASN36      -0.2716
     45  ND2       -8.0520    0.5560    5.5540 N.am   36  ASN36      -0.0877
     46  N        -11.6270   -1.2350    6.2100 N.am   37  ASP37      -0.1974
     47  CA       -12.5940   -0.1440    6.5070 C.3    37  ASP37       0.1709
     48  C        -13.2250   -0.3450    7.8590 C.2    37  ASP37       0.2293
     49  O        -13.9310    0.5260    8.3720 O.2    37  ASP37      -0.2864
     50  CB       -13.7610   -0.1420    5.5130 C.3    37  ASP37       0.1436
     51  CG       -13.3560    0.2750    4.1170 C.2    37  ASP37       0.3671
     52  OD1      -14.1540    0.0100    3.2010 O.co2  37  ASP37      -0.2456
     53  OD2      -12.2810    0.8930    3.9390 O.co2  37  ASP37      -0.2456
     54  N         -2.7700   -4.9480   14.1070 N.3    68  ARG68      -0.1231
     55  CA        -2.9650   -4.3640   12.7660 C.3    68  ARG68       0.1694
     56  C         -2.3300   -2.9810   12.6620 C.2    68  ARG68       0.2591
     57  O         -1.6840   -2.6620   11.6720 O.2    68  ARG68      -0.2718
     58  CB        -4.4460   -4.3050   12.3540 C.3    68  ARG68       0.0321
     59  CG        -4.6420   -3.6270   11.0320 C.3    68  ARG68       0.0489
     60  CD        -6.0940   -3.8040   10.5050 C.3    68  ARG68       0.2205
     61  NE        -7.0050   -2.9240   11.2120 N.pl3  68  ARG68      -0.0865
     62  CZ        -8.3030   -2.7500   10.8890 C.cat  68  ARG68       0.5346
     63  NH1       -8.8330   -3.4310    9.8980 N.pl3  68  ARG68       0.1354
     64  NH2       -9.0600   -1.8650   11.5490 N.pl3  68  ARG68       0.1354
     65  N         -2.5510   -2.1250   13.6730 N.am   69  VAL69      -0.1980
     66  CA        -1.9340   -0.8070   13.6460 C.3    69  VAL69       0.1595
     67  C         -0.3760   -0.9220   13.7600 C.2    69  VAL69       0.2287
     68  O          0.3430   -0.1870   13.0840 O.2    69  VAL69      -0.2864
     69  CB        -2.4700    0.0680   14.8120 C.3    69  VAL69       0.0276
     70  CG1       -1.6260    1.3660   14.9450 C.3    69  VAL69       0.0022
     71  CG2       -3.9800    0.3670   14.6040 C.3    69  VAL69       0.0022
     72  N          1.2390   -2.0590   10.3880 N.3    72  THR72      -0.1218
     73  CA         1.3010   -0.9960    9.4170 C.3    72  THR72       0.1862
     74  C          2.3840    0.0490    9.7170 C.2    72  THR72       0.2287
     75  O          3.1700    0.4000    8.8300 O.2    72  THR72      -0.2866
     76  CB        -0.0630   -0.2810    9.3180 C.3    72  THR72       0.1770
     77  OG1       -1.0830   -1.2660    9.0510 O.3    72  THR72      -0.2211
     78  CG2       -0.0910    0.7880    8.2290 C.3    72  THR72       0.0375
     79  N          5.7750    0.6260    7.3810 N.3    76  GLN76      -0.1245
     80  CA         6.0260    1.9790    6.8410 C.3    76  GLN76       0.1566
     81  C          7.4020    2.5480    7.3700 C.2    76  GLN76       0.2260
     82  O          8.1340    3.2790    6.6450 O.2    76  GLN76      -0.2867
     83  CB         4.8630    2.9530    7.2170 C.3    76  GLN76       0.0367
     84  CG         3.5860    2.6900    6.3790 C.3    76  GLN76       0.0905
     85  CD         2.4080    3.5260    6.7550 C.2    76  GLN76       0.2608
     86  OE1        2.2120    3.9040    7.9290 O.2    76  GLN76      -0.2717
     87  NE2        1.5500    3.7870    5.7570 N.am   76  GLN76      -0.0878
@<TRIPOS>BOND
     1    20    18   ar
     2    20    19   ar
     3    18    16   ar
     4    19    17   ar
     5    16    15   ar
     6    16    14   ar
     7    15    13   ar
     8    14    17   ar
     9    14    12   ar
    10    13    12   ar
    11    12    11    1
    12    11     8    1
    13    33    34    1
    14    33    32    1
    15    10     9    2
    16    34    35    2
    17    32    31    1
    18     8     9    1
    19     8     7    1
    20    36    35    1
    21     9    21   am
    22    35    37    1
    23     7     3   am
    24     5     6    1
    25     5     2    1
    26     1     2    1
    27     3     2    1
    28     3     4    2
    29    21    22    1
    30    31    28    1
    31    22    23    1
    32    22    25    1
    33    27    23   am
    34    27    28    1
    35    23    24    2
    36    30    29    2
    37    52    51   ar
    38    28    29    1
    39    25    26    1
    40    53    51   ar
    41    51    50    1
    42    42    43    1
    43    42    39    1
    44    50    47    1
    45    45    43   am
    46    43    44    2
    47    87    85   am
    48    38    39    1
    49    46    47    1
    50    46    40   am
    51    39    40    1
    52    84    85    1
    53    84    83    1
    54    47    48    1
    55    82    81    2
    56    85    86    2
    57    40    41    2
    58    80    83    1
    59    80    81    1
    60    80    79    1
    61    48    49    2
    62    78    76    1
    63    75    74    2
    64    77    76    1
    65    76    73    1
    66    73    74    1
    67    73    72    1
    68    63    62    1
    69    60    59    1
    70    60    61    1
    71    62    61    2
    72    62    64    1
    73    59    58    1
    74    57    56    2
    75    58    55    1
    76    56    55    1
    77    56    65   am
    78    55    54    1
    79    68    67    2
    80    66    65    1
    81    66    67    1
    82    66    69    1
    83    71    69    1
    84    69    70    1
