@<TRIPOS>MOLECULE
tmp/3gmmA01.pdb
 123 121 0 0 0
SMALL
GASTEIGER

@<TRIPOS>ATOM
      1  N         -2.2230  -31.5040   16.6060 N.3   106  SER106     -0.1202
      2  CA        -2.2860  -30.3620   15.6950 C.3   106  SER106      0.2020
      3  C         -0.9230  -29.7480   15.4250 C.2   106  SER106      0.2619
      4  O         -0.0070  -29.8500   16.2710 O.2   106  SER106     -0.2717
      5  CB        -3.2750  -29.2830   16.1770 C.3   106  SER106      0.2103
      6  OG        -2.7200  -28.4460   17.1860 O.3   106  SER106     -0.2182
      7  N         -0.7880  -29.1240   14.2420 N.am  107  GLU107     -0.1965
      8  CA         0.4300  -28.3950   13.8910 C.3   107  GLU107      0.1733
      9  C          0.0820  -26.9810   13.4090 C.2   107  GLU107      0.2617
     10  O         -0.8990  -26.8050   12.6830 O.2   107  GLU107     -0.2715
     11  CB         1.2300  -29.1580   12.8250 C.3   107  GLU107      0.0429
     12  CG         2.0060  -28.2280   11.8960 C.3   107  GLU107      0.1163
     13  CD         3.3680  -28.7680   11.4990 C.2   107  GLU107      0.3649
     14  OE1        3.5870  -29.9840   11.7240 O.co2 107  GLU107     -0.2457
     15  OE2        4.2160  -27.9730   10.9830 O.co2 107  GLU107     -0.2457
     16  N          0.8700  -25.9800   13.8070 N.am  108  SER108     -0.1936
     17  CA         0.5270  -24.5970   13.4660 C.3   108  SER108      0.2055
     18  C          1.5880  -24.0560   12.5160 C.2   108  SER108      0.2643
     19  O          2.6910  -24.6470   12.4460 O.2   108  SER108     -0.2714
     20  CB         0.5330  -23.7670   14.7500 C.3   108  SER108      0.2130
     21  OG        -0.5120  -24.2670   15.6090 O.3   108  SER108     -0.2179
     22  N          1.3210  -22.9110   11.8780 N.am  109  PHE109     -0.1973
     23  CA         2.2510  -22.3490   10.8850 C.3   109  PHE109      0.1639
     24  C          1.9980  -20.8870   10.8320 C.2   109  PHE109      0.2290
     25  O          0.9180  -20.4320   11.2710 O.2   109  PHE109     -0.2864
     26  CB         1.9720  -22.9450    9.4760 C.3   109  PHE109      0.0560
     27  CG         0.5120  -22.8490    9.0630 C.ar  109  PHE109     -0.0200
     28  CD1       -0.3760  -23.8770    9.3450 C.ar  109  PHE109     -0.0042
     29  CD2        0.0420  -21.7260    8.4090 C.ar  109  PHE109     -0.0042
     30  CE1       -1.7360  -23.7470    9.0150 C.ar  109  PHE109     -0.0003
     31  CE2       -1.3630  -21.6210    8.0340 C.ar  109  PHE109     -0.0003
     32  CZ        -2.1910  -22.6080    8.3260 C.ar  109  PHE109     -0.0000
     33  N          7.5070  -18.0970   11.0430 N.3   122  PHE122     -0.1227
     34  CA         7.7900  -18.1400   12.4580 C.3   122  PHE122      0.1736
     35  C          7.9430  -19.6080   12.7530 C.2   122  PHE122      0.2595
     36  O          7.0970  -20.4360   12.3550 O.2   122  PHE122     -0.2718
     37  CB         6.6900  -17.4270   13.3230 C.3   122  PHE122      0.0547
     38  CG         7.0880  -17.3460   14.7870 C.ar  122  PHE122     -0.0202
     39  CD1        7.7360  -16.2270   15.2930 C.ar  122  PHE122     -0.0042
     40  CD2        6.8640  -18.4390   15.6010 C.ar  122  PHE122     -0.0042
     41  CE1        8.1730  -16.2120   16.6480 C.ar  122  PHE122     -0.0003
     42  CE2        7.2740  -18.4390   16.9450 C.ar  122  PHE122     -0.0003
     43  CZ         7.8690  -17.3060   17.4830 C.ar  122  PHE122     -0.0000
     44  N          8.9900  -19.9950   13.4640 N.am  123  TRP123     -0.1962
     45  CA         9.1580  -21.4320   13.6780 C.3   123  TRP123      0.1771
     46  C          9.7970  -21.6670   15.0230 C.2   123  TRP123      0.2620
     47  O         10.8420  -21.1410   15.2660 O.2   123  TRP123     -0.2715
     48  CB        10.0210  -22.0620   12.5280 C.3   123  TRP123      0.0590
     49  CG        10.1120  -23.5830   12.5620 C.ar  123  TRP123      0.0006
     50  CD1       11.2240  -24.3050   12.7950 C.ar  123  TRP123      0.0946
     51  CD2        9.0390  -24.5420   12.3550 C.ar  123  TRP123      0.0152
     52  NE1       10.9170  -25.6450   12.7450 N.ar  123  TRP123     -0.2442
     53  CE2        9.5940  -25.8130   12.4760 C.ar  123  TRP123      0.0810
     54  CE3        7.6740  -24.4280   12.0410 C.ar  123  TRP123      0.0012
     55  CZ2        8.8320  -26.9980   12.3420 C.ar  123  TRP123      0.0191
     56  CZ3        6.8910  -25.6130   11.9040 C.ar  123  TRP123      0.0001
     57  CH2        7.4980  -26.8780   12.0470 C.ar  123  TRP123      0.0015
     58  N          9.1480  -22.4350   15.8920 N.am  124  GLY124     -0.1940
     59  CA         9.7450  -22.6920   17.2160 C.3   124  GLY124      0.2014
     60  C          9.5990  -21.4790   18.1210 C.2   124  GLY124      0.2639
     61  O          8.5020  -21.2150   18.6340 O.2   124  GLY124     -0.2714
     62  N         10.6870  -20.7250   18.2980 N.am  125  THR125     -0.1950
     63  CA        10.5590  -19.4990   19.0740 C.3   125  THR125      0.1897
     64  C         11.0300  -18.2680   18.3230 C.2   125  THR125      0.2313
     65  O         11.1870  -17.1940   18.9140 O.2   125  THR125     -0.2863
     66  CB        11.3670  -19.5700   20.3990 C.3   125  THR125      0.1794
     67  OG1       12.7350  -19.7230   20.0890 O.3   125  THR125     -0.2208
     68  CG2       10.9040  -20.7460   21.2650 C.3   125  THR125      0.0378
     69  N         12.2480  -16.3800   11.0360 N.3   128  GLN128     -0.1245
     70  CA        13.4120  -16.7290   10.2240 C.3   128  GLN128      0.1566
     71  C         13.1100  -16.2620    8.7930 C.2   128  GLN128      0.2260
     72  O         11.9560  -16.1310    8.3730 O.2   128  GLN128     -0.2867
     73  CB        13.6360  -18.2540   10.3010 C.3   128  GLN128      0.0367
     74  CG        13.3440  -18.8240   11.7110 C.3   128  GLN128      0.0905
     75  CD        13.5300  -20.3000   11.8970 C.2   128  GLN128      0.2608
     76  OE1       13.7220  -21.0620   10.9450 O.2   128  GLN128     -0.2717
     77  NE2       13.5390  -20.7190   13.1760 N.am  128  GLN128     -0.0878
     78  N          6.7640  -14.1830   22.5010 N.3   152  ALA152     -0.1245
     79  CA         5.9390  -14.9600   23.4520 C.3   152  ALA152      0.1562
     80  C          4.4670  -14.9880   23.0740 C.2   152  ALA152      0.2260
     81  O          3.7800  -16.0540   23.2160 O.2   152  ALA152     -0.2867
     82  CB         6.1400  -14.3870   24.8450 C.3   152  ALA152      0.0290
     83  N          4.1680  -17.3570   19.9660 N.3   155  GLN155     -0.1231
     84  CA         4.2530  -18.7490   20.4000 C.3   155  GLN155      0.1698
     85  C          2.9260  -19.1620   21.0730 C.2   155  GLN155      0.2592
     86  O          2.4740  -20.2980   20.8590 O.2   155  GLN155     -0.2718
     87  CB         5.3760  -18.9600   21.4070 C.3   155  GLN155      0.0381
     88  CG         6.7740  -18.7220   20.8080 C.3   155  GLN155      0.0905
     89  CD         7.8400  -18.8400   21.8660 C.2   155  GLN155      0.2608
     90  OE1        7.8020  -19.7480   22.6790 O.2   155  GLN155     -0.2717
     91  NE2        8.7700  -17.8910   21.8860 N.am  155  GLN155     -0.0878
     92  N          2.3680  -18.3010   21.9510 N.am  156  MET156     -0.1979
     93  CA         1.0510  -18.6020   22.5650 C.3   156  MET156      0.1605
     94  C         -0.0420  -18.8150   21.5090 C.2   156  MET156      0.2287
     95  O         -0.7570  -19.8050   21.5540 O.2   156  MET156     -0.2864
     96  CB         0.6150  -17.4990   23.5480 C.3   156  MET156      0.0413
     97  CG        -0.7890  -17.5960   24.1380 C.3   156  MET156      0.0598
     98  SD        -1.2730  -16.0370   24.9870 S.3   156  MET156     -0.1393
     99  CE        -1.7050  -15.1390   23.4920 C.3   156  MET156      0.0692
    100  N          0.1230  -19.4460   18.2770 N.3   158  LEU158     -0.1231
    101  CA         0.3580  -20.6260   17.4350 C.3   158  LEU158      0.1693
    102  C          0.1780  -21.8970   18.1980 C.2   158  LEU158      0.2592
    103  O         -0.6650  -22.7170   17.8080 O.2   158  LEU158     -0.2718
    104  CB         1.7500  -20.6170   16.7440 C.3   158  LEU158      0.0284
    105  CG         1.9330  -19.4680   15.7550 C.3   158  LEU158      0.0019
    106  CD1        3.3780  -19.2810   15.3150 C.3   158  LEU158      0.0001
    107  CD2        1.0260  -19.6350   14.4980 C.3   158  LEU158      0.0001
    108  N          0.8890  -22.0550   19.3320 N.am  159  ASN159     -0.1960
    109  CA         0.9050  -23.3520   20.0530 C.3   159  ASN159      0.1819
    110  C         -0.3700  -23.5640   20.8690 C.2   159  ASN159      0.2621
    111  O         -0.7330  -24.7050   21.1260 O.2   159  ASN159     -0.2715
    112  CB         2.0670  -23.4500   21.0540 C.3   159  ASN159      0.1195
    113  CG         3.4420  -23.3260   20.4080 C.2   159  ASN159      0.2630
    114  OD1        3.5710  -22.9860   19.2280 O.2   159  ASN159     -0.2716
    115  ND2        4.4750  -23.6030   21.2050 N.am  159  ASN159     -0.0877
    116  N         -1.0710  -22.4930   21.2650 N.am  160  ASP160     -0.1971
    117  CA        -2.1930  -22.6820   22.2280 C.3   160  ASP160      0.1709
    118  C         -3.5150  -22.0690   21.8250 C.2   160  ASP160      0.2293
    119  O         -4.5090  -22.7620   21.8180 O.2   160  ASP160     -0.2864
    120  CB        -1.7860  -22.1580   23.5910 C.3   160  ASP160      0.1436
    121  CG        -0.5040  -22.8240   24.1110 C.2   160  ASP160      0.3671
    122  OD1       -0.4000  -24.0610   24.1450 O.co2 160  ASP160     -0.2456
    123  OD2        0.4300  -22.1060   24.5010 O.co2 160  ASP160     -0.2456
@<TRIPOS>BOND
     1    31    32   ar
     2    31    29   ar
     3    32    30   ar
     4    72    71    2
     5    29    27   ar
     6    71    70    1
     7    30    28   ar
     8    27    28   ar
     9    27    26    1
    10    26    23    1
    11    70    73    1
    12    70    69    1
    13    73    74    1
    14    24    23    1
    15    24    25    2
    16    23    22    1
    17    76    75    2
    18    15    13   ar
    19    33    34    1
    20    13    14   ar
    21    13    12    1
    22    74    75    1
    23    22    18   am
    24    12    11    1
    25    75    77   am
    26    56    54   ar
    27    56    57   ar
    28    54    51   ar
    29    57    55   ar
    30    55    53   ar
    31    36    35    2
    32    51    53   ar
    33    51    49   ar
    34    19    18    2
    35    34    35    1
    36    34    37    1
    37    53    52   ar
    38    18    17    1
    39    48    49    1
    40    48    45    1
    41    49    50   ar
    42    10     9    2
    43    52    50   ar
    44    35    44   am
    45    11     8    1
    46    37    38    1
    47     9    16   am
    48     9     8    1
    49    44    45    1
    50    17    16    1
    51    17    20    1
    52    45    46    1
    53     8     7    1
    54     7     3   am
    55   107   105    1
    56    20    21    1
    57    38    39   ar
    58    38    40   ar
    59    46    47    2
    60    46    58   am
    61    39    41   ar
    62   106   105    1
    63     3     2    1
    64     3     4    2
    65    40    42   ar
    66     2     5    1
    67     2     1    1
    68   105   104    1
    69    58    59    1
    70     5     6    1
    71    41    43   ar
    72   104   101    1
    73    42    43   ar
    74    59    60    1
    75   101   102    1
    76   101   100    1
    77   103   102    2
    78    60    62   am
    79    60    61    2
    80   102   108   am
    81    62    63    1
    82    64    65    2
    83    64    63    1
    84    63    66    1
    85   114   113    2
    86   108   109    1
    87    83    84    1
    88   109   110    1
    89   109   112    1
    90    67    66    1
    91    66    68    1
    92    84    85    1
    93    84    87    1
    94   113   112    1
    95   113   115   am
    96    88    87    1
    97    88    89    1
    98    86    85    2
    99   110   111    2
   100   110   116   am
   101    85    92   am
   102   116   117    1
   103    94    95    2
   104    94    93    1
   105   119   118    2
   106   118   117    1
   107    89    91   am
   108    89    90    2
   109    92    93    1
   110   117   120    1
   111    78    79    1
   112    93    96    1
   113    80    81    2
   114    80    79    1
   115    79    82    1
   116    99    98    1
   117    96    97    1
   118   120   121    1
   119   121   122   ar
   120   121   123   ar
   121    97    98    1
