@<TRIPOS>MOLECULE
tmp/3gn0B00.pdb
 117 107 0 0 0
SMALL
GASTEIGER

@<TRIPOS>ATOM
      1  N        -27.2170  -17.8990   69.8220 N.3   122  HIS122     -0.1241
      2  CA       -26.2500  -16.8390   69.5140 C.3   122  HIS122      0.1621
      3  C        -25.3080  -17.1850   68.3560 C.2   122  HIS122      0.2264
      4  O        -25.0430  -18.3580   68.0970 O.2   122  HIS122     -0.2867
      5  CB       -25.3890  -16.5430   70.7470 C.3   122  HIS122      0.0745
      6  CG       -26.1550  -16.5180   72.0310 C.ar  122  HIS122      0.0817
      7  ND1      -26.3840  -17.6510   72.7830 N.ar  122  HIS122     -0.2268
      8  CD2      -26.7660  -15.5000   72.6850 C.ar  122  HIS122      0.1154
      9  CE1      -27.1030  -17.3320   73.8440 C.ar  122  HIS122      0.1986
     10  NE2      -27.3490  -16.0340   73.8070 N.ar  122  HIS122     -0.2212
     11  N        -22.1390  -16.1590   68.2950 N.3   124  ASP124     -0.1239
     12  CA       -20.8130  -16.3310   68.8820 C.3   124  ASP124      0.1674
     13  C        -19.7420  -15.8620   67.9120 C.2   124  ASP124      0.2266
     14  O        -18.6680  -16.4540   67.8310 O.2   124  ASP124     -0.2867
     15  CB       -20.5660  -17.8020   69.2210 C.3   124  ASP124      0.1410
     16  CG       -21.4600  -18.2930   70.3220 C.2   124  ASP124      0.3668
     17  OD1      -22.1450  -17.4480   70.9320 O.co2 124  ASP124     -0.2456
     18  OD2      -21.4740  -19.5130   70.5810 O.co2 124  ASP124     -0.2456
     19  N        -18.5060  -12.6030   67.8520 N.3   126  ASN126     -0.1240
     20  CA       -17.9450  -11.3460   68.3110 C.3   126  ASN126      0.1653
     21  C        -16.4320  -11.4430   68.1930 C.2   126  ASN126      0.2266
     22  O        -15.8570  -12.4960   68.4580 O.2   126  ASN126     -0.2867
     23  CB       -18.3160  -11.0870   69.7760 C.3   126  ASN126      0.1155
     24  CG       -19.5420  -10.2060   69.9250 C.2   126  ASN126      0.2627
     25  OD1      -19.5790   -9.0920   69.4150 O.2   126  ASN126     -0.2716
     26  ND2      -20.5470  -10.7030   70.6300 N.am  126  ASN126     -0.0877
     27  N        -16.6210   -7.2900   70.9860 N.3   131  THR131     -0.1203
     28  CA       -17.2140   -7.8490   72.1960 C.3   131  THR131      0.1994
     29  C        -17.4060   -6.7950   73.2880 C.2   131  THR131      0.2619
     30  O        -16.5800   -5.8970   73.4600 O.2   131  THR131     -0.2717
     31  CB       -16.3450   -8.9830   72.7700 C.3   131  THR131      0.1784
     32  OG1      -17.0550   -9.6290   73.8330 O.3   131  THR131     -0.2211
     33  CG2      -15.0270   -8.4340   73.3110 C.3   131  THR131      0.0376
     34  N        -18.5070   -6.9110   74.0190 N.am  132  THR132     -0.1938
     35  CA       -18.8050   -5.9840   75.1000 C.3   132  THR132      0.2028
     36  C        -18.6790   -6.7410   76.4130 C.2   132  THR132      0.2642
     37  O        -18.2470   -6.1930   77.4210 O.2   132  THR132     -0.2714
     38  CB       -20.2390   -5.4380   74.9990 C.3   132  THR132      0.1808
     39  OG1      -21.1610   -6.5330   74.9790 O.3   132  THR132     -0.2208
     40  CG2      -20.4130   -4.6130   73.7440 C.3   132  THR132      0.0379
     41  N        -19.0580   -8.0130   76.3870 N.am  133  SER133     -0.1949
     42  CA       -18.9990   -8.8530   77.5690 C.3   133  SER133      0.1924
     43  C        -17.5660   -9.2470   77.8820 C.2   133  SER133      0.2314
     44  O        -17.1870   -9.3520   79.0480 O.2   133  SER133     -0.2863
     45  CB       -19.8310  -10.1160   77.3500 C.3   133  SER133      0.2116
     46  OG       -19.2600  -10.9340   76.3410 O.3   133  SER133     -0.2180
     47  N        -16.3890  -12.0880   77.0290 N.3   135  ASN135     -0.1240
     48  CA       -16.4000  -13.5420   77.1610 C.3   135  ASN135      0.1653
     49  C        -16.0730  -14.1750   75.8180 C.2   135  ASN135      0.2266
     50  O        -16.7040  -13.8650   74.8060 O.2   135  ASN135     -0.2867
     51  CB       -17.7670  -14.0230   77.6520 C.3   135  ASN135      0.1155
     52  CG       -18.1760  -13.3600   78.9450 C.2   135  ASN135      0.2627
     53  OD1      -17.3580  -13.1920   79.8500 O.2   135  ASN135     -0.2716
     54  ND2      -19.4460  -12.9850   79.0460 N.am  135  ASN135     -0.0877
     55  N        -16.5540  -17.2550   74.8360 N.3   137  HIS137     -0.1226
     56  CA       -17.4790  -18.2740   74.3460 C.3   137  HIS137      0.1752
     57  C        -18.4820  -17.6210   73.4050 C.2   137  HIS137      0.2596
     58  O        -19.3230  -18.2900   72.8120 O.2   137  HIS137     -0.2718
     59  CB       -18.2080  -18.9920   75.4940 C.3   137  HIS137      0.0759
     60  CG       -19.2950  -18.1850   76.1360 C.ar  137  HIS137      0.0818
     61  ND1      -20.3720  -18.7690   76.7690 N.ar  137  HIS137     -0.2268
     62  CD2      -19.4710  -16.8460   76.2520 C.ar  137  HIS137      0.1154
     63  CE1      -21.1660  -17.8240   77.2430 C.ar  137  HIS137      0.1986
     64  NE2      -20.6420  -16.6480   76.9430 N.ar  137  HIS137     -0.2212
     65  N        -18.3740  -16.3020   73.2750 N.am  138  GLY138     -0.1957
     66  CA       -19.2430  -15.5520   72.3870 C.3   138  GLY138      0.1869
     67  C        -18.4100  -14.9630   71.2620 C.2   138  GLY138      0.2309
     68  O        -18.8170  -14.0050   70.6110 O.2   138  GLY138     -0.2863
     69  N        -30.6510  -13.9660   69.7530 N.3   177  ASP177     -0.1239
     70  CA       -30.0060  -12.9610   70.6090 C.3   177  ASP177      0.1674
     71  C        -28.6180  -12.7160   70.0340 C.2   177  ASP177      0.2266
     72  O        -27.6320  -13.2850   70.5090 O.2   177  ASP177     -0.2867
     73  CB       -29.8690  -13.4470   72.0540 C.3   177  ASP177      0.1410
     74  CG       -29.4380  -12.3310   73.0060 C.2   177  ASP177      0.3668
     75  OD1      -28.6920  -11.4280   72.5820 O.co2 177  ASP177     -0.2456
     76  OD2      -29.8330  -12.3610   74.1870 O.co2 177  ASP177     -0.2456
     77  N        -25.7250   -9.8370   68.9540 N.3   179  ASP179     -0.1239
     78  CA       -25.2930   -8.4690   69.2210 C.3   179  ASP179      0.1674
     79  C        -25.2910   -7.6260   67.9450 C.2   179  ASP179      0.2266
     80  O        -25.1990   -8.1590   66.8430 O.2   179  ASP179     -0.2867
     81  CB       -23.8990   -8.4650   69.8680 C.3   179  ASP179      0.1410
     82  CG       -23.8730   -9.1810   71.2190 C.2   179  ASP179      0.3668
     83  OD1      -24.9120   -9.1920   71.9180 O.co2 179  ASP179     -0.2456
     84  OD2      -22.8070   -9.7220   71.5930 O.co2 179  ASP179     -0.2456
     85  N        -22.3280   -8.3850   65.8220 N.3   182  GLU182     -0.1245
     86  CA       -22.4230   -9.7180   65.2510 C.3   182  GLU182      0.1567
     87  C        -23.3570   -9.7060   64.0580 C.2   182  GLU182      0.2260
     88  O        -23.0980  -10.3690   63.0540 O.2   182  GLU182     -0.2867
     89  CB       -22.9470  -10.7080   66.2830 C.3   182  GLU182      0.0388
     90  CG       -21.9960  -11.0010   67.4140 C.3   182  GLU182      0.1160
     91  CD       -22.5660  -12.0160   68.3660 C.2   182  GLU182      0.3649
     92  OE1      -23.4910  -11.6660   69.1240 O.co2 182  GLU182     -0.2457
     93  OE2      -22.1030  -13.1720   68.3440 O.co2 182  GLU182     -0.2457
     94  N        -24.8900  -25.8590   70.6170 N.3   228  ASP228     -0.1239
     95  CA       -24.9950  -25.1340   71.8740 C.3   228  ASP228      0.1674
     96  C        -26.4080  -25.4320   72.3670 C.2   228  ASP228      0.2266
     97  O        -27.3910  -25.0980   71.6970 O.2   228  ASP228     -0.2867
     98  CB       -24.8300  -23.6320   71.6500 C.3   228  ASP228      0.1410
     99  CG       -24.8990  -22.8270   72.9480 C.2   228  ASP228      0.3668
    100  OD1      -25.7040  -23.1750   73.8410 O.co2 228  ASP228     -0.2456
    101  OD2      -24.1560  -21.8250   73.0680 O.co2 228  ASP228     -0.2456
    102  N        -26.4260  -19.0170   79.1490 N.3   242  THR242     -0.1218
    103  CA       -27.0800  -17.9370   78.4170 C.3   242  THR242      0.1862
    104  C        -28.3650  -18.3990   77.7250 C.2   242  THR242      0.2287
    105  O        -28.4030  -18.5900   76.5010 O.2   242  THR242     -0.2866
    106  CB       -26.1180  -17.3090   77.3730 C.3   242  THR242      0.1770
    107  OG1      -25.5700  -18.3340   76.5370 O.3   242  THR242     -0.2211
    108  CG2      -24.9860  -16.5870   78.0740 C.3   242  THR242      0.0375
    109  N        -22.1510  -25.9080   76.2520 N.3   273  GLU273     -0.1245
    110  CA       -22.8860  -25.0810   77.1980 C.3   273  GLU273      0.1567
    111  C        -23.8220  -25.7490   78.2030 C.2   273  GLU273      0.2260
    112  O        -24.7030  -25.0890   78.7470 O.2   273  GLU273     -0.2867
    113  CB       -23.6470  -23.9870   76.4450 C.3   273  GLU273      0.0388
    114  CG       -22.7560  -23.0730   75.5920 C.3   273  GLU273      0.1160
    115  CD       -21.7520  -22.2700   76.4070 C.2   273  GLU273      0.3649
    116  OE1      -21.8850  -22.2310   77.6490 O.co2 273  GLU273     -0.2457
    117  OE2      -20.8350  -21.6640   75.8030 O.co2 273  GLU273     -0.2457
@<TRIPOS>BOND
     1    88    87    2
     2    87    86    1
     3    86    85    1
     4    86    89    1
     5    89    90    1
     6    80    79    2
     7    90    91    1
     8    14    13    2
     9    19    20    1
    10    13    12    1
    11    79    78    1
    12     4     3    2
    13    21    20    1
    14    21    22    2
    15    11    12    1
    16    20    23    1
    17    93    91   ar
    18     3     2    1
    19    91    92   ar
    20    12    15    1
    21    77    78    1
    22    15    16    1
    23    78    81    1
    24    25    24    2
    25     2     1    1
    26     2     5    1
    27    69    70    1
    28    23    24    1
    29    81    82    1
    30    24    26   am
    31    71    72    2
    32    71    70    1
    33    16    18   ar
    34    16    17   ar
    35    70    73    1
    36    68    67    2
    37    94    95    1
    38     5     6    1
    39    27    28    1
    40    82    84   ar
    41    82    83   ar
    42    67    66    1
    43    98    95    1
    44    98    99    1
    45    97    96    2
    46    95    96    1
    47     6     8   ar
    48     6     7   ar
    49    73    74    1
    50    28    31    1
    51    28    29    1
    52    66    65    1
    53    75    74   ar
    54     8    10   ar
    55    31    33    1
    56    31    32    1
    57     7     9   ar
    58    58    57    2
    59    99   101   ar
    60    99   100   ar
    61    74    76   ar
    62    65    57   am
    63    29    30    2
    64    29    34   am
    65    57    56    1
    66    40    38    1
    67    10     9   ar
    68    34    35    1
    69    56    55    1
    70    56    59    1
    71    50    49    2
    72    39    38    1
    73    38    35    1
    74    35    36    1
    75    59    60    1
    76   114   115    1
    77   114   113    1
    78   117   115   ar
    79    49    48    1
    80    60    62   ar
    81    60    61   ar
    82    62    64   ar
    83   109   110    1
    84    46    45    1
    85    41    36   am
    86    41    42    1
    87   115   116   ar
    88    36    37    2
    89   113   110    1
    90   105   104    2
    91   107   106    1
    92    61    63   ar
    93    64    63   ar
    94    47    48    1
    95    48    51    1
    96   110   111    1
    97    45    42    1
    98   106   108    1
    99   106   103    1
   100    42    43    1
   101    51    52    1
   102   104   103    1
   103    43    44    2
   104   111   112    2
   105   103   102    1
   106    52    54   am
   107    52    53    2
