@<TRIPOS>MOLECULE
tmp/3gn2C01.pdb
 137 133 0 0 0
SMALL
GASTEIGER

@<TRIPOS>ATOM
      1  N          8.8680   15.2620   32.2970 N.3    95  PHE95      -0.1241
      2  CA         8.0640   15.9240   31.2720 C.3    95  PHE95       0.1605
      3  C          8.7330   17.2140   30.8000 C.2    95  PHE95       0.2264
      4  O          8.8550   18.1800   31.5510 O.2    95  PHE95      -0.2867
      5  CB         6.6410   16.1780   31.8080 C.3    95  PHE95       0.0534
      6  CG         5.7770   17.0330   30.9090 C.ar   95  PHE95      -0.0203
      7  CD1        5.4220   18.3290   31.2870 C.ar   95  PHE95      -0.0042
      8  CD2        5.2880   16.5320   29.7060 C.ar   95  PHE95      -0.0042
      9  CE1        4.6100   19.1170   30.4680 C.ar   95  PHE95      -0.0003
     10  CE2        4.4680   17.3080   28.8890 C.ar   95  PHE95      -0.0003
     11  CZ         4.1350   18.6040   29.2700 C.ar   95  PHE95      -0.0000
     12  N         -2.0420    9.0380   29.3700 N.3   141  ASP141     -0.1239
     13  CA        -2.2440   10.3620   28.8000 C.3   141  ASP141      0.1674
     14  C         -3.3960   10.2640   27.8090 C.2   141  ASP141      0.2266
     15  O         -3.2900    9.5720   26.8050 O.2   141  ASP141     -0.2867
     16  CB        -0.9350   10.8120   28.1130 C.3   141  ASP141      0.1410
     17  CG        -1.0250   12.1980   27.4870 C.2   141  ASP141      0.3668
     18  OD1       -2.1120   12.8170   27.4790 O.co2 141  ASP141     -0.2456
     19  OD2        0.0180   12.6650   26.9860 O.co2 141  ASP141     -0.2456
     20  N         -4.2960   12.2870   25.7120 N.3   143  MET143     -0.1245
     21  CA        -3.9020   12.9250   24.4460 C.3   143  MET143      0.1570
     22  C         -2.7850   12.1840   23.7190 C.2   143  MET143      0.2261
     23  O         -2.1560   12.7310   22.8090 O.2   143  MET143     -0.2867
     24  CB        -3.4700   14.3720   24.6950 C.3   143  MET143      0.0387
     25  CG        -4.5210   15.2250   25.3950 C.3   143  MET143      0.0595
     26  SD        -6.0900   15.2100   24.4720 S.3   143  MET143     -0.1393
     27  CE        -5.6720   16.2270   23.0760 C.3   143  MET143      0.0692
     28  N         -2.8050   12.3290   20.0090 N.3   146  GLN146     -0.1231
     29  CA        -2.8530   13.6830   19.4640 C.3   146  GLN146      0.1683
     30  C         -1.6960   14.4710   20.0770 C.2   146  GLN146      0.2434
     31  O         -1.9020   15.3360   20.9310 O.2   146  GLN146     -0.2733
     32  CB        -4.1930   14.3460   19.7710 C.3   146  GLN146      0.0380
     33  CG        -5.3380   13.7510   19.0030 C.3   146  GLN146      0.0905
     34  CD        -6.4900   13.3800   19.9080 C.2   146  GLN146      0.2608
     35  OE1       -6.4380   12.3690   20.6040 O.2   146  GLN146     -0.2717
     36  NE2       -7.5420   14.1860   19.8950 N.am  146  GLN146     -0.0878
     37  N         -0.4680   14.1280   19.6630 N.am  147  PRO147     -0.2718
     38  CA         0.7560   14.5870   20.3200 C.3   147  PRO147      0.1535
     39  C          1.0050   16.0820   20.1850 C.2   147  PRO147      0.2598
     40  O          0.6310   16.6860   19.1850 O.2   147  PRO147     -0.2715
     41  CB         1.8520   13.8150   19.5800 C.3   147  PRO147      0.0310
     42  CG         1.2700   13.4900   18.2610 C.3   147  PRO147      0.0237
     43  CD        -0.1710   13.2380   18.5230 C.3   147  PRO147      0.0939
     44  N          1.6460   16.6550   21.1990 N.am  148  CYS148     -0.1968
     45  CA         2.1140   18.0250   21.1260 C.3   148  CYS148      0.1712
     46  C          3.4250   18.1210   20.3790 C.2   148  CYS148      0.2296
     47  O          4.3190   17.2810   20.5240 O.2   148  CYS148     -0.2864
     48  CB         2.2640   18.6370   22.5110 C.3   148  CYS148      0.0983
     49  SG         0.6770   18.9720   23.2660 S.3   148  CYS148     -0.0798
     50  N          7.3920   17.0370   21.5410 N.3   151  PHE151     -0.1241
     51  CA         7.3810   16.1770   22.7350 C.3   151  PHE151      0.1605
     52  C          7.4960   14.6790   22.4040 C.2   151  PHE151      0.2264
     53  O          6.9510   13.8330   23.1250 O.2   151  PHE151     -0.2867
     54  CB         6.1130   16.4400   23.5720 C.3   151  PHE151      0.0534
     55  CG         6.1850   17.6930   24.4160 C.ar  151  PHE151     -0.0203
     56  CD1        5.8930   18.9370   23.8600 C.ar  151  PHE151     -0.0042
     57  CD2        6.5510   17.6310   25.7640 C.ar  151  PHE151     -0.0042
     58  CE1        5.9710   20.1020   24.6280 C.ar  151  PHE151     -0.0003
     59  CE2        6.6310   18.7980   26.5420 C.ar  151  PHE151     -0.0003
     60  CZ         6.3400   20.0330   25.9720 C.ar  151  PHE151     -0.0000
     61  N          8.6480   12.1490   25.3400 N.3   154  TYR154     -0.1227
     62  CA         7.5900   12.0330   26.3310 C.3   154  TYR154      0.1736
     63  C          6.4430   11.2100   25.7470 C.2   154  TYR154      0.2595
     64  O          5.9530   10.2700   26.3890 O.2   154  TYR154     -0.2718
     65  CB         7.0820   13.4100   26.7490 C.3   154  TYR154      0.0548
     66  CG         5.9050   13.3480   27.7010 C.ar  154  TYR154     -0.0200
     67  CD1        6.0890   13.0310   29.0570 C.ar  154  TYR154     -0.0009
     68  CD2        4.6000   13.5960   27.2510 C.ar  154  TYR154     -0.0009
     69  CE1        5.0140   12.9690   29.9230 C.ar  154  TYR154      0.0417
     70  CE2        3.5110   13.5340   28.1260 C.ar  154  TYR154      0.0417
     71  CZ         3.7290   13.2210   29.4600 C.ar  154  TYR154      0.1957
     72  OH         2.6530   13.1630   30.3310 O.3   154  TYR154     -0.2866
     73  N          6.0270   11.5550   24.5300 N.am  155  ASN155     -0.1974
     74  CA         4.9410   10.8130   23.8730 C.3   155  ASN155      0.1688
     75  C          5.2610    9.3320   23.6960 C.2   155  ASN155      0.2292
     76  O          4.4060    8.4620   23.9440 O.2   155  ASN155     -0.2864
     77  CB         4.6200   11.4350   22.5170 C.3   155  ASN155      0.1181
     78  CG         3.3870   10.8110   21.8610 C.2   155  ASN155      0.2629
     79  OD1        3.4730   10.2600   20.7700 O.2   155  ASN155     -0.2716
     80  ND2        2.2430   10.8990   22.5270 N.am  155  ASN155     -0.0877
     81  N         -5.3450   11.4010   32.2340 N.3   184  PRO184     -0.2102
     82  CA        -5.7650   12.8100   32.2700 C.3   184  PRO184      0.1504
     83  C         -5.5900   13.4610   30.9030 C.2   184  PRO184      0.2576
     84  O         -4.7970   12.9830   30.0870 O.2   184  PRO184     -0.2718
     85  CB        -4.8060   13.4440   33.2930 C.3   184  PRO184      0.0282
     86  CG        -4.2050   12.2720   34.0490 C.3   184  PRO184      0.0208
     87  CD        -4.1160   11.1810   33.0220 C.3   184  PRO184      0.0893
     88  N         -6.3300   14.5410   30.6650 N.am  185  GLY185     -0.1943
     89  CA        -6.1450   15.3470   29.4620 C.3   185  GLY185      0.2014
     90  C         -5.3390   16.5520   29.8860 C.2   185  GLY185      0.2638
     91  O         -4.1080   16.5980   29.7290 O.2   185  GLY185     -0.2714
     92  N         -6.0390   17.5140   30.4760 N.am  186  VAL186     -0.1977
     93  CA        -5.3750   18.5870   31.2210 C.3   186  VAL186      0.1596
     94  C         -5.8950   18.5950   32.6690 C.2   186  VAL186      0.2287
     95  O         -7.1020   18.6420   32.9260 O.2   186  VAL186     -0.2864
     96  CB        -5.4360   19.9650   30.4960 C.3   186  VAL186      0.0276
     97  CG1       -6.8300   20.5270   30.4890 C.3   186  VAL186      0.0022
     98  CG2       -4.4650   20.9610   31.1340 C.3   186  VAL186      0.0022
     99  N         -1.7970   22.3930   35.8440 N.3   189  LEU189     -0.1245
    100  CA        -0.8860   22.9430   34.8450 C.3   189  LEU189      0.1561
    101  C          0.5220   23.0770   35.4350 C.2   189  LEU189      0.2260
    102  O          0.6630   23.1890   36.6530 O.2   189  LEU189     -0.2867
    103  CB        -1.4050   24.2920   34.3290 C.3   189  LEU189      0.0270
    104  CG        -2.5200   24.3540   33.2680 C.3   189  LEU189      0.0019
    105  CD1       -2.1370   23.6000   31.9960 C.3   189  LEU189      0.0001
    106  CD2       -3.8930   23.9080   33.7930 C.3   189  LEU189      0.0001
    107  N         -5.1490   26.8200   27.5210 N.3   201  TRP201     -0.1241
    108  CA        -5.3290   25.3620   27.5660 C.3   201  TRP201      0.1605
    109  C         -6.6270   24.9310   28.2700 C.2   201  TRP201      0.2264
    110  O         -7.3290   24.0400   27.7850 O.2   201  TRP201     -0.2867
    111  CB        -4.0860   24.6600   28.1290 C.3   201  TRP201      0.0550
    112  CG        -2.8370   24.9590   27.3190 C.ar  201  TRP201      0.0003
    113  CD1       -1.7430   25.6630   27.7320 C.ar  201  TRP201      0.0946
    114  CD2       -2.5770   24.5850   25.9530 C.ar  201  TRP201      0.0152
    115  NE1       -0.8160   25.7420   26.7200 N.ar  201  TRP201     -0.2442
    116  CE2       -1.3020   25.0910   25.6170 C.ar  201  TRP201      0.0810
    117  CE3       -3.2960   23.8680   24.9860 C.ar  201  TRP201      0.0012
    118  CZ2       -0.7250   24.9030   24.3510 C.ar  201  TRP201      0.0191
    119  CZ3       -2.7240   23.6810   23.7280 C.ar  201  TRP201      0.0001
    120  CH2       -1.4490   24.1970   23.4240 C.ar  201  TRP201      0.0015
    121  N         -9.9570   24.9310   26.2320 N.3   204  LYS204     -0.1245
    122  CA       -10.1360   23.8710   25.2260 C.3   204  LYS204      0.1561
    123  C        -10.9980   22.6860   25.6960 C.2   204  LYS204      0.2260
    124  O        -11.4860   21.8990   24.8790 O.2   204  LYS204     -0.2867
    125  CB        -8.7700   23.4180   24.7120 C.3   204  LYS204      0.0271
    126  CG        -8.1000   24.5160   23.8610 C.3   204  LYS204      0.0035
    127  CD        -6.7400   24.1150   23.3550 C.3   204  LYS204      0.0206
    128  CE        -6.0390   25.2880   22.6600 C.3   204  LYS204      0.1093
    129  NZ        -6.7550   25.7890   21.4420 N.3   204  LYS204     -0.1314
    130  N        -11.7190   16.3370   26.2980 N.3   243  LEU243     -0.1245
    131  CA       -10.6440   17.0250   25.5650 C.3   243  LEU243      0.1561
    132  C        -10.1530   16.2580   24.3460 C.2   243  LEU243      0.2260
    133  O         -9.9820   16.8480   23.2590 O.2   243  LEU243     -0.2867
    134  CB        -9.4560   17.3130   26.4790 C.3   243  LEU243      0.0270
    135  CG        -8.2940   18.0650   25.8200 C.3   243  LEU243      0.0019
    136  CD1       -8.6920   19.4710   25.3440 C.3   243  LEU243      0.0001
    137  CD2       -7.1450   18.1450   26.8130 C.3   243  LEU243      0.0001
@<TRIPOS>BOND
     1    42    43    1
     2    42    41    1
     3    43    37    1
     4    33    32    1
     5    33    34    1
     6    40    39    2
     7    29    32    1
     8    29    28    1
     9    29    30    1
    10    41    38    1
    11    37    30   am
    12    37    38    1
    13    36    34   am
    14    34    35    2
    15    30    31    2
    16    39    38    1
    17    39    44   am
    18    46    47    2
    19    46    45    1
    20    79    78    2
    21    45    44    1
    22    45    48    1
    23   129   128    1
    24    50    51    1
    25    78    77    1
    26    78    80   am
    27    52    51    1
    28    52    53    2
    29    48    49    1
    30    77    74    1
    31   128   127    1
    32    51    54    1
    33    23    22    2
    34    27    26    1
    35   133   132    2
    36   127   126    1
    37   120   119   ar
    38   120   118   ar
    39    54    55    1
    40    75    74    1
    41    75    76    2
    42    22    21    1
    43   119   117   ar
    44    56    55   ar
    45    56    58   ar
    46   126   125    1
    47    74    73    1
    48   132   131    1
    49   118   116   ar
    50    55    57   ar
    51    21    24    1
    52    21    20    1
    53    26    25    1
    54    73    63   am
    55    58    60   ar
    56    24    25    1
    57   125   122    1
    58   124   123    2
    59   117   114   ar
    60   122   123    1
    61   122   121    1
    62    61    62    1
    63   136   135    1
    64   131   130    1
    65   131   134    1
    66   116   114   ar
    67   116   115   ar
    68    63    62    1
    69    63    64    2
    70    57    59   ar
    71   135   134    1
    72   135   137    1
    73   114   112   ar
    74    60    59   ar
    75    62    65    1
    76   115   113   ar
    77    65    66    1
    78    15    14    2
    79    19    17   ar
    80    68    66   ar
    81    68    70   ar
    82   112   113   ar
    83   112   111    1
    84    18    17   ar
    85    17    16    1
    86   107   108    1
    87   108   111    1
    88   108   109    1
    89    66    67   ar
    90   110   109    2
    91    14    13    1
    92    16    13    1
    93    70    71   ar
    94    13    12    1
    95    10    11   ar
    96    10     8   ar
    97    67    69   ar
    98    11     9   ar
    99    71    69   ar
   100    71    72    1
   101    89    90    1
   102    89    88    1
   103     8     6   ar
   104    91    90    2
   105    90    92   am
   106    84    83    2
   107     9     7   ar
   108    92    93    1
   109    97    96    1
   110    96    98    1
   111    96    93    1
   112    88    83   am
   113     3     2    1
   114     3     4    2
   115    83    82    1
   116     6     7   ar
   117     6     5    1
   118    93    94    1
   119     2     5    1
   120     2     1    1
   121   105   104    1
   122    81    82    1
   123    81    87    1
   124    82    85    1
   125    94    95    2
   126    87    86    1
   127   104   106    1
   128   104   103    1
   129    85    86    1
   130   103   100    1
   131   100   101    1
   132   100    99    1
   133   101   102    2
