@<TRIPOS>MOLECULE
tmp/3gn2D02.pdb
 88 83 0 0 0
SMALL
GASTEIGER

@<TRIPOS>ATOM
      1  N        -31.4070   -9.4900   33.3780 N.3    13  ARG13      -0.1245
      2  CA       -29.9670   -9.5330   33.1610 C.3    13  ARG13       0.1563
      3  C        -29.2460   -8.2300   33.5620 C.2    13  ARG13       0.2260
      4  O        -29.4360   -7.7240   34.6770 O.2    13  ARG13      -0.2867
      5  CB       -29.6760   -9.9580   31.7120 C.3    13  ARG13       0.0307
      6  CG       -30.3780  -11.2680   31.3160 C.3    13  ARG13       0.0489
      7  CD       -30.1710  -11.6330   29.8390 C.3    13  ARG13       0.2205
      8  NE       -28.7910  -11.3920   29.4180 N.pl3  13  ARG13      -0.0865
      9  CZ       -27.7830  -12.2520   29.5510 C.cat  13  ARG13       0.5346
     10  NH1      -27.9810  -13.4550   30.0870 N.pl3  13  ARG13       0.1354
     11  NH2      -26.5630  -11.8920   29.1540 N.pl3  13  ARG13       0.1354
     12  N        -31.2780   -3.8600   23.7440 N.3    94  SER94      -0.1217
     13  CA       -30.5100   -4.2620   22.5730 C.3    94  SER94       0.1889
     14  C        -31.0080   -5.5630   21.9630 C.2    94  SER94       0.2288
     15  O        -31.0780   -6.5840   22.6460 O.2    94  SER94      -0.2866
     16  CB       -29.0420   -4.4310   22.9840 C.3    94  SER94       0.2089
     17  OG       -28.2780   -5.0320   21.9450 O.3    94  SER94      -0.2183
     18  N        -30.1510   -8.6330   19.4710 N.3    96  PHE96      -0.1241
     19  CA       -28.8950   -9.3380   19.3020 C.3    96  PHE96       0.1605
     20  C        -29.1590  -10.6960   18.6710 C.2    96  PHE96       0.2264
     21  O        -29.7810  -11.5680   19.2780 O.2    96  PHE96      -0.2867
     22  CB       -28.1920   -9.5000   20.6620 C.3    96  PHE96       0.0534
     23  CG       -26.9800  -10.3960   20.6250 C.ar   96  PHE96      -0.0203
     24  CD1      -27.0220  -11.6710   21.1980 C.ar   96  PHE96      -0.0042
     25  CD2      -25.8070   -9.9770   20.0060 C.ar   96  PHE96      -0.0042
     26  CE1      -25.9000  -12.5050   21.1770 C.ar   96  PHE96      -0.0003
     27  CE2      -24.6750  -10.8010   19.9770 C.ar   96  PHE96      -0.0003
     28  CZ       -24.7200  -12.0680   20.5630 C.ar   96  PHE96      -0.0000
     29  N        -19.7460   -2.3510   23.5110 N.3   142  ASP142     -0.1239
     30  CA       -19.2730   -3.7290   23.3790 C.3   142  ASP142      0.1674
     31  C        -17.7520   -3.6780   23.3850 C.2   142  ASP142      0.2266
     32  O        -17.1540   -3.0560   22.5010 O.2   142  ASP142     -0.2867
     33  CB       -19.8220   -4.3280   22.0830 C.3   142  ASP142      0.1410
     34  CG       -19.3740   -5.7720   21.8510 C.2   142  ASP142      0.3668
     35  OD1      -18.5570   -6.3010   22.6520 O.co2 142  ASP142     -0.2456
     36  OD2      -19.8450   -6.3830   20.8570 O.co2 142  ASP142     -0.2456
     37  N        -25.4810   -6.1130   14.2160 N.3   155  TYR155     -0.1241
     38  CA       -25.2500   -5.8550   15.6390 C.3   155  TYR155      0.1605
     39  C        -23.9620   -5.0370   15.8120 C.2   155  TYR155      0.2264
     40  O        -23.9480   -4.0200   16.5200 O.2   155  TYR155     -0.2867
     41  CB       -25.1820   -7.1820   16.4360 C.3   155  TYR155      0.0534
     42  CG       -24.8230   -6.9730   17.8990 C.ar  155  TYR155     -0.0201
     43  CD1      -25.7910   -6.5530   18.8230 C.ar  155  TYR155     -0.0009
     44  CD2      -23.5140   -7.1570   18.3600 C.ar  155  TYR155     -0.0009
     45  CE1      -25.4790   -6.3480   20.1640 C.ar  155  TYR155      0.0417
     46  CE2      -23.1890   -6.9390   19.7170 C.ar  155  TYR155      0.0417
     47  CZ       -24.1820   -6.5230   20.6080 C.ar  155  TYR155      0.1957
     48  OH       -23.8930   -6.3080   21.9410 O.3   155  TYR155     -0.2866
     49  N        -17.5000   -7.5660   27.9440 N.3   186  GLY186     -0.1210
     50  CA       -16.8870   -8.5390   27.0400 C.3   186  GLY186      0.1956
     51  C        -17.8420   -9.7060   26.9570 C.2   186  GLY186      0.2612
     52  O        -18.5790   -9.8680   25.9770 O.2   186  GLY186     -0.2717
     53  N        -17.8310  -10.5240   28.0040 N.am  187  VAL187     -0.1965
     54  CA       -18.8760  -11.4990   28.1990 C.3   187  VAL187      0.1727
     55  C        -19.3540  -11.4940   29.6540 C.2   187  VAL187      0.2616
     56  O        -18.5570  -11.4830   30.5920 O.2   187  VAL187     -0.2715
     57  CB       -18.4520  -12.9000   27.7040 C.3   187  VAL187      0.0290
     58  CG1      -17.3270  -13.4670   28.5310 C.3   187  VAL187      0.0023
     59  CG2      -19.6470  -13.8590   27.6850 C.3   187  VAL187      0.0023
     60  N        -20.6710  -11.4800   29.8050 N.am  188  SER188     -0.1950
     61  CA       -21.3170  -11.4460   31.0930 C.3   188  SER188      0.1924
     62  C        -22.0990  -12.7660   31.2280 C.2   188  SER188      0.2314
     63  O        -22.1440  -13.5620   30.2640 O.2   188  SER188     -0.2863
     64  CB       -22.2120  -10.2030   31.1660 C.3   188  SER188      0.2116
     65  OG       -22.3200   -9.7020   32.4830 O.3   188  SER188     -0.2180
     66  N        -23.5810  -16.0270   31.1270 N.3   190  LEU190     -0.1231
     67  CA       -24.1280  -16.7250   29.9700 C.3   190  LEU190      0.1678
     68  C        -25.3980  -17.4530   30.3900 C.2   190  LEU190      0.2434
     69  O        -25.5020  -17.8940   31.5410 O.2   190  LEU190     -0.2733
     70  CB       -23.0910  -17.6570   29.3140 C.3   190  LEU190      0.0284
     71  CG       -21.9270  -16.9470   28.5890 C.3   190  LEU190      0.0019
     72  CD1      -20.7600  -17.8830   28.3280 C.3   190  LEU190      0.0001
     73  CD2      -22.3730  -16.2830   27.2750 C.3   190  LEU190      0.0001
     74  N        -26.3900  -17.5180   29.4820 N.am  191  PRO191     -0.2729
     75  CA       -27.6440  -18.2100   29.7800 C.3   191  PRO191      0.1401
     76  C        -27.3840  -19.6480   30.2360 C.2   191  PRO191      0.2269
     77  O        -26.6310  -20.3780   29.5840 O.2   191  PRO191     -0.2865
     78  CB       -28.3790  -18.1870   28.4380 C.3   191  PRO191      0.0296
     79  CG       -27.8570  -16.9640   27.7490 C.3   191  PRO191      0.0237
     80  CD       -26.4000  -16.9240   28.1290 C.3   191  PRO191      0.0939
     81  N        -27.4950  -22.3820   27.6050 N.3   194  MET194     -0.1245
     82  CA       -26.4010  -22.6100   26.6570 C.3   194  MET194      0.1570
     83  C        -25.6510  -23.8870   27.0580 C.2   194  MET194      0.2261
     84  O        -25.5350  -24.1930   28.2480 O.2   194  MET194     -0.2867
     85  CB       -25.4560  -21.3940   26.6060 C.3   194  MET194      0.0387
     86  CG       -24.2910  -21.5310   25.6210 C.3   194  MET194      0.0595
     87  SD       -23.1810  -20.0950   25.5600 S.3   194  MET194     -0.1393
     88  CE       -23.9700  -19.0920   24.3070 C.3   194  MET194      0.0692
@<TRIPOS>BOND
     1    37    38    1
     2    38    39    1
     3    38    41    1
     4    39    40    2
     5    41    42    1
     6    42    44   ar
     7    42    43   ar
     8    44    46   ar
     9    20    21    2
    10    20    19    1
    11    43    45   ar
    12    19    18    1
    13    19    22    1
    14    46    47   ar
    15    27    25   ar
    16    27    28   ar
    17    25    23   ar
    18    45    47   ar
    19    28    26   ar
    20    47    48    1
    21    23    22    1
    22    23    24   ar
    23    36    34   ar
    24    26    24   ar
    25    34    33    1
    26    34    35   ar
    27    17    16    1
    28    14    13    1
    29    14    15    2
    30    33    30    1
    31    32    31    2
    32    13    16    1
    33    13    12    1
    34    30    31    1
    35    30    29    1
    36    88    87    1
    37    87    86    1
    38    86    85    1
    39    52    51    2
    40    85    82    1
    41    82    83    1
    42    82    81    1
    43    51    50    1
    44    51    53   am
    45    50    49    1
    46    83    84    2
    47    73    71    1
    48    59    57    1
    49    57    54    1
    50    57    58    1
    51    79    80    1
    52    79    78    1
    53    53    54    1
    54    80    74    1
    55    54    55    1
    56    72    71    1
    57    78    75    1
    58    71    70    1
    59    11     9    1
    60    70    67    1
    61     8     9    2
    62     8     7    1
    63    74    75    1
    64    74    68   am
    65     9    10    1
    66    77    76    2
    67    55    60   am
    68    55    56    2
    69    75    76    1
    70    60    61    1
    71     7     6    1
    72    67    68    1
    73    67    66    1
    74    63    62    2
    75    68    69    2
    76    61    64    1
    77    61    62    1
    78    64    65    1
    79     6     5    1
    80     5     2    1
    81     2     1    1
    82     2     3    1
    83     3     4    2
