@<TRIPOS>MOLECULE
tmp/3gn6C00.pdb
 88 85 0 0 0
SMALL
GASTEIGER

@<TRIPOS>ATOM
      1  N         43.6620  192.6310   21.9940 N.3    25  GLU25      -0.1245
      2  CA        43.2980  191.2040   22.0230 C.3    25  GLU25       0.1567
      3  C         43.0270  190.7960   20.5690 C.2    25  GLU25       0.2260
      4  O         42.1430  191.3600   19.8700 O.2    25  GLU25      -0.2867
      5  CB        42.0770  190.9220   22.9480 C.3    25  GLU25       0.0388
      6  CG        42.3210  191.4110   24.3830 C.3    25  GLU25       0.1160
      7  CD        41.2220  191.0940   25.3600 C.2    25  GLU25       0.3649
      8  OE1       40.1220  190.7990   24.8970 O.co2  25  GLU25      -0.2457
      9  OE2       41.4970  191.1660   26.5780 O.co2  25  GLU25      -0.2457
     10  N         40.1310  193.6060   19.7180 N.3   137  TYR137     -0.1241
     11  CA        39.7670  194.5230   20.7930 C.3   137  TYR137      0.1605
     12  C         40.9570  195.4190   21.0360 C.2   137  TYR137      0.2264
     13  O         42.0810  194.9230   21.2190 O.2   137  TYR137     -0.2867
     14  CB        39.4860  193.7720   22.0860 C.3   137  TYR137      0.0534
     15  CG        39.1530  194.6980   23.2290 C.ar  137  TYR137     -0.0201
     16  CD1       37.8660  195.1960   23.3720 C.ar  137  TYR137     -0.0009
     17  CD2       40.1090  195.0500   24.1650 C.ar  137  TYR137     -0.0009
     18  CE1       37.5380  196.0320   24.4300 C.ar  137  TYR137      0.0417
     19  CE2       39.8110  195.8910   25.2050 C.ar  137  TYR137      0.0417
     20  CZ        38.5200  196.3560   25.3440 C.ar  137  TYR137      0.1957
     21  OH        38.2220  197.1730   26.3690 O.3   137  TYR137     -0.2866
     22  N         38.4860  189.9490   33.5190 N.3   180  HIS180     -0.1226
     23  CA        37.8140  190.9690   32.7410 C.3   180  HIS180      0.1752
     24  C         36.4340  191.2220   33.3430 C.2   180  HIS180      0.2595
     25  O         35.6340  190.2890   33.4480 O.2   180  HIS180     -0.2718
     26  CB        37.5650  190.5070   31.3110 C.3   180  HIS180      0.0759
     27  CG        38.7990  190.3480   30.4630 C.ar  180  HIS180      0.0818
     28  ND1       39.6810  189.2890   30.6110 N.ar  180  HIS180     -0.2268
     29  CD2       39.2280  191.0500   29.3900 C.ar  180  HIS180      0.1154
     30  CE1       40.6040  189.3560   29.6620 C.ar  180  HIS180      0.1986
     31  NE2       40.3740  190.4320   28.9290 N.ar  180  HIS180     -0.2212
     32  N         36.1670  192.4600   33.7540 N.am  181  VAL181     -0.1980
     33  CA        34.8270  192.8610   34.2400 C.3   181  VAL181      0.1595
     34  C         34.4890  194.2320   33.6690 C.2   181  VAL181      0.2287
     35  O         35.3650  195.0150   33.2320 O.2   181  VAL181     -0.2864
     36  CB        34.7110  192.9860   35.7930 C.3   181  VAL181      0.0276
     37  CG1       34.9170  191.6340   36.5300 C.3   181  VAL181      0.0022
     38  CG2       35.7380  194.0080   36.3200 C.3   181  VAL181      0.0022
     39  N         35.2710  199.3130   31.5450 N.3   245  ALA245     -0.1231
     40  CA        36.0030  198.0350   31.5300 C.3   245  ALA245      0.1694
     41  C         37.2850  198.0420   32.3950 C.2   245  ALA245      0.2592
     42  O         38.0340  199.0370   32.4400 O.2   245  ALA245     -0.2718
     43  CB        36.3630  197.6730   30.0940 C.3   245  ALA245      0.0304
     44  N         37.5020  196.9470   33.1100 N.am  246  TYR246     -0.1962
     45  CA        38.6940  196.7240   33.8790 C.3   246  TYR246      0.1771
     46  C         39.2870  195.3530   33.5870 C.2   246  TYR246      0.2619
     47  O         38.5470  194.4050   33.2110 O.2   246  TYR246     -0.2715
     48  CB        38.4020  196.7900   35.3850 C.3   246  TYR246      0.0574
     49  CG        38.0880  198.1910   35.8870 C.ar  246  TYR246     -0.0198
     50  CD1       36.7900  198.7170   35.7430 C.ar  246  TYR246     -0.0009
     51  CD2       39.0270  198.9330   36.5590 C.ar  246  TYR246     -0.0009
     52  CE1       36.4870  199.9840   36.1820 C.ar  246  TYR246      0.0417
     53  CE2       38.7340  200.2160   37.0540 C.ar  246  TYR246      0.0417
     54  CZ        37.4540  200.7320   36.8610 C.ar  246  TYR246      0.1957
     55  OH        37.1530  201.9830   37.3000 O.3   246  TYR246     -0.2866
     56  N         40.5840  195.2400   33.8260 N.am  247  ILE247     -0.1977
     57  CA        41.2840  193.9540   33.8890 C.3   247  ILE247      0.1596
     58  C         42.1500  193.8850   35.1100 C.2   247  ILE247      0.2287
     59  O         43.0110  194.7300   35.3130 O.2   247  ILE247     -0.2864
     60  CB        42.1800  193.7260   32.6440 C.3   247  ILE247      0.0276
     61  CG1       41.3060  193.7050   31.3860 C.3   247  ILE247      0.0022
     62  CG2       43.0500  192.4380   32.8060 C.3   247  ILE247      0.0022
     63  CD1       42.0910  193.9330   30.0540 C.3   247  ILE247      0.0001
     64  N         28.7840  194.1620   36.3590 N.3   278  VAL278     -0.1231
     65  CA        27.5510  193.8030   35.6570 C.3   278  VAL278      0.1692
     66  C         27.8320  193.0480   34.3460 C.2   278  VAL278      0.2592
     67  O         26.8990  192.5290   33.7130 O.2   278  VAL278     -0.2718
     68  CB        26.7030  195.0230   35.3760 C.3   278  VAL278      0.0266
     69  CG1       26.1090  195.5890   36.7510 C.3   278  VAL278      0.0020
     70  CG2       27.4980  196.0940   34.5770 C.3   278  VAL278      0.0020
     71  N         29.1040  193.0190   33.9370 N.am  279  VAL279     -0.1966
     72  CA        29.5890  192.0980   32.8570 C.3   279  VAL279      0.1727
     73  C         30.8180  191.3420   33.3800 C.2   279  VAL279      0.2616
     74  O         31.6920  191.8990   34.0920 O.2   279  VAL279     -0.2715
     75  CB        29.8850  192.8120   31.5130 C.3   279  VAL279      0.0290
     76  CG1       30.1030  191.7500   30.3590 C.3   279  VAL279      0.0023
     77  CG2       28.7580  193.7920   31.1390 C.3   279  VAL279      0.0023
     78  N         30.9060  190.0510   33.0560 N.am  280  GLY280     -0.1955
     79  CA        31.9770  189.2430   33.6020 C.3   280  GLY280      0.1869
     80  C         31.6750  188.7960   35.0120 C.2   280  GLY280      0.2309
     81  O         30.5460  188.9830   35.5080 O.2   280  GLY280     -0.2863
     82  N         35.2580  187.1780   33.5240 N.3   282  VAL282     -0.1245
     83  CA        35.8470  186.1260   32.6900 C.3   282  VAL282      0.1561
     84  C         37.3340  186.2510   32.9250 C.2   282  VAL282      0.2260
     85  O         37.8930  187.3480   32.6970 O.2   282  VAL282     -0.2867
     86  CB        35.5250  186.3270   31.1980 C.3   282  VAL282      0.0252
     87  CG1       36.3470  185.3100   30.3850 C.3   282  VAL282      0.0019
     88  CG2       34.0000  186.1250   30.9470 C.3   282  VAL282      0.0019
@<TRIPOS>BOND
     1    10    11    1
     2     4     3    2
     3     3     2    1
     4    11    12    1
     5    11    14    1
     6    12    13    2
     7     1     2    1
     8     2     5    1
     9    14    15    1
    10     5     6    1
    11    15    16   ar
    12    15    17   ar
    13    16    18   ar
    14    17    19   ar
    15     6     7    1
    16    18    20   ar
    17     8     7   ar
    18    19    20   ar
    19    20    21    1
    20     7     9   ar
    21    31    29   ar
    22    31    30   ar
    23    29    27   ar
    24    30    28   ar
    25    63    61    1
    26    43    40    1
    27    76    75    1
    28    87    86    1
    29    27    28   ar
    30    27    26    1
    31    88    86    1
    32    77    75    1
    33    86    83    1
    34    26    23    1
    35    61    60    1
    36    75    72    1
    37    40    39    1
    38    40    41    1
    39    41    42    2
    40    41    44   am
    41    60    62    1
    42    60    57    1
    43    83    84    1
    44    83    82    1
    45    85    84    2
    46    23    24    1
    47    23    22    1
    48    72    73    1
    49    72    71    1
    50    78    73   am
    51    78    79    1
    52    44    45    1
    53    47    46    2
    54    35    34    2
    55    24    25    2
    56    24    32   am
    57    73    74    2
    58    46    56   am
    59    46    45    1
    60    79    80    1
    61    34    33    1
    62    67    66    2
    63    32    33    1
    64    56    57    1
    65    45    48    1
    66    57    58    1
    67    71    66   am
    68    33    36    1
    69    66    65    1
    70    70    68    1
    71    80    81    2
    72    58    59    2
    73    68    65    1
    74    68    69    1
    75    48    49    1
    76    65    64    1
    77    50    49   ar
    78    50    52   ar
    79    36    38    1
    80    36    37    1
    81    49    51   ar
    82    52    54   ar
    83    51    53   ar
    84    54    53   ar
    85    54    55    1
