@<TRIPOS>MOLECULE
tmp/3gn8B00.pdb
 138 129 0 0 0
SMALL
GASTEIGER

@<TRIPOS>ATOM
      1  N        -70.3510  -10.6110   14.0600 N.3    44  VAL44      -0.1245
      2  CA       -71.1870  -11.1120   15.1520 C.3    44  VAL44       0.1561
      3  C        -72.6590  -11.2190   14.7020 C.2    44  VAL44       0.2260
      4  O        -73.2800  -12.2380   14.9370 O.2    44  VAL44      -0.2867
      5  CB       -71.0030  -10.2740   16.4580 C.3    44  VAL44       0.0252
      6  CG1      -72.0410  -10.6470   17.5320 C.3    44  VAL44       0.0019
      7  CG2      -69.5690  -10.4550   16.9830 C.3    44  VAL44       0.0019
      8  N        -73.0170  -14.2860   12.2220 N.3    47  VAL47      -0.1231
      9  CA       -73.0640  -15.5730   12.9030 C.3    47  VAL47       0.1692
     10  C        -74.4680  -15.8460   13.4370 C.2    47  VAL47       0.2591
     11  O        -74.9860  -16.9520   13.2890 O.2    47  VAL47      -0.2718
     12  CB       -72.0490  -15.6880   14.0280 C.3    47  VAL47       0.0266
     13  CG1      -72.2040  -17.0510   14.7320 C.3    47  VAL47       0.0020
     14  CG2      -70.6390  -15.5310   13.4690 C.3    47  VAL47       0.0020
     15  N        -75.1030  -14.8360   14.0190 N.am   48  LYS48      -0.1980
     16  CA       -76.4720  -15.0020   14.4900 C.3    48  LYS48       0.1596
     17  C        -77.4240  -15.2320   13.3140 C.2    48  LYS48       0.2287
     18  O        -78.3770  -15.9930   13.4180 O.2    48  LYS48      -0.2864
     19  CB       -76.9220  -13.7790   15.2860 C.3    48  LYS48       0.0298
     20  CG       -78.3790  -13.8200   15.7410 C.3    48  LYS48       0.0038
     21  CD       -78.7690  -12.4800   16.3570 C.3    48  LYS48       0.0206
     22  CE       -79.6070  -12.6430   17.5990 C.3    48  LYS48       0.1093
     23  NZ       -79.1450  -11.6390   18.6130 N.3    48  LYS48      -0.1314
     24  N        -77.1840  -18.9590   11.8820 N.3    51  LYS51      -0.1245
     25  CA       -77.8910  -19.9130   12.7830 C.3    51  LYS51       0.1561
     26  C        -79.4140  -19.9000   12.5840 C.2    51  LYS51       0.2260
     27  O        -80.0820  -20.9190   12.7660 O.2    51  LYS51      -0.2867
     28  CB       -77.5820  -19.6070   14.2490 C.3    51  LYS51       0.0271
     29  CG       -76.1850  -19.9560   14.6860 C.3    51  LYS51       0.0035
     30  CD       -75.8640  -19.3220   16.0420 C.3    51  LYS51       0.0206
     31  CE       -76.6150  -19.9680   17.2100 C.3    51  LYS51       0.1093
     32  NZ       -76.7510  -18.9970   18.3590 N.3    51  LYS51      -0.1314
     33  N        -79.0860  -24.6120    8.0630 N.3    56  PHE56      -0.1227
     34  CA       -77.7230  -24.3560    8.5270 C.3    56  PHE56       0.1736
     35  C        -77.3760  -25.1230    9.7990 C.2    56  PHE56       0.2595
     36  O        -76.2980  -25.7080    9.8940 O.2    56  PHE56      -0.2718
     37  CB       -77.4730  -22.8620    8.7290 C.3    56  PHE56       0.0547
     38  CG       -76.0200  -22.5130    8.9280 C.ar   56  PHE56      -0.0202
     39  CD1      -75.1430  -22.4560    7.8350 C.ar   56  PHE56      -0.0042
     40  CD2      -75.5200  -22.2430   10.2010 C.ar   56  PHE56      -0.0042
     41  CE1      -73.7970  -22.1360    8.0110 C.ar   56  PHE56      -0.0003
     42  CE2      -74.1660  -21.9230   10.3810 C.ar   56  PHE56      -0.0003
     43  CZ       -73.3130  -21.8670    9.2850 C.ar   56  PHE56      -0.0000
     44  N        -78.2820  -25.1200   10.7750 N.am   57  ARG57      -0.1980
     45  CA       -78.0540  -25.8650   12.0200 C.3    57  ARG57       0.1597
     46  C        -77.9680  -27.3730   11.7750 C.2    57  ARG57       0.2287
     47  O        -77.3870  -28.0900   12.5820 O.2    57  ARG57      -0.2864
     48  CB       -79.1200  -25.5530   13.0770 C.3    57  ARG57       0.0334
     49  CG       -79.0560  -24.1300   13.6890 C.3    57  ARG57       0.0492
     50  CD       -77.6800  -23.7750   14.2660 C.3    57  ARG57       0.2205
     51  NE       -77.4690  -24.2120   15.6530 N.pl3  57  ARG57      -0.0865
     52  CZ       -76.2750  -24.2630   16.2610 C.cat  57  ARG57       0.5346
     53  NH1      -75.1610  -23.9000   15.6170 N.pl3  57  ARG57       0.1354
     54  NH2      -76.1840  -24.6820   17.5290 N.pl3  57  ARG57       0.1354
     55  N        -71.1120  -28.9090   13.3050 N.3    61  LEU61      -0.1245
     56  CA       -70.5390  -27.6860   13.8940 C.3    61  LEU61       0.1561
     57  C        -69.2190  -27.2320   13.2390 C.2    61  LEU61       0.2260
     58  O        -69.0250  -26.0380   13.0040 O.2    61  LEU61      -0.2867
     59  CB       -70.3720  -27.8460   15.4060 C.3    61  LEU61       0.0270
     60  CG       -70.6600  -26.5750   16.2030 C.3    61  LEU61       0.0019
     61  CD1      -72.1880  -26.3550   16.4200 C.3    61  LEU61       0.0001
     62  CD2      -69.8910  -26.6050   17.5350 C.3    61  LEU61       0.0001
     63  N        -70.0560  -25.6080    9.8950 N.3    64  GLN64      -0.1231
     64  CA       -70.6670  -24.2950   10.1430 C.3    64  GLN64       0.1698
     65  C        -69.5850  -23.2410   10.3490 C.2    64  GLN64       0.2592
     66  O        -69.6430  -22.1340    9.8070 O.2    64  GLN64      -0.2718
     67  CB       -71.5650  -24.3280   11.3800 C.3    64  GLN64       0.0381
     68  CG       -72.7520  -25.2340   11.2680 C.3    64  GLN64       0.0905
     69  CD       -73.6250  -25.2140   12.5150 C.2    64  GLN64       0.2608
     70  OE1      -73.8670  -24.1660   13.0970 O.2    64  GLN64      -0.2717
     71  NE2      -74.1120  -26.3830   12.9150 N.am   64  GLN64      -0.0878
     72  N        -68.5940  -23.6300   11.1400 N.am   65  MET65      -0.1979
     73  CA       -67.4670  -22.8050   11.4720 C.3    65  MET65       0.1605
     74  C        -66.6410  -22.5770   10.2080 C.2    65  MET65       0.2287
     75  O        -66.3400  -21.4260    9.8750 O.2    65  MET65      -0.2864
     76  CB       -66.6850  -23.4960   12.5910 C.3    65  MET65       0.0413
     77  CG       -65.5010  -22.7480   13.1320 C.3    65  MET65       0.0598
     78  SD       -65.1850  -23.1650   14.8650 S.3    65  MET65      -0.1393
     79  CE       -63.4470  -23.6200   14.7600 C.3    65  MET65       0.0692
     80  N        -68.3800  -20.1000    7.6830 N.3    68  LEU68      -0.1231
     81  CA       -68.3400  -18.7450    8.1950 C.3    68  LEU68       0.1693
     82  C        -66.9440  -18.1570    8.0740 C.2    68  LEU68       0.2591
     83  O        -66.7960  -17.0180    7.6420 O.2    68  LEU68      -0.2718
     84  CB       -68.8130  -18.7140    9.6380 C.3    68  LEU68       0.0284
     85  CG       -70.1650  -18.1340   10.1000 C.3    68  LEU68       0.0019
     86  CD1      -71.0780  -17.4150    9.0720 C.3    68  LEU68       0.0001
     87  CD2      -70.9260  -19.1920   10.8810 C.3    68  LEU68       0.0001
     88  N        -65.9230  -18.9390    8.4170 N.am   69  GLN69      -0.1979
     89  CA       -64.5370  -18.4710    8.3020 C.3    69  GLN69       0.1601
     90  C        -64.1500  -18.2230    6.8530 C.2    69  GLN69       0.2287
     91  O        -63.3650  -17.3160    6.5640 O.2    69  GLN69      -0.2864
     92  CB       -63.5510  -19.4580    8.9370 C.3    69  GLN69       0.0394
     93  CG       -63.7250  -19.5790   10.4340 C.3    69  GLN69       0.0908
     94  CD       -62.9510  -20.7340   11.0700 C.2    69  GLN69       0.2608
     95  OE1      -62.8080  -21.8200   10.4950 O.2    69  GLN69      -0.2717
     96  NE2      -62.4710  -20.5050   12.2750 N.am   69  GLN69      -0.0878
     97  N        -61.0790   -8.6400   18.1110 N.3   223  GLU223     -0.1231
     98  CA       -60.7970  -10.0420   18.3420 C.3   223  GLU223      0.1699
     99  C        -61.6060  -11.0380   17.4810 C.2   223  GLU223      0.2592
    100  O        -61.1110  -12.1060   17.1100 O.2   223  GLU223     -0.2718
    101  CB       -60.9930  -10.3390   19.8260 C.3   223  GLU223      0.0402
    102  CG       -59.6820  -10.2430   20.6120 C.3   223  GLU223      0.1161
    103  CD       -58.6620  -11.2640   20.1060 C.2   223  GLU223      0.3649
    104  OE1      -57.5800  -10.8330   19.6070 O.co2 223  GLU223     -0.2457
    105  OE2      -58.9800  -12.4920   20.1700 O.co2 223  GLU223     -0.2457
    106  N        -62.8560  -10.6910   17.1940 N.am  224  MET224     -0.1979
    107  CA       -63.6860  -11.5070   16.3220 C.3   224  MET224      0.1605
    108  C        -62.9660  -11.7090   14.9660 C.2   224  MET224      0.2287
    109  O        -62.8410  -12.8390   14.4710 O.2   224  MET224     -0.2864
    110  CB       -65.0590  -10.8450   16.1440 C.3   224  MET224      0.0413
    111  CG       -66.0910  -11.7000   15.4270 C.3   224  MET224      0.0598
    112  SD       -66.6360  -13.1650   16.3550 S.3   224  MET224     -0.1393
    113  CE       -65.6980  -14.4820   15.5580 C.3   224  MET224      0.0692
    114  N        -59.3880  -13.5380   15.1680 N.3   227  GLU227     -0.1231
    115  CA       -59.5310  -14.9720   15.3340 C.3   227  GLU227      0.1699
    116  C        -59.8590  -15.6530   13.9990 C.2   227  GLU227      0.2592
    117  O        -59.2670  -16.6770   13.6570 O.2   227  GLU227     -0.2718
    118  CB       -60.5850  -15.2630   16.3930 C.3   227  GLU227      0.0402
    119  CG       -60.8040  -16.7330   16.6900 C.3   227  GLU227      0.1161
    120  CD       -61.9400  -16.9430   17.6930 C.2   227  GLU227      0.3649
    121  OE1      -61.6770  -16.7820   18.9230 O.co2 227  GLU227     -0.2457
    122  OE2      -63.0820  -17.2660   17.2380 O.co2 227  GLU227     -0.2457
    123  N        -60.7740  -15.0740   13.2330 N.am  228  ILE228     -0.1980
    124  CA       -61.0920  -15.6260   11.9330 C.3   228  ILE228      0.1595
    125  C        -59.9060  -15.5030   10.9780 C.2   228  ILE228      0.2287
    126  O        -59.5720  -16.4620   10.2740 O.2   228  ILE228     -0.2864
    127  CB       -62.2990  -14.9400   11.3030 C.3   228  ILE228      0.0276
    128  CG1      -63.5580  -15.2700   12.0950 C.3   228  ILE228      0.0022
    129  CG2      -62.4330  -15.3500    9.8490 C.3   228  ILE228      0.0022
    130  CD1      -64.8110  -14.6000   11.5850 C.3   228  ILE228      0.0001
    131  N        -56.8380  -17.8470   11.4990 N.3   231  ASN231     -0.1240
    132  CA       -57.2240  -19.2120   11.1600 C.3   231  ASN231      0.1653
    133  C        -57.3080  -19.4400    9.6450 C.2   231  ASN231      0.2266
    134  O        -56.9020  -20.4870    9.1330 O.2   231  ASN231     -0.2867
    135  CB       -58.5820  -19.4950   11.7730 C.3   231  ASN231      0.1155
    136  CG       -58.6470  -20.8370   12.4380 C.2   231  ASN231      0.2627
    137  OD1      -59.3480  -21.7380   11.9760 O.2   231  ASN231     -0.2716
    138  ND2      -57.9290  -20.9810   13.5510 N.am  231  ASN231     -0.0877
@<TRIPOS>BOND
     1    91    90    2
     2    90    89    1
     3    83    82    2
     4    80    81    1
     5    39    41   ar
     6    39    38   ar
     7    41    43   ar
     8    33    34    1
     9    82    81    1
    10    82    88   am
    11    81    84    1
    12    89    88    1
    13    89    92    1
    14    34    37    1
    15    34    35    1
    16    37    38    1
    17    38    40   ar
    18    92    93    1
    19    86    85    1
    20   134   133    2
    21    43    42   ar
    22    84    85    1
    23   133   132    1
    24    35    36    2
    25    35    44   am
    26    66    65    2
    27   129   127    1
    28    75    74    2
    29    63    64    1
    30    85    87    1
    31    64    65    1
    32    64    67    1
    33    40    42   ar
    34    74    73    1
    35   126   125    2
    36    65    72   am
    37    93    94    1
    38    95    94    2
    39    44    45    1
    40   125   124    1
    41    94    96   am
    42    72    73    1
    43   132   131    1
    44   132   135    1
    45    68    67    1
    46    68    69    1
    47   127   124    1
    48   127   128    1
    49    73    76    1
    50   130   128    1
    51   135   136    1
    52    46    45    1
    53    46    47    2
    54    24    25    1
    55   124   123    1
    56   137   136    2
    57    45    48    1
    58     8     9    1
    59   136   138   am
    60    69    71   am
    61    69    70    2
    62    26    27    2
    63    26    25    1
    64    76    77    1
    65    25    28    1
    66     9    10    1
    67     9    12    1
    68    58    57    2
    69    48    49    1
    70    77    78    1
    71   123   116   am
    72    57    56    1
    73    11    10    2
    74    55    56    1
    75    17    18    2
    76    17    16    1
    77    10    15   am
    78    14    12    1
    79   117   116    2
    80    49    50    1
    81    56    59    1
    82   116   115    1
    83    15    16    1
    84    12    13    1
    85     1     2    1
    86    28    29    1
    87    50    51    1
    88   109   108    2
    89    16    19    1
    90    29    30    1
    91     3     4    2
    92     3     2    1
    93    79    78    1
    94   108   107    1
    95     2     5    1
    96   114   115    1
    97    19    20    1
    98   115   118    1
    99    59    60    1
   100   111   110    1
   101   111   112    1
   102   113   112    1
   103    53    52    1
   104    51    52    2
   105    20    21    1
   106    30    31    1
   107   110   107    1
   108    60    61    1
   109    60    62    1
   110    52    54    1
   111   107   106    1
   112    21    22    1
   113   118   119    1
   114     5     7    1
   115     5     6    1
   116   119   120    1
   117   100    99    2
   118   106    99   am
   119    31    32    1
   120   122   120   ar
   121    99    98    1
   122    22    23    1
   123   120   121   ar
   124    97    98    1
   125    98   101    1
   126   104   103   ar
   127   101   102    1
   128   103   105   ar
   129   103   102    1
