@<TRIPOS>MOLECULE
tmp/3gn8B01.pdb
 185 173 0 0 0
SMALL
GASTEIGER

@<TRIPOS>ATOM
      1  N        -59.0690    2.7050    8.7210 N.3    32  MET32      -0.1245
      2  CA       -58.9770    1.2570    8.5730 C.3    32  MET32       0.1570
      3  C        -59.3080    0.5600    9.8790 C.2    32  MET32       0.2261
      4  O        -59.9760   -0.4640    9.8810 O.2    32  MET32      -0.2867
      5  CB       -57.6090    0.8210    8.0400 C.3    32  MET32       0.0387
      6  CG       -57.4250    1.1890    6.5920 C.3    32  MET32       0.0595
      7  SD       -55.9420    0.4890    5.8260 S.3    32  MET32      -0.1393
      8  CE       -54.6190    1.4830    6.5480 C.3    32  MET32       0.0692
      9  N        -63.1250    0.7190   10.3370 N.3    35  LEU35      -0.1231
     10  CA       -63.7730   -0.2430    9.4410 C.3    35  LEU35       0.1693
     11  C        -63.6970   -1.6620    9.9950 C.2    35  LEU35       0.2592
     12  O        -64.6840   -2.4040    9.9650 O.2    35  LEU35      -0.2718
     13  CB       -63.1780   -0.1570    8.0350 C.3    35  LEU35       0.0284
     14  CG       -63.4270    1.1620    7.3000 C.3    35  LEU35       0.0019
     15  CD1      -62.8680    1.1120    5.8880 C.3    35  LEU35       0.0001
     16  CD2      -64.9030    1.4850    7.2830 C.3    35  LEU35       0.0001
     17  N        -62.5440   -2.0190   10.5490 N.am   36  ASN36      -0.1974
     18  CA       -62.3900   -3.3130   11.1890 C.3    36  ASN36       0.1688
     19  C        -63.2230   -3.4840   12.4500 C.2    36  ASN36       0.2292
     20  O        -63.8140   -4.5450   12.6740 O.2    36  ASN36      -0.2864
     21  CB       -60.9130   -3.6100   11.4430 C.3    36  ASN36       0.1181
     22  CG       -60.1440   -3.8720   10.1440 C.2    36  ASN36       0.2629
     23  OD1      -60.7080   -4.3400    9.1420 O.2    36  ASN36      -0.2716
     24  ND2      -58.8580   -3.5750   10.1540 N.am   36  ASN36      -0.0877
     25  N        -66.0140   -2.0280   13.0940 N.3    38  LEU38      -0.1231
     26  CA       -67.3700   -2.2040   12.6080 C.3    38  LEU38       0.1693
     27  C        -67.5710   -3.6200   12.0760 C.2    38  LEU38       0.2592
     28  O        -68.6310   -4.2290   12.2780 O.2    38  LEU38      -0.2718
     29  CB       -67.6540   -1.1880   11.5070 C.3    38  LEU38       0.0284
     30  CG       -69.0090   -1.2050   10.7980 C.3    38  LEU38       0.0019
     31  CD1      -70.1970   -1.0090   11.7660 C.3    38  LEU38       0.0001
     32  CD2      -69.0150   -0.1540    9.6860 C.3    38  LEU38       0.0001
     33  N        -66.5320   -4.1390   11.4200 N.am   39  GLY39      -0.1957
     34  CA       -66.6060   -5.3880   10.6930 C.3    39  GLY39       0.1869
     35  C        -66.7040   -6.5620   11.6250 C.2    39  GLY39       0.2309
     36  O        -67.3910   -7.5540   11.3190 O.2    39  GLY39      -0.2863
     37  N        -70.3020   -6.6240   12.6890 N.3    42  GLN42      -0.1245
     38  CA       -71.1200   -7.1740   11.5930 C.3    42  GLN42       0.1566
     39  C        -70.9790   -8.6920   11.4970 C.2    42  GLN42       0.2260
     40  O        -71.9450   -9.4060   11.2500 O.2    42  GLN42      -0.2867
     41  CB       -70.7680   -6.5210   10.2620 C.3    42  GLN42       0.0367
     42  CG       -71.2510   -5.0850   10.1040 C.3    42  GLN42       0.0905
     43  CD       -70.6870   -4.4310    8.8430 C.2    42  GLN42       0.2608
     44  OE1      -70.0280   -5.0940    8.0300 O.2    42  GLN42      -0.2717
     45  NE2      -70.9400   -3.1360    8.6670 N.am   42  GLN42      -0.0878
     46  N        -66.8920  -14.9720    5.1390 N.3    72  TRP72      -0.1227
     47  CA       -67.2600  -13.7480    5.8400 C.3    72  TRP72       0.1737
     48  C        -66.9590  -12.4710    5.0620 C.2    72  TRP72       0.2595
     49  O        -67.7450  -11.5310    5.0750 O.2    72  TRP72      -0.2718
     50  CB       -66.5810  -13.6920    7.2190 C.3    72  TRP72       0.0564
     51  CG       -65.0960  -13.2950    7.1920 C.ar   72  TRP72       0.0003
     52  CD1      -64.0310  -14.1240    7.0650 C.ar   72  TRP72       0.0946
     53  CD2      -64.5630  -11.9700    7.2740 C.ar   72  TRP72       0.0152
     54  NE1      -62.8590  -13.4070    7.0850 N.ar   72  TRP72      -0.2442
     55  CE2      -63.1600  -12.0800    7.2150 C.ar   72  TRP72       0.0810
     56  CE3      -65.1360  -10.7030    7.3930 C.ar   72  TRP72       0.0012
     57  CZ2      -62.3160  -10.9670    7.2710 C.ar   72  TRP72       0.0191
     58  CZ3      -64.2990   -9.5930    7.4570 C.ar   72  TRP72       0.0001
     59  CH2      -62.9040   -9.7330    7.3980 C.ar   72  TRP72       0.0015
     60  N        -65.8270  -12.4250    4.3790 N.am   73  MET73      -0.1979
     61  CA       -65.4940  -11.2330    3.6280 C.3    73  MET73       0.1605
     62  C        -66.4900  -11.0530    2.5020 C.2    73  MET73       0.2287
     63  O        -66.9040   -9.9340    2.2190 O.2    73  MET73      -0.2864
     64  CB       -64.0560  -11.2460    3.1250 C.3    73  MET73       0.0413
     65  CG       -63.6820   -9.9820    2.3650 C.3    73  MET73       0.0598
     66  SD       -63.6020   -8.4870    3.3800 S.3    73  MET73      -0.1393
     67  CE       -62.0280   -8.8150    4.1940 C.3    73  MET73       0.0692
     68  N        -69.8690   -9.6930    4.0590 N.3    76  MET76      -0.1230
     69  CA       -69.7320   -8.2890    4.4340 C.3    76  MET76       0.1702
     70  C        -69.6810   -7.3990    3.2000 C.2    76  MET76       0.2592
     71  O        -70.3350   -6.3450    3.1470 O.2    76  MET76      -0.2718
     72  CB       -68.4540   -8.0740    5.2790 C.3    76  MET76       0.0401
     73  CG       -68.4440   -8.7840    6.6210 C.3    76  MET76       0.0596
     74  SD       -69.9540   -8.4800    7.5490 S.3    76  MET76      -0.1393
     75  CE       -70.8740  -10.0060    7.3780 C.3    76  MET76       0.0692
     76  N        -68.8950   -7.8300    2.2180 N.am   77  ALA77      -0.1980
     77  CA       -68.6880   -7.0470    1.0130 C.3    77  ALA77       0.1597
     78  C        -69.9580   -7.0090    0.1780 C.2    77  ALA77       0.2287
     79  O        -70.2850   -5.9790   -0.3940 O.2    77  ALA77      -0.2864
     80  CB       -67.5120   -7.5900    0.2070 C.3    77  ALA77       0.0319
     81  N        -72.2020   -4.5470    1.9480 N.3    80  LEU80      -0.1245
     82  CA       -71.6850   -3.2250    1.6850 C.3    80  LEU80       0.1561
     83  C        -72.1190   -2.7960    0.2960 C.2    80  LEU80       0.2260
     84  O        -72.5990   -1.6770    0.1220 O.2    80  LEU80      -0.2867
     85  CB       -70.1700   -3.2130    1.8000 C.3    80  LEU80       0.0270
     86  CG       -69.4720   -1.9120    1.4010 C.3    80  LEU80       0.0019
     87  CD1      -70.0200   -0.6680    2.1510 C.3    80  LEU80       0.0001
     88  CD2      -67.9600   -2.0690    1.6070 C.3    80  LEU80       0.0001
     89  N        -76.0040   -1.8930    0.5360 N.3    83  ARG83      -0.1245
     90  CA       -76.2880   -0.5950    1.1520 C.3    83  ARG83       0.1563
     91  C        -75.8360    0.5310    0.2370 C.2    83  ARG83       0.2260
     92  O        -76.5370    1.5080    0.0770 O.2    83  ARG83      -0.2867
     93  CB       -75.6400   -0.4630    2.5390 C.3    83  ARG83       0.0307
     94  CG       -76.0360   -1.5650    3.4940 C.3    83  ARG83       0.0489
     95  CD       -75.5630   -1.3330    4.9230 C.3    83  ARG83       0.2205
     96  NE       -74.1100   -1.2210    5.0920 N.pl3  83  ARG83      -0.0865
     97  CZ       -73.2730   -2.2490    5.2260 C.cat  83  ARG83       0.5346
     98  NH1      -73.7030   -3.5000    5.1510 N.pl3  83  ARG83       0.1354
     99  NH2      -71.9840   -2.0240    5.4110 N.pl3  83  ARG83       0.1354
    100  N        -70.7210    2.3040    4.5250 N.3    95  PHE95      -0.1241
    101  CA       -70.3590    1.3330    5.5420 C.3    95  PHE95       0.1605
    102  C        -71.4200    1.3630    6.6400 C.2    95  PHE95       0.2264
    103  O        -71.8610    0.3140    7.1340 O.2    95  PHE95      -0.2867
    104  CB       -68.9620    1.6000    6.0950 C.3    95  PHE95       0.0534
    105  CG       -67.8520    1.3270    5.1010 C.ar   95  PHE95      -0.0203
    106  CD1      -67.2820    0.0560    5.0030 C.ar   95  PHE95      -0.0042
    107  CD2      -67.3910    2.3320    4.2520 C.ar   95  PHE95      -0.0042
    108  CE1      -66.2700   -0.2080    4.0930 C.ar   95  PHE95      -0.0003
    109  CE2      -66.3670    2.0760    3.3320 C.ar   95  PHE95      -0.0003
    110  CZ       -65.8070    0.7990    3.2500 C.ar   95  PHE95      -0.0000
    111  N        -58.5070   -0.1010   -2.4950 N.3   114  GLN114     -0.1245
    112  CA       -59.5040   -0.8840   -1.7380 C.3   114  GLN114      0.1566
    113  C        -60.9040   -0.4130   -2.0940 C.2   114  GLN114      0.2260
    114  O        -61.8090   -1.2200   -2.3300 O.2   114  GLN114     -0.2867
    115  CB       -59.3770   -0.6990   -0.2230 C.3   114  GLN114      0.0367
    116  CG       -58.0010   -0.7700    0.4020 C.3   114  GLN114      0.0905
    117  CD       -57.9510   -0.0100    1.7430 C.2   114  GLN114      0.2608
    118  OE1      -58.5650   -0.4080    2.7390 O.2   114  GLN114     -0.2717
    119  NE2      -57.2200    1.0880    1.7560 N.am  114  GLN114     -0.0878
    120  N        -64.2840   -2.1410   -3.7470 N.3   118  MET118     -0.1245
    121  CA       -65.5790   -2.2530   -3.0690 C.3   118  MET118      0.1570
    122  C        -66.7180   -1.6140   -3.8790 C.2   118  MET118      0.2261
    123  O        -67.8570   -2.0790   -3.8370 O.2   118  MET118     -0.2867
    124  CB       -65.5200   -1.6780   -1.6440 C.3   118  MET118      0.0387
    125  CG       -64.3900   -2.2090   -0.8000 C.3   118  MET118      0.0595
    126  SD       -64.4170   -1.6410    0.9050 S.3   118  MET118     -0.1393
    127  CE       -62.7150   -1.2830    1.3070 C.3   118  MET118      0.0692
    128  N        -60.0110   -7.7050   -1.9210 N.3   204  LEU204     -0.1245
    129  CA       -60.3560   -7.2640   -0.5690 C.3   204  LEU204      0.1561
    130  C        -59.6960   -8.1450    0.4810 C.2   204  LEU204      0.2260
    131  O        -59.1530   -7.6600    1.4720 O.2   204  LEU204     -0.2867
    132  CB       -61.8770   -7.2510   -0.3820 C.3   204  LEU204      0.0270
    133  CG       -62.6220   -6.4110   -1.4220 C.3   204  LEU204      0.0019
    134  CD1      -64.1310   -6.4930   -1.1860 C.3   204  LEU204      0.0001
    135  CD2      -62.1390   -4.9530   -1.4270 C.3   204  LEU204      0.0001
    136  N        -55.9160   -7.5920    0.6550 N.3   207  PHE207     -0.1227
    137  CA       -55.6800   -6.3600    1.3650 C.3   207  PHE207      0.1736
    138  C        -55.8330   -6.5200    2.8780 C.2   207  PHE207      0.2595
    139  O        -55.0070   -6.0510    3.6530 O.2   207  PHE207     -0.2718
    140  CB       -56.5410   -5.2240    0.8460 C.3   207  PHE207      0.0547
    141  CG       -55.8500   -3.9160    0.9530 C.ar  207  PHE207     -0.0202
    142  CD1      -55.1530   -3.3970   -0.1420 C.ar  207  PHE207     -0.0042
    143  CD2      -55.8040   -3.2370    2.1800 C.ar  207  PHE207     -0.0042
    144  CE1      -54.4360   -2.1860   -0.0400 C.ar  207  PHE207     -0.0003
    145  CE2      -55.1050   -2.0090    2.3060 C.ar  207  PHE207     -0.0003
    146  CZ       -54.4080   -1.4850    1.1870 C.ar  207  PHE207     -0.0000
    147  N        -56.8630   -7.2430    3.2770 N.am  208  CYS208     -0.1970
    148  CA       -57.0820   -7.5460    4.6650 C.3   208  CYS208      0.1712
    149  C        -55.9110   -8.3480    5.2790 C.2   208  CYS208      0.2296
    150  O        -55.3490   -7.9480    6.3090 O.2   208  CYS208     -0.2864
    151  CB       -58.4310   -8.2480    4.7900 C.3   208  CYS208      0.0983
    152  SG       -58.8160   -8.8860    6.3910 S.3   208  CYS208     -0.0798
    153  N        -52.8750   -5.9860    5.7470 N.3   211  THR211     -0.1218
    154  CA       -52.9330   -5.0240    6.8540 C.3   211  THR211      0.1862
    155  C        -52.9000   -5.7280    8.1880 C.2   211  THR211      0.2287
    156  O        -52.4180   -5.1880    9.1670 O.2   211  THR211     -0.2866
    157  CB       -54.1370   -4.0390    6.7790 C.3   211  THR211      0.1770
    158  OG1      -55.3740   -4.7690    6.7470 O.3   211  THR211     -0.2211
    159  CG2      -54.0300   -3.1430    5.5390 C.3   211  THR211      0.0375
    160  N        -52.6960   -0.8870   11.9090 N.3   219  VAL219     -0.1245
    161  CA       -54.1380   -1.0740   11.7450 C.3   219  VAL219      0.1561
    162  C        -54.7060   -1.9780   12.8430 C.2   219  VAL219      0.2260
    163  O        -54.1770   -3.0450   13.0850 O.2   219  VAL219     -0.2867
    164  CB       -54.4830   -1.6160   10.3360 C.3   219  VAL219      0.0252
    165  CG1      -55.9950   -1.8740   10.2030 C.3   219  VAL219      0.0019
    166  CG2      -54.0120   -0.6400    9.2760 C.3   219  VAL219      0.0019
    167  N        -57.4060   -4.4960   14.6290 N.3   221  PHE221     -0.1241
    168  CA       -58.4170   -5.4950   14.3610 C.3   221  PHE221      0.1605
    169  C        -59.0560   -5.9440   15.6780 C.2   221  PHE221      0.2264
    170  O        -58.3520   -6.3060   16.6170 O.2   221  PHE221     -0.2867
    171  CB       -57.8170   -6.7280   13.6750 C.3   221  PHE221      0.0534
    172  CG       -57.5110   -6.5400   12.2090 C.ar  221  PHE221     -0.0203
    173  CD1      -58.4290   -6.9460   11.2330 C.ar  221  PHE221     -0.0042
    174  CD2      -56.2890   -5.9870   11.8000 C.ar  221  PHE221     -0.0042
    175  CE1      -58.1510   -6.7800    9.8720 C.ar  221  PHE221     -0.0003
    176  CE2      -55.9990   -5.8210   10.4370 C.ar  221  PHE221     -0.0003
    177  CZ       -56.9340   -6.2220    9.4690 C.ar  221  PHE221     -0.0000
    178  N        -62.4690  -10.6080   14.4030 N.3   225  LEU225     -0.1245
    179  CA       -61.7800  -10.6180   13.1200 C.3   225  LEU225      0.1561
    180  C        -60.4030  -11.2540   13.2000 C.2   225  LEU225      0.2260
    181  O        -60.0360  -12.0450   12.3360 O.2   225  LEU225     -0.2867
    182  CB       -61.6950   -9.2050   12.5590 C.3   225  LEU225      0.0270
    183  CG       -62.7050   -8.8470   11.4840 C.3   225  LEU225      0.0019
    184  CD1      -64.0650   -9.5570   11.6620 C.3   225  LEU225      0.0001
    185  CD2      -62.8430   -7.3350   11.3130 C.3   225  LEU225      0.0001
@<TRIPOS>BOND
     1   122   123    2
     2   122   121    1
     3   120   121    1
     4   121   124    1
     5   111   112    1
     6   114   113    2
     7   113   112    1
     8   128   129    1
     9   112   115    1
    10   124   125    1
    11   135   133    1
    12   133   134    1
    13   133   132    1
    14   125   126    1
    15   129   132    1
    16   129   130    1
    17    79    78    2
    18   115   116    1
    19   142   144   ar
    20   142   141   ar
    21   144   146   ar
    22    92    91    2
    23    84    83    2
    24    78    77    1
    25    80    77    1
    26    91    90    1
    27    83    82    1
    28   116   117    1
    29   130   131    2
    30    89    90    1
    31   136   137    1
    32   140   141    1
    33   140   137    1
    34   126   127    1
    35   141   143   ar
    36    77    76    1
    37    90    93    1
    38   146   145   ar
    39   137   138    1
    40    86    88    1
    41    86    85    1
    42    86    87    1
    43    82    85    1
    44    82    81    1
    45   117   119   am
    46   117   118    2
    47   143   145   ar
    48    76    70   am
    49    63    62    2
    50    65    64    1
    51    65    66    1
    52    62    61    1
    53    93    94    1
    54   138   147   am
    55   138   139    2
    56    64    61    1
    57    71    70    2
    58    70    69    1
    59   110   109   ar
    60   110   108   ar
    61   147   148    1
    62   109   107   ar
    63    66    67    1
    64    94    95    1
    65    61    60    1
    66    68    69    1
    67   108   106   ar
    68   107   105   ar
    69    60    48   am
    70    69    72    1
    71   100   101    1
    72   148   151    1
    73   148   149    1
    74   151   152    1
    75    95    96    1
    76   106   105   ar
    77    48    49    2
    78    48    47    1
    79    96    97    2
    80   105   104    1
    81    46    47    1
    82    98    97    1
    83    97    99    1
    84    72    73    1
    85   149   150    2
    86   159   157    1
    87   101   104    1
    88   101   102    1
    89   153   154    1
    90     7     8    1
    91     7     6    1
    92    47    50    1
    93    15    14    1
    94     6     5    1
    95    73    74    1
    96   102   103    2
    97   158   157    1
    98   157   154    1
    99   154   155    1
   100    52    54   ar
   101    52    51   ar
   102    54    55   ar
   103    51    50    1
   104    51    53   ar
   105    55    57   ar
   106    55    53   ar
   107    57    59   ar
   108    53    56   ar
   109    16    14    1
   110    14    13    1
   111    75    74    1
   112    56    58   ar
   113    59    58   ar
   114    44    43    2
   115    13    10    1
   116     5     2    1
   117   155   156    2
   118     2     1    1
   119     2     3    1
   120    45    43   am
   121    43    42    1
   122    23    22    2
   123   166   164    1
   124    10    11    1
   125    10     9    1
   126   177   175   ar
   127   177   176   ar
   128    32    30    1
   129   175   173   ar
   130     3     4    2
   131    12    11    2
   132    11    17   am
   133    42    41    1
   134    22    24   am
   135    22    21    1
   136   165   164    1
   137    41    38    1
   138   164   161    1
   139   176   174   ar
   140    17    18    1
   141    34    33    1
   142    34    35    1
   143    30    29    1
   144    30    31    1
   145    18    21    1
   146    18    19    1
   147   173   172   ar
   148    40    39    2
   149   185   183    1
   150    36    35    2
   151    33    27   am
   152   183   184    1
   153   183   182    1
   154    39    38    1
   155    29    26    1
   156    38    37    1
   157   161   160    1
   158   161   162    1
   159   174   172   ar
   160    27    28    2
   161    27    26    1
   162   172   171    1
   163   181   180    2
   164    19    20    2
   165   182   179    1
   166    26    25    1
   167   162   163    2
   168   179   180    1
   169   179   178    1
   170   171   168    1
   171   168   167    1
   172   168   169    1
   173   169   170    2
