@<TRIPOS>MOLECULE
tmp/3gncC00.pdb
 122 112 0 0 0
SMALL
GASTEIGER

@<TRIPOS>ATOM
      1  N        -21.8450   67.7390   -3.8640 N.3    94  ARG94      -0.1231
      2  CA       -22.3210   68.5610   -2.7730 C.3    94  ARG94       0.1694
      3  C        -21.3960   69.7660   -2.6260 C.2    94  ARG94       0.2592
      4  O        -21.8680   70.8790   -2.4420 O.2    94  ARG94      -0.2718
      5  CB       -22.4400   67.7430   -1.4740 C.3    94  ARG94       0.0321
      6  CG       -23.1950   68.4450   -0.3460 C.3    94  ARG94       0.0489
      7  CD       -22.2940   69.2950    0.5580 C.3    94  ARG94       0.2205
      8  NE       -21.1330   68.5240    0.9980 N.pl3  94  ARG94      -0.0865
      9  CZ       -19.8640   68.9280    0.9460 C.cat  94  ARG94       0.5346
     10  NH1      -18.9060   68.1070    1.3660 N.pl3  94  ARG94       0.1354
     11  NH2      -19.5390   70.1480    0.5350 N.pl3  94  ARG94       0.1354
     12  N        -20.0900   69.5300   -2.7410 N.am   95  SER95      -0.1952
     13  CA       -19.0690   70.5800   -2.6380 C.3    95  SER95       0.1924
     14  C        -19.2680   71.7320   -3.6400 C.2    95  SER95       0.2314
     15  O        -19.2860   72.9190   -3.2640 O.2    95  SER95      -0.2863
     16  CB       -17.6950   69.9610   -2.8330 C.3    95  SER95       0.2116
     17  OG       -16.6910   70.9450   -2.7000 O.3    95  SER95      -0.2180
     18  N        -22.0460   73.5760   -2.3750 N.3    98  SER98      -0.1202
     19  CA       -21.7520   74.3740   -1.1740 C.3    98  SER98       0.2020
     20  C        -21.1190   75.7210   -1.5370 C.2    98  SER98       0.2618
     21  O        -21.4430   76.7580   -0.9440 O.2    98  SER98      -0.2717
     22  CB       -20.7750   73.6240   -0.2380 C.3    98  SER98       0.2103
     23  OG       -21.3180   72.4130    0.2690 O.3    98  SER98      -0.2182
     24  N        -20.1980   75.6780   -2.5010 N.am   99  VAL99      -0.1979
     25  CA       -19.5170   76.8760   -3.0010 C.3    99  VAL99       0.1595
     26  C        -20.5300   77.9030   -3.4970 C.2    99  VAL99       0.2287
     27  O        -20.5820   79.0270   -3.0070 O.2    99  VAL99      -0.2864
     28  CB       -18.5070   76.5170   -4.1180 C.3    99  VAL99       0.0276
     29  CG1      -17.9270   77.7750   -4.7760 C.3    99  VAL99       0.0022
     30  CG2      -17.3710   75.6580   -3.5460 C.3    99  VAL99       0.0022
     31  N        -20.7500   80.0280   -0.2260 N.3   103  LEU103     -0.1245
     32  CA       -19.4890   80.7460   -0.3810 C.3   103  LEU103      0.1561
     33  C        -19.5590   81.8920   -1.4050 C.2   103  LEU103      0.2260
     34  O        -18.6270   82.6940   -1.4810 O.2   103  LEU103     -0.2867
     35  CB       -18.3780   79.7690   -0.7800 C.3   103  LEU103      0.0270
     36  CG       -18.0450   78.5620    0.1170 C.3   103  LEU103      0.0019
     37  CD1      -16.7850   77.8630   -0.3910 C.3   103  LEU103      0.0001
     38  CD2      -17.8740   78.9840    1.5800 C.3   103  LEU103      0.0001
     39  N        -12.4710   75.2390   -5.3050 N.3   163  THR163     -0.1218
     40  CA       -13.4700   74.4640   -6.0450 C.3   163  THR163      0.1862
     41  C        -14.2270   75.3830   -7.0030 C.2   163  THR163      0.2287
     42  O        -14.5520   76.5050   -6.6330 O.2   163  THR163     -0.2866
     43  CB       -14.4680   73.7530   -5.1030 C.3   163  THR163      0.1770
     44  OG1      -13.7540   72.8590   -4.2460 O.3   163  THR163     -0.2211
     45  CG2      -15.5060   72.9520   -5.9100 C.3   163  THR163      0.0375
     46  N        -12.7850   63.4820   -3.8290 N.3   208  LEU208     -0.1245
     47  CA       -13.6360   64.5490   -4.3960 C.3   208  LEU208      0.1561
     48  C        -13.3350   64.8010   -5.8850 C.2   208  LEU208      0.2260
     49  O        -13.3620   65.9410   -6.3660 O.2   208  LEU208     -0.2867
     50  CB       -13.5270   65.8440   -3.5900 C.3   208  LEU208      0.0270
     51  CG       -13.9420   65.7210   -2.1220 C.3   208  LEU208      0.0019
     52  CD1      -13.6620   67.0400   -1.4030 C.3   208  LEU208      0.0001
     53  CD2      -15.4010   65.3210   -2.0080 C.3   208  LEU208      0.0001
     54  N        -17.9440   80.3110    5.5990 N.3   242  LEU242     -0.1245
     55  CA       -17.4840   78.9860    6.0420 C.3   242  LEU242      0.1561
     56  C        -18.4510   78.3800    7.0610 C.2   242  LEU242      0.2260
     57  O        -18.6410   77.1760    7.0830 O.2   242  LEU242     -0.2867
     58  CB       -16.0810   79.0790    6.6760 C.3   242  LEU242      0.0270
     59  CG       -14.8970   79.5760    5.8300 C.3   242  LEU242      0.0019
     60  CD1      -13.6540   79.7750    6.6880 C.3   242  LEU242      0.0001
     61  CD2      -14.5870   78.6120    4.6980 C.3   242  LEU242      0.0001
     62  N        -21.3870   77.1740    5.0060 N.3   245  ALA245     -0.1231
     63  CA       -20.9840   75.9940    4.2480 C.3   245  ALA245      0.1694
     64  C        -20.8730   74.7570    5.1700 C.2   245  ALA245      0.2591
     65  O        -21.2630   73.6440    4.7970 O.2   245  ALA245     -0.2718
     66  CB       -19.6690   76.2410    3.5280 C.3   245  ALA245      0.0304
     67  N        -20.3310   74.9570    6.3640 N.am  246  ARG246     -0.1980
     68  CA       -20.1510   73.8460    7.3080 C.3   246  ARG246      0.1597
     69  C        -21.4840   73.3020    7.7800 C.2   246  ARG246      0.2287
     70  O        -21.6320   72.1020    7.9250 O.2   246  ARG246     -0.2864
     71  CB       -19.3660   74.2910    8.5080 C.3   246  ARG246      0.0334
     72  CG       -17.8900   74.3960    8.2660 C.3   246  ARG246      0.0492
     73  CD       -17.3000   75.1340    9.4320 C.3   246  ARG246      0.2205
     74  NE       -15.9110   75.4910    9.2250 N.pl3 246  ARG246     -0.0865
     75  CZ       -15.3800   76.6440    9.6160 C.cat 246  ARG246      0.5346
     76  NH1      -16.1220   77.5750   10.2220 N.pl3 246  ARG246      0.1354
     77  NH2      -14.1000   76.8720    9.3790 N.pl3 246  ARG246      0.1354
     78  N        -22.5790   71.0300    5.0960 N.3   249  ILE249     -0.1245
     79  CA       -21.7440   69.8300    5.1210 C.3   249  ILE249      0.1561
     80  C        -22.1590   68.9160    6.2940 C.2   249  ILE249      0.2260
     81  O        -22.1330   67.6900    6.1720 O.2   249  ILE249     -0.2867
     82  CB       -20.2460   70.2030    5.2040 C.3   249  ILE249      0.0252
     83  CG1      -19.7990   70.9040    3.9090 C.3   249  ILE249      0.0019
     84  CG2      -19.3620   68.9750    5.4810 C.3   249  ILE249      0.0019
     85  CD1      -18.4570   71.7160    4.0240 C.3   249  ILE249      0.0001
     86  N        -20.8360   69.7070   12.4200 N.3   323  LYS323     -0.1245
     87  CA       -19.9190   69.4760   11.3110 C.3   323  LYS323      0.1561
     88  C        -18.9050   68.4110   11.6640 C.2   323  LYS323      0.2260
     89  O        -18.6530   67.4920   10.8930 O.2   323  LYS323     -0.2867
     90  CB       -19.1650   70.7550   10.9430 C.3   323  LYS323      0.0271
     91  CG       -18.5890   70.7360    9.5230 C.3   323  LYS323      0.0035
     92  CD       -17.1780   70.1650    9.4260 C.3   323  LYS323      0.0206
     93  CE       -16.6860   70.1960    7.9760 C.3   323  LYS323      0.1093
     94  NZ       -15.2250   69.8910    7.8540 N.3   323  LYS323     -0.1314
     95  N        -12.8760   65.0300    2.9420 N.3   359  VAL359     -0.1245
     96  CA       -13.7470   65.9750    3.6000 C.3   359  VAL359      0.1561
     97  C        -13.2890   66.1680    5.0410 C.2   359  VAL359      0.2260
     98  O        -13.2740   67.2920    5.5530 O.2   359  VAL359     -0.2867
     99  CB       -15.2180   65.5320    3.5690 C.3   359  VAL359      0.0252
    100  CG1      -16.0310   66.3340    4.5750 C.3   359  VAL359      0.0019
    101  CG2      -15.7910   65.6970    2.1710 C.3   359  VAL359      0.0019
    102  N        -10.1510   68.3890    5.0380 N.3   362  TYR362     -0.1227
    103  CA       -10.1540   69.6090    4.2370 C.3   362  TYR362      0.1736
    104  C         -9.8310   70.8380    5.0860 C.2   362  TYR362      0.2595
    105  O         -9.0940   71.7080    4.6500 O.2   362  TYR362     -0.2718
    106  CB       -11.4740   69.7830    3.4660 C.3   362  TYR362      0.0548
    107  CG       -11.4930   71.0410    2.6360 C.ar  362  TYR362     -0.0200
    108  CD1      -10.8940   71.0840    1.3860 C.ar  362  TYR362     -0.0009
    109  CD2      -12.0770   72.1910    3.1150 C.ar  362  TYR362     -0.0009
    110  CE1      -10.8930   72.2490    0.6240 C.ar  362  TYR362      0.0417
    111  CE2      -12.0890   73.3570    2.3710 C.ar  362  TYR362      0.0417
    112  CZ       -11.4940   73.3850    1.1230 C.ar  362  TYR362      0.1957
    113  OH       -11.5120   74.5630    0.3880 O.3   362  TYR362     -0.2866
    114  N        -10.3630   70.9050    6.2980 N.am  363  GLU363     -0.1979
    115  CA       -10.0220   71.9850    7.2230 C.3   363  GLU363      0.1602
    116  C         -8.7800   71.6820    8.1120 C.2   363  GLU363      0.2287
    117  O         -8.5960   72.2990    9.1550 O.2   363  GLU363     -0.2864
    118  CB       -11.2380   72.3350    8.0850 C.3   363  GLU363      0.0415
    119  CG       -12.4860   72.6230    7.2760 C.3   363  GLU363      0.1163
    120  CD       -13.5730   73.2340    8.1030 C.2   363  GLU363      0.3649
    121  OE1      -13.6520   74.4670    8.1030 O.co2 363  GLU363     -0.2457
    122  OE2      -14.3360   72.5020    8.7810 O.co2 363  GLU363     -0.2457
@<TRIPOS>BOND
     1    41    42    2
     2    41    40    1
     3    49    48    2
     4    40    39    1
     5    40    43    1
     6    45    43    1
     7    48    47    1
     8    43    44    1
     9    29    28    1
    10    47    46    1
    11    47    50    1
    12    28    30    1
    13    28    25    1
    14     1     2    1
    15    14    15    2
    16    14    13    1
    17    50    51    1
    18    26    27    2
    19    26    25    1
    20    25    24    1
    21    16    17    1
    22    16    13    1
    23     2     3    1
    24     2     5    1
    25    12    13    1
    26    12     3   am
    27     3     4    2
    28    24    20   am
    29    18    19    1
    30    51    53    1
    31    51    52    1
    32    20    19    1
    33    20    21    2
    34    34    33    2
    35     5     6    1
    36    33    32    1
    37    19    22    1
    38    35    32    1
    39    35    36    1
    40    37    36    1
    41    32    31    1
    42     6     7    1
    43    22    23    1
    44    36    38    1
    45   113   112    1
    46    11     9    1
    47     7     8    1
    48   110   112   ar
    49   110   108   ar
    50     9     8    2
    51     9    10    1
    52   112   111   ar
    53   108   107   ar
    54   101    99    1
    55   111   109   ar
    56   107   109   ar
    57   107   106    1
    58    95    96    1
    59   106   103    1
    60    66    63    1
    61    99    96    1
    62    99   100    1
    63    96    97    1
    64    83    85    1
    65    83    82    1
    66   103   102    1
    67   103   104    1
    68    63    62    1
    69    63    64    1
    70   105   104    2
    71    61    59    1
    72    65    64    2
    73    97    98    2
    74   104   114   am
    75    78    79    1
    76    79    82    1
    77    79    80    1
    78    64    67   am
    79    82    84    1
    80    54    55    1
    81    59    58    1
    82    59    60    1
    83    55    58    1
    84    55    56    1
    85    81    80    2
    86   114   115    1
    87    67    68    1
    88    56    57    2
    89   115   118    1
    90   115   116    1
    91   119   118    1
    92   119   120    1
    93    68    69    1
    94    68    71    1
    95    69    70    2
    96    94    93    1
    97    93    92    1
    98   120   121   ar
    99   120   122   ar
   100   116   117    2
   101    72    71    1
   102    72    73    1
   103    74    73    1
   104    74    75    2
   105    77    75    1
   106    92    91    1
   107    91    90    1
   108    75    76    1
   109    89    88    2
   110    90    87    1
   111    87    88    1
   112    87    86    1
