@<TRIPOS>MOLECULE
tmp/3gncC01.pdb
 107 102 0 0 0
SMALL
GASTEIGER

@<TRIPOS>ATOM
      1  N        -20.8360   69.7070   12.4200 N.3   323  LYS323     -0.1231
      2  CA       -19.9190   69.4760   11.3110 C.3   323  LYS323      0.1693
      3  C        -18.9050   68.4110   11.6640 C.2   323  LYS323      0.2591
      4  O        -18.6530   67.4920   10.8930 O.2   323  LYS323     -0.2718
      5  CB       -19.1650   70.7550   10.9430 C.3   323  LYS323      0.0285
      6  CG       -18.5890   70.7360    9.5230 C.3   323  LYS323      0.0035
      7  CD       -17.1780   70.1650    9.4260 C.3   323  LYS323      0.0206
      8  CE       -16.6860   70.1960    7.9760 C.3   323  LYS323      0.1093
      9  NZ       -15.2250   69.8910    7.8540 N.3   323  LYS323     -0.1314
     10  N        -18.2810   68.5660   12.8200 N.am  324  ARG324     -0.1980
     11  CA       -17.2670   67.6200   13.2520 C.3   324  ARG324      0.1597
     12  C        -17.8580   66.2230   13.4270 C.2   324  ARG324      0.2287
     13  O        -17.2910   65.2370   12.9630 O.2   324  ARG324     -0.2864
     14  CB       -16.6570   68.0840   14.5590 C.3   324  ARG324      0.0334
     15  CG       -15.5950   67.1860   15.1070 C.3   324  ARG324      0.0492
     16  CD       -14.9720   67.8080   16.2850 C.3   324  ARG324      0.2205
     17  NE       -13.9300   66.9780   16.8870 N.pl3 324  ARG324     -0.0865
     18  CZ       -14.1260   66.0850   17.8630 C.cat 324  ARG324      0.5346
     19  NH1      -15.3370   65.8630   18.3590 N.pl3 324  ARG324      0.1354
     20  NH2      -13.0900   65.4010   18.3410 N.pl3 324  ARG324      0.1354
     21  N        -19.1210   64.6050    9.9900 N.3   327  CYS327     -0.1221
     22  CA       -18.0040   64.1620    9.1640 C.3   327  CYS327      0.1808
     23  C        -17.2390   62.9710    9.7450 C.2   327  CYS327      0.2601
     24  O        -16.8860   62.0510    9.0100 O.2   327  CYS327     -0.2717
     25  CB       -17.0460   65.3240    8.8750 C.3   327  CYS327      0.0970
     26  SG       -17.8650   66.6140    7.8260 S.3   327  CYS327     -0.0800
     27  N        -16.9670   63.0030   11.0510 N.am  328  GLY328     -0.1957
     28  CA       -16.1820   61.9560   11.7030 C.3   328  GLY328      0.1869
     29  C        -16.9640   60.6610   11.7780 C.2   328  GLY328      0.2309
     30  O        -16.4300   59.6090   11.4890 O.2   328  GLY328     -0.2863
     31  N        -17.2450   59.1640    8.2350 N.3   331  LEU331     -0.1231
     32  CA       -15.9930   58.4760    7.9380 C.3   331  LEU331      0.1693
     33  C        -15.8810   57.1220    8.6440 C.2   331  LEU331      0.2592
     34  O        -15.4610   56.1470    8.0330 O.2   331  LEU331     -0.2718
     35  CB       -14.7920   59.3480    8.3300 C.3   331  LEU331      0.0284
     36  CG       -13.3760   58.8050    8.0860 C.3   331  LEU331      0.0019
     37  CD1      -13.1980   58.2540    6.6490 C.3   331  LEU331      0.0001
     38  CD2      -12.3520   59.9050    8.3330 C.3   331  LEU331      0.0001
     39  N        -16.2080   57.0690    9.9360 N.am  332  ASP332     -0.1974
     40  CA       -16.2050   55.7910   10.6540 C.3   332  ASP332      0.1709
     41  C        -17.1730   54.7780   10.0210 C.2   332  ASP332      0.2293
     42  O        -16.8480   53.5930    9.8440 O.2   332  ASP332     -0.2864
     43  CB       -16.5360   55.9980   12.1240 C.3   332  ASP332      0.1436
     44  CG       -15.4340   56.7320   12.8780 C.2   332  ASP332      0.3671
     45  OD1      -15.7550   57.4000   13.8600 O.co2 332  ASP332     -0.2456
     46  OD2      -14.2530   56.6680   12.4900 O.co2 332  ASP332     -0.2456
     47  N        -12.8760   65.0300    2.9420 N.3   359  VAL359     -0.1231
     48  CA       -13.7470   65.9750    3.6000 C.3   359  VAL359      0.1692
     49  C        -13.2890   66.1680    5.0410 C.2   359  VAL359      0.2592
     50  O        -13.2740   67.2920    5.5530 O.2   359  VAL359     -0.2718
     51  CB       -15.2180   65.5320    3.5690 C.3   359  VAL359      0.0266
     52  CG1      -16.0310   66.3340    4.5750 C.3   359  VAL359      0.0020
     53  CG2      -15.7910   65.6970    2.1710 C.3   359  VAL359      0.0020
     54  N        -12.9160   65.0670    5.6810 N.am  360  ASN360     -0.1974
     55  CA       -12.4820   65.0970    7.0780 C.3   360  ASN360      0.1688
     56  C        -11.1590   65.7850    7.3600 C.2   360  ASN360      0.2292
     57  O        -10.8770   66.1100    8.5080 O.2   360  ASN360     -0.2864
     58  CB       -12.4240   63.6890    7.6400 C.3   360  ASN360      0.1181
     59  CG       -13.7350   63.2720    8.1930 C.2   360  ASN360      0.2629
     60  OD1      -13.9900   63.4820    9.3750 O.2   360  ASN360     -0.2716
     61  ND2      -14.6300   62.7640    7.3270 N.am  360  ASN360     -0.0877
     62  N        -10.3630   70.9050    6.2980 N.3   363  GLU363     -0.1231
     63  CA       -10.0220   71.9850    7.2230 C.3   363  GLU363      0.1699
     64  C         -8.7800   71.6820    8.1120 C.2   363  GLU363      0.2593
     65  O         -8.5960   72.2990    9.1550 O.2   363  GLU363     -0.2718
     66  CB       -11.2380   72.3350    8.0850 C.3   363  GLU363      0.0402
     67  CG       -12.4860   72.6230    7.2760 C.3   363  GLU363      0.1161
     68  CD       -13.5730   73.2340    8.1030 C.2   363  GLU363      0.3649
     69  OE1      -13.6520   74.4670    8.1030 O.co2 363  GLU363     -0.2457
     70  OE2      -14.3360   72.5020    8.7810 O.co2 363  GLU363     -0.2457
     71  N         -7.9290   70.7530    7.6810 N.am  364  GLY364     -0.1942
     72  CA        -6.6640   70.4720    8.3660 C.3   364  GLY364      0.2014
     73  C         -6.7110   69.1540    9.1180 C.2   364  GLY364      0.2639
     74  O         -7.7250   68.4800    9.1390 O.2   364  GLY364     -0.2714
     75  N         -5.6020   68.8030    9.7510 N.am  365  THR365     -0.1950
     76  CA        -5.4570   67.5240   10.4300 C.3   365  THR365      0.1897
     77  C         -5.3180   67.7400   11.9300 C.2   365  THR365      0.2313
     78  O         -4.9290   66.8230   12.6430 O.2   365  THR365     -0.2863
     79  CB        -4.1900   66.8120    9.9340 C.3   365  THR365      0.1794
     80  OG1       -3.0790   67.6980   10.0810 O.3   365  THR365     -0.2208
     81  CG2       -4.3250   66.3950    8.4820 C.3   365  THR365      0.0378
     82  N         -7.8600   68.8860   13.9900 N.3   367  ASP367     -0.1225
     83  CA        -9.1840   68.8640   14.6320 C.3   367  ASP367      0.1805
     84  C         -9.6370   70.2600   15.1060 C.2   367  ASP367      0.2598
     85  O         -9.9550   70.4780   16.2960 O.2   367  ASP367     -0.2718
     86  CB        -9.1820   67.8550   15.8020 C.3   367  ASP367      0.1424
     87  CG       -10.5750   67.3050   16.1160 C.2   367  ASP367      0.3668
     88  OD1      -11.5890   67.8330   15.6030 O.co2 367  ASP367     -0.2456
     89  OD2      -10.6630   66.3380   16.8950 O.co2 367  ASP367     -0.2456
     90  N         -9.6680   71.2070   14.1720 N.am  368  ILE368     -0.1966
     91  CA        -9.9500   72.6080   14.5070 C.3   368  ILE368      0.1727
     92  C        -11.2850   72.8120   15.2490 C.2   368  ILE368      0.2616
     93  O        -11.3890   73.7040   16.0970 O.2   368  ILE368     -0.2715
     94  CB        -9.8660   73.5240   13.2480 C.3   368  ILE368      0.0290
     95  CG1      -10.2290   74.9810   13.6020 C.3   368  ILE368      0.0022
     96  CG2      -10.7640   73.0050   12.1120 C.3   368  ILE368      0.0023
     97  CD1      -10.0620   75.9550   12.4370 C.3   368  ILE368      0.0001
     98  N        -12.2940   71.9920   14.9470 N.am  369  HIS369     -0.1973
     99  CA       -13.5830   72.0810   15.6390 C.3   369  HIS369      0.1656
    100  C        -13.5480   71.5970   17.0970 C.2   369  HIS369      0.2291
    101  O        -14.2080   72.1940   17.9820 O.2   369  HIS369     -0.2864
    102  CB       -14.6890   71.4190   14.8040 C.3   369  HIS369      0.0771
    103  CG       -14.9070   72.1170   13.4990 C.ar  369  HIS369      0.0820
    104  ND1      -15.4120   73.3980   13.4240 N.ar  369  HIS369     -0.2267
    105  CD2      -14.5980   71.7600   12.2290 C.ar  369  HIS369      0.1154
    106  CE1      -15.4570   73.7770   12.1570 C.ar  369  HIS369      0.1986
    107  NE2      -14.9590   72.8070   11.4140 N.ar  369  HIS369     -0.2212
@<TRIPOS>BOND
     1    53    51    1
     2    47    48    1
     3    51    48    1
     4    51    52    1
     5    48    49    1
     6    49    50    2
     7    49    54   am
     8    54    55    1
     9    62    63    1
    10    37    36    1
    11    55    56    1
    12    55    58    1
    13    63    66    1
    14    63    64    1
    15    67    66    1
    16    67    68    1
    17    61    59   am
    18    56    57    2
    19    58    59    1
    20    71    64   am
    21    71    72    1
    22    26    25    1
    23     9     8    1
    24    32    31    1
    25    32    35    1
    26    32    33    1
    27     8     7    1
    28    34    33    2
    29    36    35    1
    30    36    38    1
    31    69    68   ar
    32    68    70   ar
    33    64    65    2
    34    59    60    2
    35    72    73    1
    36    81    79    1
    37    33    39   am
    38    25    22    1
    39    24    23    2
    40    73    74    2
    41    73    75   am
    42    22    23    1
    43    22    21    1
    44     7     6    1
    45     6     5    1
    46    23    27   am
    47    75    76    1
    48    42    41    2
    49    79    80    1
    50    79    76    1
    51    39    40    1
    52    41    40    1
    53    76    77    1
    54    40    43    1
    55     4     3    2
    56     5     2    1
    57    27    28    1
    58     2     3    1
    59     2     1    1
    60   107   106   ar
    61   107   105   ar
    62    30    29    2
    63     3    10   am
    64    28    29    1
    65    77    78    2
    66    96    94    1
    67    43    44    1
    68   106   104   ar
    69   105   103   ar
    70    97    95    1
    71    46    44   ar
    72    10    11    1
    73    44    45   ar
    74    13    12    2
    75    94    95    1
    76    94    91    1
    77    11    12    1
    78    11    14    1
    79   104   103   ar
    80   103   102    1
    81    82    83    1
    82    90    91    1
    83    90    84   am
    84    91    92    1
    85    14    15    1
    86    83    84    1
    87    83    86    1
    88   102    99    1
    89    98    92   am
    90    98    99    1
    91    84    85    2
    92    15    16    1
    93    92    93    2
    94    88    87   ar
    95    99   100    1
    96    86    87    1
    97    87    89   ar
    98    16    17    1
    99    17    18    2
   100   100   101    2
   101    18    20    1
   102    18    19    1
