@<TRIPOS>MOLECULE
tmp/3gneB00.pdb
 109 106 0 0 0
SMALL
GASTEIGER

@<TRIPOS>ATOM
      1  N         25.3760   35.5780   22.4130 N.3    49  THR49      -0.1218
      2  CA        25.1260   34.1400   22.5190 C.3    49  THR49       0.1862
      3  C         24.4140   33.6920   21.2450 C.2    49  THR49       0.2287
      4  O         24.1430   34.4810   20.3410 O.2    49  THR49      -0.2866
      5  CB        24.2420   33.7930   23.7250 C.3    49  THR49       0.1770
      6  OG1       22.9510   34.3690   23.4360 O.3    49  THR49      -0.2211
      7  CG2       24.7920   34.3740   25.0170 C.3    49  THR49       0.0375
      8  N         31.9130   36.9190   28.1010 N.3    91  LYS91      -0.1245
      9  CA        32.7920   35.8560   28.5270 C.3    91  LYS91       0.1561
     10  C         34.2030   35.9730   27.9580 C.2    91  LYS91       0.2260
     11  O         34.3710   36.4000   26.8330 O.2    91  LYS91      -0.2867
     12  CB        32.2560   34.4790   28.0640 C.3    91  LYS91       0.0271
     13  CG        31.2410   33.8470   28.9810 C.3    91  LYS91       0.0035
     14  CD        30.0050   34.7010   29.1420 C.3    91  LYS91       0.0206
     15  CE        28.9870   33.8980   29.9920 C.3    91  LYS91       0.1093
     16  NZ        27.7940   34.7780   30.1990 N.3    91  LYS91      -0.1314
     17  N         27.0700   25.0410   31.3610 N.3   103  SER103     -0.1202
     18  CA        27.0160   26.3420   30.7220 C.3   103  SER103      0.2020
     19  C         25.7490   26.3580   29.8790 C.2   103  SER103      0.2619
     20  O         25.0610   25.3540   29.7680 O.2   103  SER103     -0.2717
     21  CB        28.2410   26.5650   29.8430 C.3   103  SER103      0.2103
     22  OG        28.2770   25.6770   28.7720 O.3   103  SER103     -0.2182
     23  N         25.4460   27.4830   29.2670 N.am  104  GLY104     -0.1942
     24  CA        24.3470   27.4960   28.2980 C.3   104  GLY104      0.2014
     25  C         23.0210   27.2690   28.9750 C.2   104  GLY104      0.2638
     26  O         22.1110   26.7290   28.3490 O.2   104  GLY104     -0.2714
     27  N         22.8600   27.6930   30.2240 N.am  105  TYR105     -0.1973
     28  CA        21.6140   27.5630   30.9590 C.3   105  TYR105      0.1639
     29  C         21.2900   26.0880   31.2230 C.2   105  TYR105      0.2290
     30  O         20.1390   25.7360   31.4870 O.2   105  TYR105     -0.2864
     31  CB        20.4810   28.2920   30.1880 C.3   105  TYR105      0.0560
     32  CG        19.3920   28.8220   31.0750 C.ar  105  TYR105     -0.0198
     33  CD1       19.5900   29.8920   31.9360 C.ar  105  TYR105     -0.0009
     34  CD2       18.1060   28.3000   31.1040 C.ar  105  TYR105     -0.0009
     35  CE1       18.6340   30.4320   32.7820 C.ar  105  TYR105      0.0417
     36  CE2       17.1060   28.7970   31.9310 C.ar  105  TYR105      0.0417
     37  CZ        17.3620   29.8500   32.7640 C.ar  105  TYR105      0.1957
     38  OH        16.3510   30.3270   33.5750 O.3   105  TYR105     -0.2866
     39  N         34.5930   30.2710   35.0290 N.3   115  ARG115     -0.1245
     40  CA        34.9540   31.1590   33.9310 C.3   115  ARG115      0.1563
     41  C         35.1510   32.5810   34.3880 C.2   115  ARG115      0.2260
     42  O         34.6030   33.0000   35.3990 O.2   115  ARG115     -0.2867
     43  CB        33.8690   31.1830   32.8350 C.3   115  ARG115      0.0307
     44  CG        33.8790   29.8610   32.0300 C.3   115  ARG115      0.0489
     45  CD        32.8240   29.9230   30.8960 C.3   115  ARG115      0.2205
     46  NE        31.4670   29.8300   31.5100 N.pl3 115  ARG115     -0.0865
     47  CZ        30.3300   29.9760   30.8290 C.cat 115  ARG115      0.5346
     48  NH1       30.3440   30.2870   29.5240 N.pl3 115  ARG115      0.1354
     49  NH2       29.1470   29.8370   31.4510 N.pl3 115  ARG115      0.1354
     50  N         32.7220   33.3760   37.3780 N.3   127  TYR127     -0.1241
     51  CA        31.3680   32.9950   36.9560 C.3   127  TYR127      0.1605
     52  C         31.2950   31.4660   36.9270 C.2   127  TYR127      0.2264
     53  O         31.9740   30.8300   36.0950 O.2   127  TYR127     -0.2867
     54  CB        31.1430   33.5580   35.5570 C.3   127  TYR127      0.0534
     55  CG        29.7260   33.4070   35.0560 C.ar  127  TYR127     -0.0201
     56  CD1       28.6670   33.9890   35.7580 C.ar  127  TYR127     -0.0009
     57  CD2       29.4720   32.6870   33.8810 C.ar  127  TYR127     -0.0009
     58  CE1       27.3700   33.8350   35.2840 C.ar  127  TYR127      0.0417
     59  CE2       28.1610   32.5640   33.4010 C.ar  127  TYR127      0.0417
     60  CZ        27.1310   33.1300   34.1110 C.ar  127  TYR127      0.1957
     61  OH        25.8510   33.0180   33.6590 O.3   127  TYR127     -0.2866
     62  N         29.2820   27.7000   37.0690 N.3   129  TYR129     -0.1241
     63  CA        28.1410   26.7940   36.9660 C.3   129  TYR129      0.1605
     64  C         28.5090   25.5870   37.8500 C.2   129  TYR129      0.2264
     65  O         29.4250   24.8210   37.4630 O.2   129  TYR129     -0.2867
     66  CB        27.9340   26.2990   35.5360 C.3   129  TYR129      0.0534
     67  CG        27.0150   27.1250   34.6680 C.ar  129  TYR129     -0.0201
     68  CD1       27.3140   28.4240   34.2700 C.ar  129  TYR129     -0.0009
     69  CD2       25.8450   26.5450   34.1890 C.ar  129  TYR129     -0.0009
     70  CE1       26.4450   29.1460   33.4560 C.ar  129  TYR129      0.0417
     71  CE2       24.9680   27.2660   33.3870 C.ar  129  TYR129      0.0417
     72  CZ        25.2900   28.5660   33.0130 C.ar  129  TYR129      0.1957
     73  OH        24.3860   29.2320   32.2120 O.3   129  TYR129     -0.2866
     74  N         21.1490   30.7430   35.3320 N.3   146  HIS146     -0.1241
     75  CA        22.4430   31.1690   34.8610 C.3   146  HIS146      0.1621
     76  C         23.5140   30.8520   35.9040 C.2   146  HIS146      0.2264
     77  O         23.2090   30.3670   36.9810 O.2   146  HIS146     -0.2867
     78  CB        22.4960   32.6760   34.5300 C.3   146  HIS146      0.0745
     79  CG        21.5240   33.0030   33.4200 C.ar  146  HIS146      0.0817
     80  ND1       21.7780   32.7770   32.0950 N.ar  146  HIS146     -0.2268
     81  CD2       20.2920   33.5710   33.4820 C.ar  146  HIS146      0.1154
     82  CE1       20.7330   33.1660   31.3540 C.ar  146  HIS146      0.1986
     83  NE2       19.8390   33.6400   32.2030 N.ar  146  HIS146     -0.2212
     84  N         32.5350   36.0350   23.9650 N.3   219  PHE219     -0.1241
     85  CA        31.3330   36.5790   23.3140 C.3   219  PHE219      0.1605
     86  C         30.6710   37.4950   24.2950 C.2   219  PHE219      0.2264
     87  O         30.8820   37.3850   25.5200 O.2   219  PHE219     -0.2867
     88  CB        30.3650   35.4470   22.8610 C.3   219  PHE219      0.0534
     89  CG        29.9560   34.5210   23.9920 C.ar  219  PHE219     -0.0203
     90  CD1       28.8460   34.8230   24.7940 C.ar  219  PHE219     -0.0042
     91  CD2       30.7020   33.3740   24.2620 C.ar  219  PHE219     -0.0042
     92  CE1       28.4590   34.0060   25.8370 C.ar  219  PHE219     -0.0003
     93  CE2       30.3280   32.5440   25.3180 C.ar  219  PHE219     -0.0003
     94  CZ        29.2320   32.8580   26.1020 C.ar  219  PHE219     -0.0000
     95  N         27.5650   38.9490   26.5360 N.3   221  GLY221     -0.1210
     96  CA        26.3060   38.5540   27.1380 C.3   221  GLY221      0.1956
     97  C         26.3720   37.1640   27.7640 C.2   221  GLY221      0.2612
     98  O         27.4370   36.6090   28.0310 O.2   221  GLY221     -0.2717
     99  N         25.2190   36.5590   27.9980 N.am  222  GLY222     -0.1942
    100  CA        23.9320   37.2390   27.7960 C.3   222  GLY222      0.1998
    101  C         23.5940   38.1390   28.9630 C.2   222  GLY222      0.2478
    102  O         24.3860   38.1870   29.9590 O.2   222  GLY222     -0.2729
    103  N         22.4290   38.8130   28.8020 N.am  223  PRO223     -0.2771
    104  CA        21.6540   38.7270   27.5610 C.3   223  PRO223      0.1083
    105  C         21.9810   39.8640   26.6060 C.3   223  PRO223      0.2017
    106  O         21.3370   39.8320   25.5420 O.3   223  PRO223     -0.2186
    107  CB        20.1850   38.8790   28.0200 C.3   223  PRO223      0.0243
    108  CG        20.3510   39.9110   29.1260 C.3   223  PRO223      0.0233
    109  CD        21.6980   39.6590   29.7490 C.3   223  PRO223      0.0935
@<TRIPOS>BOND
     1     4     3    2
     2     3     2    1
     3     1     2    1
     4     2     5    1
     5    88    85    1
     6    88    89    1
     7    85    84    1
     8    85    86    1
     9     6     5    1
    10     5     7    1
    11    89    91   ar
    12    89    90   ar
    13    91    93   ar
    14    86    87    2
    15    90    92   ar
    16    93    94   ar
    17   106   105    1
    18    92    94   ar
    19    95    96    1
    20   105   104    1
    21    11    10    2
    22    96    97    1
    23   104   107    1
    24   104   103    1
    25    97    99   am
    26    97    98    2
    27   100    99    1
    28   100   101    1
    29    10     9    1
    30   107   108    1
    31    12     9    1
    32    12    13    1
    33     8     9    1
    34    24    25    1
    35    24    23    1
    36    26    25    2
    37    22    21    1
    38   103   101   am
    39   103   109    1
    40   101   102    2
    41    25    27   am
    42    13    14    1
    43   108   109    1
    44    14    15    1
    45    23    19   am
    46    48    47    1
    47    20    19    2
    48    21    18    1
    49    19    18    1
    50    15    16    1
    51    31    28    1
    52    31    32    1
    53    27    28    1
    54    18    17    1
    55    47    49    1
    56    47    46    2
    57    45    46    1
    58    45    44    1
    59    28    29    1
    60    32    34   ar
    61    32    33   ar
    62    34    36   ar
    63    29    30    2
    64    82    80   ar
    65    82    83   ar
    66    36    37   ar
    67    33    35   ar
    68    44    43    1
    69    80    79   ar
    70    83    81   ar
    71    73    72    1
    72    37    35   ar
    73    37    38    1
    74    43    40    1
    75    72    71   ar
    76    72    70   ar
    77    71    69   ar
    78    59    57   ar
    79    59    60   ar
    80    79    81   ar
    81    79    78    1
    82    70    68   ar
    83    61    60    1
    84    57    55   ar
    85    40    41    1
    86    40    39    1
    87    60    58   ar
    88    69    67   ar
    89    68    67   ar
    90    41    42    2
    91    78    75    1
    92    67    66    1
    93    75    74    1
    94    75    76    1
    95    55    54    1
    96    55    56   ar
    97    58    56   ar
    98    66    63    1
    99    54    51    1
   100    76    77    2
   101    53    52    2
   102    52    51    1
   103    51    50    1
   104    63    62    1
   105    63    64    1
   106    65    64    2
