@<TRIPOS>MOLECULE
tmp/3gniB00.pdb
 205 193 0 0 0
SMALL
GASTEIGER

@<TRIPOS>ATOM
      1  N         -5.0510  -26.7610  -32.0450 N.3    30  ILE30      -0.1231
      2  CA        -4.4820  -25.8150  -33.0130 C.3    30  ILE30       0.1692
      3  C         -2.9430  -25.8070  -32.9550 C.2    30  ILE30       0.2593
      4  O         -2.2720  -25.2470  -33.8380 O.2    30  ILE30      -0.2718
      5  CB        -5.0770  -24.3840  -32.8580 C.3    30  ILE30       0.0266
      6  CG1       -4.8170  -23.8230  -31.4460 C.3    30  ILE30       0.0019
      7  CG2       -6.5630  -24.4040  -33.1960 C.3    30  ILE30       0.0020
      8  CD1       -5.0770  -22.3270  -31.2890 C.3    30  ILE30       0.0001
      9  N         -2.3980  -26.4520  -31.9220 N.am   31  GLY31      -0.1942
     10  CA        -0.9540  -26.4420  -31.6930 C.3    31  GLY31       0.2014
     11  C         -0.4810  -27.3590  -30.5910 C.2    31  GLY31       0.2639
     12  O         -1.2790  -27.9670  -29.8930 O.2    31  GLY31      -0.2714
     13  N          0.8340  -27.4320  -30.4450 N.am   32  LYS32      -0.1963
     14  CA         1.5110  -28.3050  -29.4810 C.3    32  LYS32       0.1731
     15  C          2.8170  -27.6250  -29.0510 C.2    32  LYS32       0.2656
     16  O          3.4910  -26.9910  -29.8690 O.2    32  LYS32      -0.2711
     17  CB         1.8390  -29.6550  -30.1340 C.3    32  LYS32       0.0312
     18  CG         1.7000  -30.8690  -29.2310 C.3    32  LYS32       0.0038
     19  CD         0.3420  -31.5640  -29.4100 C.3    32  LYS32       0.0206
     20  CE         0.2650  -32.8920  -28.6280 C.3    32  LYS32       0.1093
     21  NZ         0.1840  -32.6680  -27.1530 N.3    32  LYS32      -0.1314
     22  N          3.1740  -27.7600  -27.7770 N.am   33  GLY33      -0.1716
     23  CA         4.4860  -27.3140  -27.3190 C.2    33  GLY33       0.1480
     24  C          4.9060  -27.8310  -25.9580 C.2    33  GLY33       0.2820
     25  O          4.4940  -28.9200  -25.5390 O.2    33  GLY33      -0.2669
     26  N          5.7110  -27.0140  -25.2740 N.am   34  PHE34      -0.1925
     27  CA         6.4090  -27.3630  -24.0260 C.3    34  PHE34       0.1774
     28  C          6.8920  -28.8110  -23.9920 C.2    34  PHE34       0.2619
     29  O          6.3990  -29.6320  -23.2200 O.2    34  PHE34      -0.2715
     30  CB         5.5850  -26.9960  -22.7760 C.3    34  PHE34       0.0574
     31  CG         6.3890  -26.9970  -21.4910 C.ar   34  PHE34      -0.0200
     32  CD1        7.6190  -26.3220  -21.4080 C.ar   34  PHE34      -0.0042
     33  CD2        5.9220  -27.6680  -20.3630 C.ar   34  PHE34      -0.0042
     34  CE1        8.3770  -26.3260  -20.2140 C.ar   34  PHE34      -0.0003
     35  CE2        6.6640  -27.6700  -19.1710 C.ar   34  PHE34      -0.0003
     36  CZ         7.8990  -26.9990  -19.1000 C.ar   34  PHE34      -0.0000
     37  N          7.8510  -29.1170  -24.8570 N.am   35  GLU35      -0.1977
     38  CA         8.4470  -30.4570  -24.9150 C.3    35  GLU35       0.1602
     39  C          7.3780  -31.5530  -25.1110 C.2    35  GLU35       0.2287
     40  O          7.4970  -32.6630  -24.5780 O.2    35  GLU35      -0.2864
     41  CB         9.2950  -30.7230  -23.6520 C.3    35  GLU35       0.0415
     42  CG        10.3540  -29.6420  -23.3320 C.3    35  GLU35       0.1163
     43  CD        11.6620  -29.8150  -24.1100 C.2    35  GLU35       0.3649
     44  OE1       11.9760  -30.9500  -24.5400 O.co2  35  GLU35      -0.2457
     45  OE2       12.3890  -28.8100  -24.2840 O.co2  35  GLU35      -0.2457
     46  N          2.3550  -29.7270  -23.6700 N.3    38  MET38      -0.1245
     47  CA         1.2780  -28.7650  -23.8070 C.3    38  MET38       0.1570
     48  C          0.4770  -28.9690  -25.0820 C.2    38  MET38       0.2261
     49  O          1.0270  -29.0750  -26.1750 O.2    38  MET38      -0.2867
     50  CB         1.8070  -27.3340  -23.7640 C.3    38  MET38       0.0387
     51  CG         0.7380  -26.2870  -24.0640 C.3    38  MET38       0.0595
     52  SD         1.3480  -24.6040  -24.0230 S.3    38  MET38      -0.1393
     53  CE         2.5270  -24.5910  -25.3650 C.3    38  MET38       0.0692
     54  N         -2.3870  -27.0560  -27.2710 N.3    40  VAL40      -0.1245
     55  CA        -3.0250  -25.7770  -27.5110 C.3    40  VAL40       0.1561
     56  C         -4.3440  -26.0080  -28.2550 C.2    40  VAL40       0.2260
     57  O         -4.3730  -26.4890  -29.3890 O.2    40  VAL40      -0.2867
     58  CB        -2.0990  -24.7730  -28.2400 C.3    40  VAL40       0.0252
     59  CG1       -2.7590  -23.3920  -28.2990 C.3    40  VAL40       0.0019
     60  CG2       -0.7260  -24.6890  -27.5390 C.3    40  VAL40       0.0019
     61  N         -8.2120  -19.2440  -26.9960 N.3    53  THR53      -0.1218
     62  CA        -7.2060  -20.2870  -26.9850 C.3    53  THR53       0.1862
     63  C         -7.0290  -20.8020  -25.5600 C.2    53  THR53       0.2287
     64  O         -6.8220  -20.0120  -24.6370 O.2    53  THR53      -0.2866
     65  CB        -5.8570  -19.7360  -27.4780 C.3    53  THR53       0.1770
     66  OG1       -5.9540  -19.4140  -28.8630 O.3    53  THR53      -0.2211
     67  CG2       -4.7470  -20.7340  -27.2920 C.3    53  THR53       0.0375
     68  N         -4.5010  -23.2090  -23.4280 N.3    55  ARG55      -0.1245
     69  CA        -3.2040  -23.9100  -23.3540 C.3    55  ARG55       0.1563
     70  C         -3.2180  -24.8690  -22.1580 C.2    55  ARG55       0.2260
     71  O         -3.4100  -24.4320  -21.0270 O.2    55  ARG55      -0.2867
     72  CB        -2.0460  -22.9010  -23.2120 C.3    55  ARG55       0.0307
     73  CG        -2.0300  -21.8140  -24.2850 C.3    55  ARG55       0.0489
     74  CD        -1.2790  -20.5430  -23.8570 C.3    55  ARG55       0.2205
     75  NE         0.1610  -20.7580  -23.7100 N.pl3  55  ARG55      -0.0865
     76  CZ         1.0170  -20.9410  -24.7170 C.cat  55  ARG55       0.5346
     77  NH1        0.6020  -20.9270  -25.9830 N.pl3  55  ARG55       0.1354
     78  NH2        2.2990  -21.1620  -24.4560 N.pl3  55  ARG55       0.1354
     79  N          0.8930  -10.6500  -26.6820 N.3    86  VAL86      -0.1245
     80  CA        -0.3350  -11.4400  -26.5140 C.3    86  VAL86       0.1561
     81  C         -0.8960  -11.3650  -25.0850 C.2    86  VAL86       0.2260
     82  O         -0.2050  -11.6850  -24.1250 O.2    86  VAL86      -0.2867
     83  CB        -0.1400  -12.9350  -26.9710 C.3    86  VAL86       0.0252
     84  CG1        0.8940  -13.6560  -26.1080 C.3    86  VAL86       0.0019
     85  CG2       -1.4570  -13.6880  -26.9610 C.3    86  VAL86       0.0019
     86  N         -5.7100  -17.5770  -23.4610 N.3   102  THR102     -0.1203
     87  CA        -5.3260  -16.3420  -24.1410 C.3   102  THR102      0.1994
     88  C         -6.3270  -16.0750  -25.2710 C.2   102  THR102      0.2619
     89  O         -7.1200  -16.9510  -25.6200 O.2   102  THR102     -0.2717
     90  CB        -3.8880  -16.4130  -24.7150 C.3   102  THR102      0.1784
     91  OG1       -3.8100  -17.4720  -25.6730 O.3   102  THR102     -0.2211
     92  CG2       -2.8670  -16.6830  -23.6130 C.3   102  THR102      0.0376
     93  N         -6.3190  -14.8580  -25.8170 N.am  103  SER103     -0.1937
     94  CA        -7.1400  -14.5560  -26.9880 C.3   103  SER103      0.2055
     95  C         -6.6760  -15.3610  -28.2190 C.2   103  SER103      0.2643
     96  O         -5.4910  -15.6690  -28.3670 O.2   103  SER103     -0.2714
     97  CB        -7.1600  -13.0570  -27.2730 C.3   103  SER103      0.2130
     98  OG        -8.3670  -12.7260  -27.9430 O.3   103  SER103     -0.2179
     99  N         -7.6290  -15.7270  -29.0690 N.am  104  PHE104     -0.1959
    100  CA        -7.3670  -16.5660  -30.2330 C.3   104  PHE104      0.1771
    101  C         -6.9670  -15.7130  -31.4290 C.2   104  PHE104      0.2619
    102  O         -7.6890  -14.7830  -31.8000 O.2   104  PHE104     -0.2715
    103  CB        -8.6060  -17.4140  -30.5540 C.3   104  PHE104      0.0574
    104  CG        -8.5290  -18.1580  -31.8660 C.ar  104  PHE104     -0.0200
    105  CD1       -7.5970  -19.1790  -32.0550 C.ar  104  PHE104     -0.0042
    106  CD2       -9.4130  -17.8500  -32.9050 C.ar  104  PHE104     -0.0042
    107  CE1       -7.5190  -19.8750  -33.2740 C.ar  104  PHE104     -0.0003
    108  CE2       -9.3580  -18.5400  -34.1310 C.ar  104  PHE104     -0.0003
    109  CZ        -8.4080  -19.5570  -34.3170 C.ar  104  PHE104     -0.0000
    110  N         -5.8090  -16.0230  -32.0150 N.am  105  MET105     -0.1977
    111  CA        -5.3070  -15.2920  -33.1870 C.3   105  MET105      0.1605
    112  C         -5.5780  -16.1200  -34.4360 C.2   105  MET105      0.2287
    113  O         -4.9040  -17.1160  -34.6840 O.2   105  MET105     -0.2864
    114  CB        -3.8150  -14.9600  -33.0440 C.3   105  MET105      0.0413
    115  CG        -3.4230  -14.4290  -31.6580 C.3   105  MET105      0.0598
    116  SD        -4.2690  -12.8990  -31.2560 S.3   105  MET105     -0.1393
    117  CE        -3.8900  -12.7250  -29.5150 C.3   105  MET105      0.0692
    118  N         -3.2440  -17.7070  -36.9070 N.3   108  GLY108     -0.1210
    119  CA        -2.2110  -18.5140  -36.2610 C.3   108  GLY108      0.1956
    120  C         -0.8810  -17.7980  -36.2150 C.2   108  GLY108      0.2612
    121  O         -0.8380  -16.5530  -36.2120 O.2   108  GLY108     -0.2717
    122  N          0.2030  -18.5770  -36.1810 N.am  109  SER109     -0.1952
    123  CA         1.5620  -18.0250  -36.1680 C.3   109  SER109      0.1924
    124  C          2.1480  -17.8330  -37.5860 C.2   109  SER109      0.2314
    125  O          1.6630  -18.4260  -38.5480 O.2   109  SER109     -0.2863
    126  CB         2.4920  -18.8840  -35.2950 C.3   109  SER109      0.2116
    127  OG         3.0710  -19.9410  -36.0420 O.3   109  SER109     -0.2180
    128  N          2.8970  -21.1890  -38.9330 N.3   112  ASP112     -0.1239
    129  CA         1.6570  -21.7810  -39.4650 C.3   112  ASP112      0.1674
    130  C          1.3840  -21.3330  -40.8920 C.2   112  ASP112      0.2266
    131  O          1.0680  -22.1580  -41.7700 O.2   112  ASP112     -0.2867
    132  CB         0.4550  -21.4130  -38.5910 C.3   112  ASP112      0.1410
    133  CG         0.5580  -21.9820  -37.1770 C.2   112  ASP112      0.3668
    134  OD1        1.1150  -23.0910  -37.0180 O.co2 112  ASP112     -0.2456
    135  OD2        0.0800  -21.3220  -36.2230 O.co2 112  ASP112     -0.2456
    136  N         11.0560  -16.2160  -32.6410 N.3   152  LYS152     -0.1245
    137  CA        11.0220  -17.1070  -33.8010 C.3   152  LYS152      0.1561
    138  C          9.6230  -16.9800  -34.4180 C.2   152  LYS152      0.2260
    139  O          8.7200  -16.4070  -33.7910 O.2   152  LYS152     -0.2867
    140  CB        11.3100  -18.5620  -33.3890 C.3   152  LYS152      0.0271
    141  CG        10.4680  -19.0830  -32.2000 C.3   152  LYS152      0.0035
    142  CD        10.9300  -20.4570  -31.7080 C.3   152  LYS152      0.0206
    143  CE        10.7930  -21.5210  -32.8010 C.3   152  LYS152      0.1093
    144  NZ        10.8030  -22.9150  -32.2720 N.3   152  LYS152     -0.1314
    145  N          7.2030  -19.0620  -34.9600 N.3   154  SER154     -0.1202
    146  CA         6.1220  -19.7330  -34.2360 C.3   154  SER154      0.2020
    147  C          5.7190  -18.9990  -32.9580 C.2   154  SER154      0.2618
    148  O          4.7060  -19.3340  -32.3330 O.2   154  SER154     -0.2717
    149  CB         6.4670  -21.2000  -33.9530 C.3   154  SER154      0.2103
    150  OG         7.4700  -21.3260  -32.9570 O.3   154  SER154     -0.2182
    151  N          6.5000  -17.9830  -32.5920 N.am  155  HIS155     -0.1975
    152  CA         6.1740  -17.1040  -31.4700 C.3   155  HIS155      0.1656
    153  C          5.7110  -15.7220  -31.9240 C.2   155  HIS155      0.2291
    154  O          5.8640  -14.7380  -31.1920 O.2   155  HIS155     -0.2864
    155  CB         7.3540  -16.9810  -30.4900 C.3   155  HIS155      0.0771
    156  CG         7.5320  -18.1800  -29.6130 C.ar  155  HIS155      0.0820
    157  ND1        8.7170  -18.4590  -28.9670 N.ar  155  HIS155     -0.2267
    158  CD2        6.6960  -19.2080  -29.3290 C.ar  155  HIS155      0.1154
    159  CE1        8.5920  -19.5900  -28.2940 C.ar  155  HIS155      0.1986
    160  NE2        7.3780  -20.0660  -28.5000 N.ar  155  HIS155     -0.2212
    161  N          2.1490  -14.1820  -33.6280 N.3   157  LEU157     -0.1245
    162  CA         0.7590  -14.5280  -33.9130 C.3   157  LEU157      0.1561
    163  C          0.0500  -13.3670  -34.5990 C.2   157  LEU157      0.2260
    164  O          0.3250  -12.2040  -34.3150 O.2   157  LEU157     -0.2867
    165  CB         0.0290  -14.9190  -32.6220 C.3   157  LEU157      0.0270
    166  CG         0.6630  -16.0340  -31.7760 C.3   157  LEU157      0.0019
    167  CD1       -0.0140  -16.0960  -30.4050 C.3   157  LEU157      0.0001
    168  CD2        0.5800  -17.3830  -32.4780 C.3   157  LEU157      0.0001
    169  N          4.5050  -13.7840  -28.8420 N.3   167  SER167     -0.1202
    170  CA         4.1800  -14.7370  -27.7820 C.3   167  SER167      0.2020
    171  C          5.4690  -15.2830  -27.1660 C.2   167  SER167      0.2619
    172  O          6.5090  -14.6220  -27.2120 O.2   167  SER167     -0.2717
    173  CB         3.2770  -15.8640  -28.3150 C.3   167  SER167      0.2103
    174  OG         3.9000  -16.5530  -29.3930 O.3   167  SER167     -0.2182
    175  N          5.4080  -16.4740  -26.5750 N.am  168  GLY168     -0.1956
    176  CA         6.6290  -17.1530  -26.1120 C.3   168  GLY168      0.1869
    177  C          7.2560  -16.5910  -24.8460 C.2   168  GLY168      0.2309
    178  O          8.4790  -16.6900  -24.6440 O.2   168  GLY168     -0.2863
    179  N          7.1900  -17.6340  -21.8490 N.3   170  ARG170     -0.1245
    180  CA         7.7470  -18.6640  -20.9550 C.3   170  ARG170      0.1563
    181  C          9.2750  -18.6100  -20.7980 C.2   170  ARG170      0.2260
    182  O          9.8060  -18.9100  -19.7220 O.2   170  ARG170     -0.2867
    183  CB         7.3460  -20.0540  -21.4540 C.3   170  ARG170      0.0307
    184  CG         7.5320  -21.1500  -20.4360 C.3   170  ARG170      0.0489
    185  CD         7.6640  -22.4950  -21.1120 C.3   170  ARG170      0.2205
    186  NE         6.4540  -22.8470  -21.8220 N.pl3 170  ARG170     -0.0865
    187  CZ         6.4120  -23.2470  -23.0860 C.cat 170  ARG170      0.5346
    188  NH1        7.5250  -23.3880  -23.7970 N.pl3 170  ARG170      0.1354
    189  NH2        5.2390  -23.5290  -23.6280 N.pl3 170  ARG170      0.1354
    190  N         15.5730  -26.9000  -29.4340 N.3   194  LYS194     -0.1231
    191  CA        14.7390  -26.6030  -30.6130 C.3   194  LYS194      0.1693
    192  C         14.8000  -25.1190  -30.9430 C.2   194  LYS194      0.2591
    193  O         14.7400  -24.7460  -32.1160 O.2   194  LYS194     -0.2718
    194  CB        13.2770  -27.0640  -30.4690 C.3   194  LYS194      0.0285
    195  CG        12.9860  -28.3930  -31.1660 C.3   194  LYS194      0.0035
    196  CD        11.6120  -28.9410  -30.8070 C.3   194  LYS194      0.0206
    197  CE        11.4180  -30.3380  -31.3920 C.3   194  LYS194      0.1093
    198  NZ        10.0200  -30.8320  -31.2590 N.3   194  LYS194     -0.1314
    199  N         14.9290  -24.2850  -29.9080 N.am  195  VAL195     -0.1980
    200  CA        15.0770  -22.8360  -30.0820 C.3   195  VAL195      0.1595
    201  C         16.5330  -22.4790  -30.3890 C.2   195  VAL195      0.2287
    202  O         16.8360  -21.3320  -30.7310 O.2   195  VAL195     -0.2864
    203  CB        14.5860  -22.0240  -28.8380 C.3   195  VAL195      0.0276
    204  CG1       14.4420  -20.5410  -29.1770 C.3   195  VAL195      0.0022
    205  CG2       13.2620  -22.5640  -28.3170 C.3   195  VAL195      0.0022
@<TRIPOS>BOND
     1   131   130    2
     2   130   129    1
     3   129   128    1
     4   129   132    1
     5   132   133    1
     6   125   124    2
     7   124   123    1
     8   133   134   ar
     9   133   135   ar
    10   118   119    1
    11   119   120    1
    12   120   121    2
    13   120   122   am
    14   122   123    1
    15   123   126    1
    16   127   126    1
    17   145   146    1
    18   113   112    2
    19   163   164    2
    20   163   162    1
    21   112   111    1
    22   138   137    1
    23   138   139    2
    24   109   108   ar
    25   109   107   ar
    26   146   149    1
    27   146   147    1
    28   108   106   ar
    29   149   150    1
    30   162   161    1
    31   162   165    1
    32     4     3    2
    33   137   140    1
    34   137   136    1
    35   140   141    1
    36   107   105   ar
    37     7     5    1
    38   111   114    1
    39   111   110    1
    40   114   115    1
    41     2     3    1
    42     2     5    1
    43     2     1    1
    44   147   151   am
    45   147   148    2
    46     3     9   am
    47   106   104   ar
    48     5     6    1
    49   143   144    1
    50   143   142    1
    51   165   166    1
    52   151   152    1
    53   168   166    1
    54   141   142    1
    55   193   192    2
    56   105   104   ar
    57   110   101   am
    58   153   152    1
    59   153   154    2
    60     9    10    1
    61   104   103    1
    62   102   101    2
    63   166   167    1
    64    10    11    1
    65   115   116    1
    66   152   155    1
    67     6     8    1
    68   101   100    1
    69   197   198    1
    70   197   196    1
    71   116   117    1
    72   195   196    1
    73   195   194    1
    74   192   191    1
    75   192   199   am
    76   202   201    2
    77   191   194    1
    78   191   190    1
    79    11    13   am
    80    11    12    2
    81   103   100    1
    82   155   156    1
    83    13    14    1
    84   201   200    1
    85   100    99    1
    86    17    14    1
    87    17    18    1
    88   200   199    1
    89   200   203    1
    90    16    15    2
    91   156   158   ar
    92   156   157   ar
    93    14    15    1
    94    19    18    1
    95    19    20    1
    96   174   173    1
    97    57    56    2
    98   158   160   ar
    99   204   203    1
   100    99    95   am
   101    15    22    1
   102   157   159   ar
   103    66    65    1
   104   169   170    1
   105   203   205    1
   106    20    21    1
   107   160   159   ar
   108    96    95    2
   109   173   170    1
   110    59    58    1
   111    56    55    1
   112    58    60    1
   113    58    55    1
   114    95    94    1
   115    98    97    1
   116   170   171    1
   117    22    23    2
   118    55    54    1
   119    65    67    1
   120    65    62    1
   121    23    24    1
   122    97    94    1
   123   172   171    2
   124   171   175   am
   125    61    62    1
   126    94    93    1
   127    62    63    1
   128    83    85    1
   129    83    80    1
   130    83    84    1
   131    79    80    1
   132   175   176    1
   133    80    81    1
   134    49    48    2
   135   176   177    1
   136    77    76    1
   137    24    25    2
   138    24    26   am
   139    93    88   am
   140    91    90    1
   141    89    88    2
   142    63    64    2
   143    53    52    1
   144    26    27    1
   145    88    87    1
   146    39    38    1
   147    39    40    2
   148    81    82    2
   149    48    47    1
   150    38    37    1
   151    38    41    1
   152    37    28   am
   153   177   178    2
   154    76    78    1
   155    76    75    2
   156    90    87    1
   157    90    92    1
   158    44    43   ar
   159    73    74    1
   160    73    72    1
   161    45    43   ar
   162    87    86    1
   163    43    42    1
   164    51    52    1
   165    51    50    1
   166    27    28    1
   167    27    30    1
   168    28    29    2
   169    74    75    1
   170    47    50    1
   171    47    46    1
   172   188   187    1
   173    41    42    1
   174   189   187    1
   175    68    69    1
   176    69    72    1
   177    69    70    1
   178   187   186    2
   179    30    31    1
   180    70    71    2
   181   179   180    1
   182   186   185    1
   183    31    32   ar
   184    31    33   ar
   185   183   180    1
   186   183   184    1
   187    32    34   ar
   188   185   184    1
   189   180   181    1
   190   181   182    2
   191    33    35   ar
   192    34    36   ar
   193    35    36   ar
