@<TRIPOS>MOLECULE
tmp/3gnoA00.pdb
 133 135 0 0 0
SMALL
GASTEIGER

@<TRIPOS>ATOM
      1  N         12.8520   -6.8810   23.7290 N.3    21  GLN21      -0.1245
      2  CA        13.0300   -7.3940   22.3690 C.3    21  GLN21       0.1566
      3  C         14.4440   -7.2670   21.8270 C.2    21  GLN21       0.2260
      4  O         14.7860   -7.9550   20.8500 O.2    21  GLN21      -0.2867
      5  CB        12.0790   -6.7060   21.4120 C.3    21  GLN21       0.0367
      6  CG        10.6190   -6.7280   21.8820 C.3    21  GLN21       0.0905
      7  CD         9.7290   -6.0540   20.8670 C.2    21  GLN21       0.2608
      8  OE1        9.2600   -4.9390   21.0910 O.2    21  GLN21      -0.2717
      9  NE2        9.4850   -6.7350   19.7430 N.am   21  GLN21      -0.0878
     10  N          7.5530   -0.8910   28.7520 N.3   122  HIS122     -0.1226
     11  CA         7.2920   -1.5650   27.4740 C.3   122  HIS122      0.1752
     12  C          7.1440   -3.0570   27.7860 C.2   122  HIS122      0.2596
     13  O          7.8350   -3.9210   27.2320 O.2   122  HIS122     -0.2718
     14  CB         8.3690   -1.2560   26.4480 C.3   122  HIS122      0.0759
     15  CG         7.9250   -1.4030   25.0230 C.ar  122  HIS122      0.0818
     16  ND1        7.3770   -2.5660   24.5240 N.ar  122  HIS122     -0.2268
     17  CD2        8.0170   -0.5530   23.9770 C.ar  122  HIS122      0.1154
     18  CE1        7.1450   -2.4210   23.2280 C.ar  122  HIS122      0.1986
     19  NE2        7.5130   -1.2030   22.8770 N.ar  122  HIS122     -0.2212
     20  N          6.2550   -3.3190   28.7410 N.am  123  TRP123     -0.1976
     21  CA         5.5950   -4.6240   28.9660 C.3   123  TRP123      0.1640
     22  C          6.3510   -5.5720   29.9100 C.2   123  TRP123      0.2290
     23  O          5.8540   -6.6430   30.2420 O.2   123  TRP123     -0.2864
     24  CB         5.3220   -5.3710   27.6670 C.3   123  TRP123      0.0576
     25  CG         4.5090   -4.6680   26.6580 C.ar  123  TRP123      0.0006
     26  CD1        3.9230   -3.4410   26.7490 C.ar  123  TRP123      0.0946
     27  CD2        4.1080   -5.2080   25.4060 C.ar  123  TRP123      0.0152
     28  NE1        3.2430   -3.1540   25.5950 N.ar  123  TRP123     -0.2442
     29  CE2        3.3340   -4.2310   24.7570 C.ar  123  TRP123      0.0810
     30  CE3        4.3490   -6.4210   24.7590 C.ar  123  TRP123      0.0012
     31  CZ2        2.7700   -4.4450   23.5010 C.ar  123  TRP123      0.0191
     32  CZ3        3.8220   -6.6180   23.5040 C.ar  123  TRP123      0.0001
     33  CH2        3.0290   -5.6450   22.8940 C.ar  123  TRP123      0.0015
     34  N          3.6700    1.7990   26.9570 N.3   167  ASN167     -0.1225
     35  CA         3.5230    1.3830   25.5650 C.3   167  ASN167      0.1785
     36  C          2.2900    0.5020   25.4030 C.2   167  ASN167      0.2597
     37  O          2.1950   -0.5770   26.0280 O.2   167  ASN167     -0.2718
     38  CB         4.7590    0.6210   25.0890 C.3   167  ASN167      0.1169
     39  CG         4.6410    0.2030   23.6230 C.2   167  ASN167      0.2627
     40  OD1        4.4050   -0.9780   23.2870 O.2   167  ASN167     -0.2716
     41  ND2        4.7390    1.1570   22.7670 N.am  167  ASN167     -0.0877
     42  N          1.3460    0.9680   24.5760 N.am  168  GLU168     -0.1979
     43  CA         0.1800    0.1460   24.1650 C.3   168  GLU168      0.1602
     44  C         -0.5690   -0.4910   25.3230 C.2   168  GLU168      0.2287
     45  O         -0.7020   -1.7360   25.3660 O.2   168  GLU168     -0.2864
     46  CB         0.6060   -0.9480   23.1460 C.3   168  GLU168      0.0415
     47  CG         1.3520   -0.3920   21.9120 C.3   168  GLU168      0.1163
     48  CD         1.3420   -1.3230   20.7270 C.2   168  GLU168      0.3649
     49  OE1        0.9390   -2.5180   20.8820 O.co2 168  GLU168     -0.2457
     50  OE2        1.7210   -0.8530   19.6060 O.co2 168  GLU168     -0.2457
     51  N         -0.2450    0.9720   12.4100 N.3   311  TYR311     -0.1241
     52  CA         0.2380    0.0550   11.3880 C.3   311  TYR311      0.1605
     53  C         -0.7670   -0.2070   10.2880 C.2   311  TYR311      0.2264
     54  O         -0.3790   -0.3310    9.1340 O.2   311  TYR311     -0.2867
     55  CB         0.6190   -1.2830   12.0120 C.3   311  TYR311      0.0534
     56  CG         1.8090   -1.2050   12.9400 C.ar  311  TYR311     -0.0201
     57  CD1        1.6560   -0.8720   14.2840 C.ar  311  TYR311     -0.0009
     58  CD2        3.1000   -1.4680   12.4640 C.ar  311  TYR311     -0.0009
     59  CE1        2.7640   -0.7940   15.1320 C.ar  311  TYR311      0.0417
     60  CE2        4.1970   -1.3790   13.2920 C.ar  311  TYR311      0.0417
     61  CZ         4.0240   -1.0580   14.6230 C.ar  311  TYR311      0.1957
     62  OH         5.1310   -1.0050   15.4500 O.3   311  TYR311     -0.2866
     63  N         -1.8020  -10.0320   11.0040 N.3   356  TRP356     -0.1241
     64  CA        -2.7120   -8.9420   11.3380 C.3   356  TRP356      0.1605
     65  C         -2.4360   -7.6550   10.5730 C.2   356  TRP356      0.2264
     66  O         -3.2670   -6.7350   10.6070 O.2   356  TRP356     -0.2867
     67  CB        -2.6750   -8.6590   12.8650 C.3   356  TRP356      0.0550
     68  CG        -1.3070   -8.3810   13.3600 C.ar  356  TRP356      0.0003
     69  CD1       -0.4060   -9.2890   13.8540 C.ar  356  TRP356      0.0946
     70  CD2       -0.6520   -7.1050   13.3860 C.ar  356  TRP356      0.0152
     71  NE1        0.7650   -8.6510   14.1850 N.ar  356  TRP356     -0.2442
     72  CE2        0.6420   -7.3140   13.9160 C.ar  356  TRP356      0.0810
     73  CE3       -1.0400   -5.8070   13.0360 C.ar  356  TRP356      0.0012
     74  CZ2        1.5650   -6.2690   14.0920 C.ar  356  TRP356      0.0191
     75  CZ3       -0.1140   -4.7660   13.2050 C.ar  356  TRP356      0.0001
     76  CH2        1.1650   -5.0070   13.7260 C.ar  356  TRP356      0.0015
     77  N          5.4410    4.6230   16.5270 N.3   384  GLU384     -0.1245
     78  CA         5.8230    3.4240   15.7740 C.3   384  GLU384      0.1567
     79  C          5.0290    3.3740   14.4710 C.2   384  GLU384      0.2260
     80  O          3.8400    3.6200   14.4660 O.2   384  GLU384     -0.2867
     81  CB         5.4830    2.1260   16.5240 C.3   384  GLU384      0.0388
     82  CG         6.3440    1.7900   17.7200 C.3   384  GLU384      0.1160
     83  CD         5.8310    0.5730   18.5030 C.2   384  GLU384      0.3649
     84  OE1        5.1620   -0.3160   17.9000 O.co2 384  GLU384     -0.2457
     85  OE2        6.1030    0.5020   19.7300 O.co2 384  GLU384     -0.2457
     86  N          9.3130    1.4590   13.2760 N.3   434  TRP434     -0.1241
     87  CA         9.5190    0.1310   13.8570 C.3   434  TRP434      0.1605
     88  C         10.0510   -0.7700   12.7450 C.2   434  TRP434      0.2264
     89  O          9.3320   -1.0100   11.7900 O.2   434  TRP434     -0.2867
     90  CB         8.2200   -0.4750   14.4630 C.3   434  TRP434      0.0550
     91  CG         8.5720   -1.6780   15.2240 C.ar  434  TRP434      0.0003
     92  CD1        8.5500   -2.9670   14.7850 C.ar  434  TRP434      0.0946
     93  CD2        9.0970   -1.7130   16.5620 C.ar  434  TRP434      0.0152
     94  NE1        9.0120   -3.8140   15.7670 N.ar  434  TRP434     -0.2442
     95  CE2        9.3700   -3.0680   16.8650 C.ar  434  TRP434      0.0810
     96  CE3        9.3550   -0.7290   17.5320 C.ar  434  TRP434      0.0012
     97  CZ2        9.8960   -3.4720   18.1070 C.ar  434  TRP434      0.0191
     98  CZ3        9.8650   -1.1320   18.7800 C.ar  434  TRP434      0.0001
     99  CH2       10.1510   -2.4930   19.0370 C.ar  434  TRP434      0.0015
    100  N         10.1400  -10.5700   18.3370 N.3   441  GLU441     -0.1231
    101  CA         8.8030   -9.9840   18.2950 C.3   441  GLU441      0.1699
    102  C          7.8030  -10.7530   19.1740 C.2   441  GLU441      0.2592
    103  O          6.8110  -11.3330   18.7120 O.2   441  GLU441     -0.2718
    104  CB         8.3420   -9.7890   16.8380 C.3   441  GLU441      0.0402
    105  CG         9.2810   -8.8570   16.0200 C.3   441  GLU441      0.1161
    106  CD         9.1640   -7.3530   16.3740 C.2   441  GLU441      0.3649
    107  OE1        8.2670   -6.9480   17.1450 O.co2 441  GLU441     -0.2457
    108  OE2        9.9550   -6.5640   15.8480 O.co2 441  GLU441     -0.2457
    109  N          8.0840  -10.7420   20.4680 N.am  442  TRP442     -0.1976
    110  CA         7.1640  -11.2780   21.4700 C.3   442  TRP442      0.1640
    111  C          6.7680  -12.6920   21.0930 C.2   442  TRP442      0.2290
    112  O          7.6650  -13.4830   20.7770 O.2   442  TRP442     -0.2864
    113  CB         5.9690  -10.3210   21.6750 C.3   442  TRP442      0.0576
    114  CG         6.4220   -8.8890   21.9980 C.ar  442  TRP442      0.0006
    115  CD1        6.3180   -7.7980   21.1960 C.ar  442  TRP442      0.0946
    116  CD2        7.0310   -8.4380   23.2230 C.ar  442  TRP442      0.0152
    117  NE1        6.8380   -6.6800   21.8360 N.ar  442  TRP442     -0.2442
    118  CE2        7.2800   -7.0510   23.0850 C.ar  442  TRP442      0.0810
    119  CE3        7.4130   -9.0750   24.4130 C.ar  442  TRP442      0.0012
    120  CZ2        7.8680   -6.2980   24.0950 C.ar  442  TRP442      0.0191
    121  CZ3        8.0020   -8.3140   25.4280 C.ar  442  TRP442      0.0001
    122  CH2        8.2170   -6.9340   25.2630 C.ar  442  TRP442      0.0015
    123  N         11.2620   -6.9820   11.3650 N.3   450  PHE450     -0.1241
    124  CA        10.7430   -5.5950   11.2000 C.3   450  PHE450      0.1605
    125  C         11.8410   -4.5620   10.9650 C.2   450  PHE450      0.2264
    126  O         11.5640   -3.3630   10.8340 O.2   450  PHE450     -0.2867
    127  CB        10.0140   -5.1710   12.4820 C.3   450  PHE450      0.0534
    128  CG         8.5360   -5.4820   12.4960 C.ar  450  PHE450     -0.0203
    129  CD1        8.0570   -6.6390   13.1510 C.ar  450  PHE450     -0.0042
    130  CD2        7.6280   -4.6160   11.8880 C.ar  450  PHE450     -0.0042
    131  CE1        6.6900   -6.9250   13.1660 C.ar  450  PHE450     -0.0003
    132  CE2        6.2560   -4.8730   11.9240 C.ar  450  PHE450     -0.0003
    133  CZ         5.7830   -6.0090   12.5720 C.ar  450  PHE450     -0.0000
@<TRIPOS>BOND
     1    54    53    2
     2    53    52    1
     3    65    66    2
     4    65    64    1
     5   126   125    2
     6   125   124    1
     7    63    64    1
     8   124   123    1
     9   124   127    1
    10    64    67    1
    11    52    55    1
    12    52    51    1
    13    89    88    2
    14   130   132   ar
    15   130   128   ar
    16   132   133   ar
    17    55    56    1
    18    58    56   ar
    19    58    60   ar
    20   127   128    1
    21   128   129   ar
    22   133   131   ar
    23    88    87    1
    24    67    68    1
    25    56    57   ar
    26    73    75   ar
    27    73    70   ar
    28   129   131   ar
    29    75    76   ar
    30    86    87    1
    31    60    61   ar
    32    68    70   ar
    33    68    69   ar
    34    70    72   ar
    35    76    74   ar
    36    69    71   ar
    37    87    90    1
    38    72    74   ar
    39    72    71   ar
    40    57    59   ar
    41    90    91    1
    42    80    79    2
    43    79    78    1
    44    61    59   ar
    45    61    62    1
    46    92    91   ar
    47    92    94   ar
    48    91    93   ar
    49    94    95   ar
    50    78    81    1
    51    78    77    1
    52   108   106   ar
    53   105   106    1
    54   105   104    1
    55   106   107   ar
    56    81    82    1
    57    93    95   ar
    58    93    96   ar
    59   104   101    1
    60    95    97   ar
    61    96    98   ar
    62    82    83    1
    63    84    83   ar
    64    97    99   ar
    65   101   100    1
    66   101   102    1
    67    83    85   ar
    68   103   102    2
    69    98    99   ar
    70   102   109   am
    71    50    48   ar
    72     9     7   am
    73   109   110    1
    74    48    49   ar
    75    48    47    1
    76   112   111    2
    77     4     3    2
    78     7     8    2
    79     7     6    1
    80   111   110    1
    81   115   117   ar
    82   115   114   ar
    83     5     6    1
    84     5     2    1
    85   110   113    1
    86   113   114    1
    87     3     2    1
    88   117   118   ar
    89    47    46    1
    90   114   116   ar
    91     2     1    1
    92    41    39   am
    93    19    18   ar
    94    19    17   ar
    95    33    31   ar
    96    33    32   ar
    97   118   116   ar
    98   118   120   ar
    99    46    43    1
   100   116   119   ar
   101    18    16   ar
   102    40    39    2
   103    31    29   ar
   104    32    30   ar
   105    39    38    1
   106    17    15   ar
   107   120   122   ar
   108    43    42    1
   109    43    44    1
   110   119   121   ar
   111    16    15   ar
   112    42    36   am
   113    29    27   ar
   114    29    28   ar
   115    30    27   ar
   116    15    14    1
   117    38    35    1
   118   122   121   ar
   119    44    45    2
   120    36    35    1
   121    36    37    2
   122    27    25   ar
   123    35    34    1
   124    28    26   ar
   125    14    11    1
   126    25    26   ar
   127    25    24    1
   128    13    12    2
   129    11    12    1
   130    11    10    1
   131    24    21    1
   132    12    20   am
   133    20    21    1
   134    21    22    1
   135    22    23    2
