@<TRIPOS>MOLECULE
tmp/3gnpA00.pdb
 215 212 0 0 0
SMALL
GASTEIGER

@<TRIPOS>ATOM
      1  N         -7.4170    8.8630   38.3390 N.3    21  GLN21      -0.1245
      2  CA        -8.7480    9.2490   37.8810 C.3    21  GLN21       0.1566
      3  C         -9.8860    9.0950   38.9120 C.2    21  GLN21       0.2260
      4  O        -10.9550    9.7240   38.7590 O.2    21  GLN21      -0.2867
      5  CB        -9.1160    8.4740   36.6170 C.3    21  GLN21       0.0367
      6  CG        -8.1100    8.6580   35.4970 C.3    21  GLN21       0.0905
      7  CD        -8.5360    7.8980   34.2810 C.2    21  GLN21       0.2608
      8  OE1       -8.1350    6.7590   34.0960 O.2    21  GLN21      -0.2717
      9  NE2       -9.3790    8.5090   33.4550 N.am   21  GLN21      -0.0878
     10  N         -0.4450    2.8830   36.0420 N.3   122  HIS122     -0.1226
     11  CA        -1.4460    3.5890   35.2400 C.3   122  HIS122      0.1752
     12  C         -1.1410    5.1030   35.2510 C.2   122  HIS122      0.2596
     13  O         -1.9810    5.9300   35.5970 O.2   122  HIS122     -0.2718
     14  CB        -2.8610    3.2860   35.7370 C.3   122  HIS122      0.0759
     15  CG        -3.9320    3.3930   34.6800 C.ar  122  HIS122      0.0818
     16  ND1       -4.1600    4.5420   33.9530 N.ar  122  HIS122     -0.2268
     17  CD2       -4.8860    2.5140   34.2990 C.ar  122  HIS122      0.1154
     18  CE1       -5.1970    4.3580   33.1450 C.ar  122  HIS122      0.1986
     19  NE2       -5.6490    3.1310   33.3360 N.ar  122  HIS122     -0.2212
     20  N          0.0930    5.4150   34.8540 N.am  123  TRP123     -0.1976
     21  CA         0.5440    6.7230   34.3820 C.3   123  TRP123      0.1640
     22  C          1.0390    7.7000   35.4320 C.2   123  TRP123      0.2290
     23  O          1.5410    8.7500   35.0750 O.2   123  TRP123     -0.2864
     24  CB        -0.5070    7.4180   33.5470 C.3   123  TRP123      0.0576
     25  CG        -0.9990    6.6460   32.3570 C.ar  123  TRP123      0.0006
     26  CD1       -0.6000    5.4230   31.9340 C.ar  123  TRP123      0.0946
     27  CD2       -1.9830    7.1000   31.4380 C.ar  123  TRP123      0.0152
     28  NE1       -1.2730    5.0830   30.7930 N.ar  123  TRP123     -0.2442
     29  CE2       -2.1160    6.1080   30.4530 C.ar  123  TRP123      0.0810
     30  CE3       -2.7400    8.2900   31.3270 C.ar  123  TRP123      0.0012
     31  CZ2       -3.0030    6.2300   29.3890 C.ar  123  TRP123      0.0191
     32  CZ3       -3.6190    8.4190   30.2620 C.ar  123  TRP123      0.0001
     33  CH2       -3.7510    7.3960   29.3050 C.ar  123  TRP123      0.0015
     34  N         -0.2460    0.0150   31.8850 N.3   167  ASN167     -0.1225
     35  CA        -1.3990    0.4380   31.1080 C.3   167  ASN167      0.1785
     36  C         -0.9860    1.3450   29.9350 C.2   167  ASN167      0.2597
     37  O         -0.4360    2.4300   30.1330 O.2   167  ASN167     -0.2718
     38  CB        -2.3910    1.2030   31.9900 C.3   167  ASN167      0.1169
     39  CG        -3.6370    1.5700   31.2410 C.2   167  ASN167      0.2627
     40  OD1       -3.8540    2.7360   30.8270 O.2   167  ASN167     -0.2716
     41  ND2       -4.4290    0.5790   30.9940 N.am  167  ASN167     -0.0877
     42  N         -1.2760    0.8860   28.7210 N.am  168  GLU168     -0.1979
     43  CA        -1.1220    1.6590   27.4750 C.3   168  GLU168      0.1602
     44  C          0.2110    2.3810   27.2890 C.2   168  GLU168      0.2287
     45  O          0.2500    3.6310   27.2000 O.2   168  GLU168     -0.2864
     46  CB        -2.2790    2.6580   27.3090 C.3   168  GLU168      0.0415
     47  CG        -3.6790    2.0060   27.3850 C.3   168  GLU168      0.1163
     48  CD        -4.7840    2.9370   26.9400 C.2   168  GLU168      0.3649
     49  OE1       -4.4980    4.1500   26.6930 O.co2 168  GLU168     -0.2457
     50  OE2       -5.9640    2.4710   26.8060 O.co2 168  GLU168     -0.2457
     51  N          1.8960    2.5880   24.6470 N.3   170  HIS170     -0.1226
     52  CA         1.8250    3.3120   23.3980 C.3   170  HIS170      0.1752
     53  C          1.2190    4.7000   23.6100 C.2   170  HIS170      0.2596
     54  O          1.7630    5.7030   23.0970 O.2   170  HIS170     -0.2718
     55  CB         1.0840    2.4840   22.3330 C.3   170  HIS170      0.0759
     56  CG         0.6010    3.2770   21.1650 C.ar  170  HIS170      0.0818
     57  ND1        1.3240    3.4080   19.9970 N.ar  170  HIS170     -0.2268
     58  CD2       -0.5660    3.9360   20.9640 C.ar  170  HIS170      0.1154
     59  CE1        0.6290    4.1310   19.1370 C.ar  170  HIS170      0.1986
     60  NE2       -0.5160    4.4720   19.7030 N.ar  170  HIS170     -0.2212
     61  N          0.1160    4.7710   24.3510 N.am  171  THR171     -0.1953
     62  CA        -0.4950    6.0770   24.6570 C.3   171  THR171      0.1897
     63  C          0.4820    7.0050   25.3590 C.2   171  THR171      0.2313
     64  O          0.6470    8.1700   24.9540 O.2   171  THR171     -0.2863
     65  CB        -1.8090    5.9410   25.4720 C.3   171  THR171      0.1794
     66  OG1       -2.7320    5.1230   24.7260 O.3   171  THR171     -0.2208
     67  CG2       -2.4280    7.3230   25.7550 C.3   171  THR171      0.0378
     68  N          1.4140   10.2580   23.4980 N.3   175  GLN175     -0.1245
     69  CA         0.7820   11.4330   24.0970 C.3   175  GLN175      0.1566
     70  C          1.7040   12.2060   25.0330 C.2   175  GLN175      0.2260
     71  O          1.6050   13.4370   25.1310 O.2   175  GLN175     -0.2867
     72  CB        -0.5560   11.0830   24.7780 C.3   175  GLN175      0.0367
     73  CG        -1.5850   10.4960   23.8280 C.3   175  GLN175      0.0905
     74  CD        -1.8410   11.3820   22.6240 C.2   175  GLN175      0.2608
     75  OE1       -2.1620   12.5750   22.7620 O.2   175  GLN175     -0.2717
     76  NE2       -1.6840   10.8170   21.4340 N.am  175  GLN175     -0.0878
     77  N         -0.2290   14.7900   27.2990 N.3   182  GLN182     -0.1245
     78  CA        -0.3540   14.0690   28.5570 C.3   182  GLN182      0.1566
     79  C          0.9770   14.1510   29.3080 C.2   182  GLN182      0.2260
     80  O          2.0330   14.4290   28.7040 O.2   182  GLN182     -0.2867
     81  CB        -0.7640   12.6070   28.3000 C.3   182  GLN182      0.0367
     82  CG        -2.2280   12.5210   27.9150 C.3   182  GLN182      0.0905
     83  CD        -2.7170   11.1110   27.6510 C.2   182  GLN182      0.2608
     84  OE1       -1.9210   10.1560   27.5640 O.2   182  GLN182     -0.2717
     85  NE2       -4.0630   10.9630   27.5600 N.am  182  GLN182     -0.0878
     86  N         -3.3650   -0.2370   24.3780 N.3   239  ASP239     -0.1225
     87  CA        -4.3660    0.5170   23.6420 C.3   239  ASP239      0.1805
     88  C         -4.2920    0.1240   22.1480 C.2   239  ASP239      0.2598
     89  O         -3.2190    0.1530   21.5490 O.2   239  ASP239     -0.2718
     90  CB        -4.1610    2.0400   23.7990 C.3   239  ASP239      0.1424
     91  CG        -2.7560    2.5030   23.3580 C.2   239  ASP239      0.3668
     92  OD1       -1.7860    2.1570   24.0580 O.co2 239  ASP239     -0.2456
     93  OD2       -2.6340    3.2430   22.3400 O.co2 239  ASP239     -0.2456
     94  N         -5.4180   -0.2840   21.5750 N.am  240  VAL240     -0.1966
     95  CA        -5.4100   -0.7840   20.2120 C.3   240  VAL240      0.1727
     96  C         -6.6620   -0.3540   19.4840 C.2   240  VAL240      0.2616
     97  O         -7.7470   -0.8660   19.7550 O.2   240  VAL240     -0.2715
     98  CB        -5.2850   -2.3190   20.1200 C.3   240  VAL240      0.0290
     99  CG1       -5.1350   -2.7310   18.6450 C.3   240  VAL240      0.0023
    100  CG2       -4.0590   -2.8420   20.9320 C.3   240  VAL240      0.0023
    101  N         -6.5010    0.5720   18.5480 N.am  241  MET241     -0.1977
    102  CA        -7.5650    0.8780   17.5860 C.3   241  MET241      0.1605
    103  C         -7.4670   -0.1760   16.5110 C.2   241  MET241      0.2287
    104  O         -6.3690   -0.5950   16.1480 O.2   241  MET241     -0.2864
    105  CB        -7.3220    2.2410   16.9270 C.3   241  MET241      0.0413
    106  CG        -7.6720    3.3950   17.7890 C.3   241  MET241      0.0598
    107  SD        -7.6000    4.9150   16.8230 S.3   241  MET241     -0.1393
    108  CE        -7.8300    6.1040   18.1550 C.3   241  MET241      0.0692
    109  N          1.4560    0.3740   16.1390 N.3   263  GLN263     -0.1245
    110  CA         0.6290    0.6380   17.3330 C.3   263  GLN263      0.1566
    111  C          0.7160   -0.5140   18.3250 C.2   263  GLN263      0.2260
    112  O          1.1460   -0.3390   19.4490 O.2   263  GLN263     -0.2867
    113  CB        -0.8320    0.8780   16.9400 C.3   263  GLN263      0.0367
    114  CG        -1.7460    1.1210   18.1440 C.3   263  GLN263      0.0905
    115  CD        -3.2140    0.9730   17.7770 C.2   263  GLN263      0.2608
    116  OE1       -3.6090    0.0190   17.0960 O.2   263  GLN263     -0.2717
    117  NE2       -4.0340    1.8960   18.2550 N.am  263  GLN263     -0.0878
    118  N         -7.1100   -2.8630   25.4170 N.3   309  ASN309     -0.1240
    119  CA        -8.0170   -1.7820   25.6400 C.3   309  ASN309      0.1653
    120  C         -8.4780   -1.3560   24.2620 C.2   309  ASN309      0.2266
    121  O         -7.6910   -0.8140   23.5040 O.2   309  ASN309     -0.2867
    122  CB        -7.3160   -0.6060   26.3170 C.3   309  ASN309      0.1155
    123  CG        -6.8950   -0.9160   27.7370 C.2   309  ASN309      0.2627
    124  OD1       -7.1470   -2.0050   28.2520 O.2   309  ASN309     -0.2716
    125  ND2       -6.2270    0.0440   28.3730 N.am  309  ASN309     -0.0877
    126  N        -11.5630    0.5210   21.8230 N.3   311  TYR311     -0.1227
    127  CA       -12.7410    1.3810   21.7680 C.3   311  TYR311      0.1736
    128  C        -13.2690    1.5670   20.3430 C.2   311  TYR311      0.2596
    129  O        -14.4790    1.6410   20.1220 O.2   311  TYR311     -0.2718
    130  CB       -12.3900    2.7490   22.3210 C.3   311  TYR311      0.0548
    131  CG       -12.0870    2.7150   23.8190 C.ar  311  TYR311     -0.0200
    132  CD1      -10.7880    2.4680   24.2880 C.ar  311  TYR311     -0.0009
    133  CD2      -13.0970    2.9340   24.7390 C.ar  311  TYR311     -0.0009
    134  CE1      -10.5160    2.4380   25.6750 C.ar  311  TYR311      0.0417
    135  CE2      -12.8310    2.9270   26.1190 C.ar  311  TYR311      0.0417
    136  CZ       -11.5510    2.6700   26.5720 C.ar  311  TYR311      0.1957
    137  OH       -11.3000    2.6560   27.9290 O.3   311  TYR311     -0.2866
    138  N        -12.3530    1.6360   19.3860 N.am  312  THR312     -0.1953
    139  CA       -12.7070    2.2160   18.1080 C.3   312  THR312      0.1897
    140  C        -11.8740    1.6810   16.9300 C.2   312  THR312      0.2313
    141  O        -10.8660    0.9960   17.0830 O.2   312  THR312     -0.2863
    142  CB       -12.6640    3.7900   18.2020 C.3   312  THR312      0.1794
    143  OG1      -13.3080    4.3850   17.0830 O.3   312  THR312     -0.2208
    144  CG2      -11.1950    4.3080   18.2870 C.3   312  THR312      0.0378
    145  N        -12.4370   11.4730   19.4860 N.3   356  TRP356     -0.1241
    146  CA       -11.6770   10.3840   18.8720 C.3   356  TRP356      0.1605
    147  C        -12.4310    9.0460   18.8230 C.2   356  TRP356      0.2264
    148  O        -11.9640    8.0970   18.1970 O.2   356  TRP356     -0.2867
    149  CB       -10.3480   10.1770   19.6200 C.3   356  TRP356      0.0550
    150  CG       -10.5020    9.9000   21.1140 C.ar  356  TRP356      0.0003
    151  CD1      -10.4420   10.8210   22.1340 C.ar  356  TRP356      0.0946
    152  CD2      -10.7240    8.6200   21.7450 C.ar  356  TRP356      0.0152
    153  NE1      -10.6080   10.1930   23.3520 N.ar  356  TRP356     -0.2442
    154  CE2      -10.7780    8.8500   23.1490 C.ar  356  TRP356      0.0810
    155  CE3      -10.8730    7.3110   21.2680 C.ar  356  TRP356      0.0012
    156  CZ2      -10.9920    7.8090   24.0830 C.ar  356  TRP356      0.0191
    157  CZ3      -11.0900    6.2750   22.2070 C.ar  356  TRP356      0.0001
    158  CH2      -11.1490    6.5450   23.5900 C.ar  356  TRP356      0.0015
    159  N        -10.1730   -2.9450   28.7720 N.3   384  GLU384     -0.1245
    160  CA       -11.0440   -1.7370   28.7150 C.3   384  GLU384      0.1567
    161  C        -11.8550   -1.7540   27.4470 C.2   384  GLU384      0.2260
    162  O        -11.3220   -2.0530   26.3760 O.2   384  GLU384     -0.2867
    163  CB       -10.2490   -0.4220   28.7240 C.3   384  GLU384      0.0388
    164  CG        -9.4950   -0.1460   29.9950 C.3   384  GLU384      0.1160
    165  CD        -8.7410    1.1570   29.9490 C.2   384  GLU384      0.3649
    166  OE1       -9.0370    2.0010   29.0520 O.co2 384  GLU384     -0.2457
    167  OE2       -7.8530    1.3260   30.8320 O.co2 384  GLU384     -0.2457
    168  N        -14.9440    0.0580   30.7620 N.3   434  TRP434     -0.1241
    169  CA       -14.5510    1.4030   31.1900 C.3   434  TRP434      0.1605
    170  C        -15.8290    2.2700   31.1450 C.2   434  TRP434      0.2264
    171  O        -16.3870    2.4820   30.0570 O.2   434  TRP434     -0.2867
    172  CB       -13.4870    2.0020   30.2740 C.3   434  TRP434      0.0550
    173  CG       -12.9820    3.2490   30.8870 C.ar  434  TRP434      0.0003
    174  CD1      -13.3980    4.5310   30.6190 C.ar  434  TRP434      0.0946
    175  CD2      -12.0110    3.3480   31.9460 C.ar  434  TRP434      0.0152
    176  NE1      -12.7260    5.4200   31.4330 N.ar  434  TRP434     -0.2442
    177  CE2      -11.8660    4.7230   32.2500 C.ar  434  TRP434      0.0810
    178  CE3      -11.2490    2.4100   32.6550 C.ar  434  TRP434      0.0012
    179  CZ2      -10.9860    5.1880   33.2650 C.ar  434  TRP434      0.0191
    180  CZ3      -10.3480    2.8680   33.6460 C.ar  434  TRP434      0.0001
    181  CH2      -10.2410    4.2500   33.9370 C.ar  434  TRP434      0.0015
    182  N        -11.2340   12.3530   33.4170 N.3   441  GLU441     -0.1231
    183  CA       -10.7330   11.8640   32.1350 C.3   441  GLU441      0.1699
    184  C         -9.4570   12.5800   31.6540 C.2   441  GLU441      0.2592
    185  O         -9.3990   13.0940   30.5200 O.2   441  GLU441     -0.2718
    186  CB       -11.8660   11.9410   31.0930 C.3   441  GLU441      0.0402
    187  CG       -11.5140   11.5390   29.6350 C.3   441  GLU441      0.1161
    188  CD       -11.0320   10.0940   29.4450 C.2   441  GLU441      0.3649
    189  OE1      -11.0820    9.2730   30.3750 O.co2 441  GLU441     -0.2457
    190  OE2      -10.5940    9.7750   28.3300 O.co2 441  GLU441     -0.2457
    191  N         -8.4330   12.5890   32.4940 N.am  442  TRP442     -0.1976
    192  CA        -7.1320   13.1590   32.1490 C.3   442  TRP442      0.1640
    193  C         -7.2600   14.6190   31.6460 C.2   442  TRP442      0.2290
    194  O         -7.8760   15.4170   32.3210 O.2   442  TRP442     -0.2864
    195  CB        -6.3590   12.2430   31.1800 C.3   442  TRP442      0.0576
    196  CG        -6.2530   10.7840   31.6890 C.ar  442  TRP442      0.0006
    197  CD1       -6.9000    9.6950   31.1810 C.ar  442  TRP442      0.0946
    198  CD2       -5.4760   10.3130   32.8040 C.ar  442  TRP442      0.0152
    199  NE1       -6.5720    8.5560   31.9140 N.ar  442  TRP442     -0.2442
    200  CE2       -5.6950    8.9180   32.9120 C.ar  442  TRP442      0.0810
    201  CE3       -4.5950   10.9390   33.7350 C.ar  442  TRP442      0.0012
    202  CZ2       -5.0730    8.1280   33.9130 C.ar  442  TRP442      0.0191
    203  CZ3       -3.9860   10.1590   34.7150 C.ar  442  TRP442      0.0001
    204  CH2       -4.1980    8.7550   34.7770 C.ar  442  TRP442      0.0015
    205  N        -17.7460    8.5030   31.3600 N.3   450  PHE450     -0.1241
    206  CA       -17.6150    7.1050   30.9200 C.3   450  PHE450      0.1605
    207  C        -18.2970    6.0580   31.8140 C.2   450  PHE450      0.2264
    208  O        -18.2790    4.8560   31.4790 O.2   450  PHE450     -0.2867
    209  CB       -16.1330    6.7320   30.8790 C.3   450  PHE450      0.0534
    210  CG       -15.4730    7.0170   29.5750 C.ar  450  PHE450     -0.0203
    211  CD1      -14.7200    8.1690   29.4050 C.ar  450  PHE450     -0.0042
    212  CD2      -15.5880    6.1140   28.5190 C.ar  450  PHE450     -0.0042
    213  CE1      -14.1220    8.4570   28.1470 C.ar  450  PHE450     -0.0003
    214  CE2      -14.9560    6.3780   27.2880 C.ar  450  PHE450     -0.0003
    215  CZ       -14.2300    7.5440   27.1300 C.ar  450  PHE450     -0.0000
@<TRIPOS>BOND
     1   109   110    1
     2   104   103    2
     3   103   102    1
     4   107   106    1
     5   107   108    1
     6   105   102    1
     7   105   106    1
     8   140   141    2
     9   140   139    1
    10   113   110    1
    11   113   114    1
    12   143   142    1
    13   116   115    2
    14   110   111    1
    15   102   101    1
    16   115   114    1
    17   115   117   am
    18   139   142    1
    19   139   138    1
    20   148   147    2
    21   142   144    1
    22   111   112    2
    23   101    96   am
    24    99    98    1
    25   147   146    1
    26   146   145    1
    27   146   149    1
    28    59    60   ar
    29    59    57   ar
    30   138   128   am
    31    96    97    2
    32    96    95    1
    33   149   150    1
    34    60    58   ar
    35    57    56   ar
    36    98    95    1
    37    98   100    1
    38   129   128    2
    39    95    94    1
    40   128   127    1
    41    58    56   ar
    42   150   152   ar
    43   150   151   ar
    44    56    55    1
    45   155   152   ar
    46   155   157   ar
    47    76    74   am
    48    89    88    2
    49    94    88   am
    50   152   154   ar
    51   127   126    1
    52   127   130    1
    53   151   153   ar
    54    88    87    1
    55   157   158   ar
    56   130   131    1
    57    55    52    1
    58    93    91   ar
    59    74    75    2
    60    74    73    1
    61    54    53    2
    62   154   153   ar
    63   154   156   ar
    64    91    90    1
    65    91    92   ar
    66    52    53    1
    67    52    51    1
    68    68    69    1
    69   121   120    2
    70   158   156   ar
    71    53    61   am
    72    87    90    1
    73    87    86    1
    74   131   132   ar
    75   131   133   ar
    76    73    72    1
    77    69    72    1
    78    69    70    1
    79   120   119    1
    80   132   134   ar
    81    61    62    1
    82    62    63    1
    83    62    65    1
    84    66    65    1
    85   133   135   ar
    86    64    63    2
    87    70    71    2
    88   118   119    1
    89    65    67    1
    90   119   122    1
    91   134   136   ar
    92   135   136   ar
    93   122   123    1
    94   162   161    2
    95   136   137    1
    96    49    48   ar
    97    50    48   ar
    98    48    47    1
    99   215   214   ar
   100   215   213   ar
   101    45    44    2
   102   214   212   ar
   103    44    43    1
   104    77    78    1
   105    46    47    1
   106    46    43    1
   107   161   160    1
   108    43    42    1
   109    85    83   am
   110    84    83    2
   111    83    82    1
   112   123   124    2
   113   123   125   am
   114    82    81    1
   115   213   211   ar
   116    81    78    1
   117   190   188   ar
   118   212   210   ar
   119    78    79    1
   120    80    79    2
   121   160   163    1
   122   160   159    1
   123    42    36   am
   124   163   164    1
   125   166   165   ar
   126    33    31   ar
   127    33    32   ar
   128    31    29   ar
   129   211   210   ar
   130   188   187    1
   131   188   189   ar
   132   210   209    1
   133   187   186    1
   134    36    37    2
   135    36    35    1
   136   165   164    1
   137   165   167   ar
   138   171   170    2
   139    32    30   ar
   140   172   173    1
   141   172   169    1
   142    29    28   ar
   143    29    27   ar
   144   185   184    2
   145   174   173   ar
   146   174   176   ar
   147   168   169    1
   148    28    26   ar
   149    40    39    2
   150   209   206    1
   151   173   175   ar
   152   206   205    1
   153   206   207    1
   154    41    39   am
   155   186   183    1
   156    35    34    1
   157    35    38    1
   158   170   169    1
   159   195   196    1
   160   195   192    1
   161   197   196   ar
   162   197   199   ar
   163    39    38    1
   164    30    27   ar
   165   176   177   ar
   166    27    25   ar
   167   208   207    2
   168   193   192    1
   169   193   194    2
   170   184   183    1
   171   184   191   am
   172   196   198   ar
   173   199   200   ar
   174    26    25   ar
   175   175   177   ar
   176   175   178   ar
   177   183   182    1
   178   192   191    1
   179   177   179   ar
   180    25    24    1
   181   178   180   ar
   182   198   200   ar
   183   198   201   ar
   184   200   202   ar
   185    18    19   ar
   186    18    16   ar
   187   179   181   ar
   188    19    17   ar
   189     9     7   am
   190    24    21    1
   191   180   181   ar
   192   201   203   ar
   193   202   204   ar
   194    16    15   ar
   195     8     7    2
   196     7     6    1
   197    17    15   ar
   198    21    20    1
   199    21    22    1
   200    15    14    1
   201   203   204   ar
   202    20    12   am
   203    23    22    2
   204    11    12    1
   205    11    14    1
   206    11    10    1
   207    12    13    2
   208     6     5    1
   209     5     2    1
   210     2     1    1
   211     2     3    1
   212     4     3    2
