@<TRIPOS>MOLECULE
tmp/3gnrA00.pdb
 144 145 0 0 0
SMALL
GASTEIGER

@<TRIPOS>ATOM
      1  N        -12.8030   -6.7920  -23.7740 N.3    21  GLN21      -0.1245
      2  CA       -12.9400   -7.3130  -22.4010 C.3    21  GLN21       0.1566
      3  C        -14.3580   -7.1850  -21.8650 C.2    21  GLN21       0.2260
      4  O        -14.7050   -7.8320  -20.8610 O.2    21  GLN21      -0.2867
      5  CB       -11.9810   -6.5550  -21.4920 C.3    21  GLN21       0.0367
      6  CG       -10.5220   -6.7130  -21.8910 C.3    21  GLN21       0.0905
      7  CD        -9.6330   -5.9630  -20.9470 C.2    21  GLN21       0.2608
      8  OE1       -9.2700   -4.8240  -21.2110 O.2    21  GLN21      -0.2717
      9  NE2       -9.2880   -6.5980  -19.8070 N.am   21  GLN21      -0.0878
     10  N        -13.8590    5.8580  -20.0550 N.3    78  ARG78      -0.1245
     11  CA       -12.9430    5.4330  -21.1100 C.3    78  ARG78       0.1563
     12  C        -13.4930    4.1500  -21.6630 C.2    78  ARG78       0.2260
     13  O        -13.7170    3.1910  -20.9120 O.2    78  ARG78      -0.2867
     14  CB       -11.5530    5.0950  -20.5600 C.3    78  ARG78       0.0307
     15  CG       -10.4710    6.1000  -20.8120 C.3    78  ARG78       0.0489
     16  CD        -9.0740    5.4450  -20.5950 C.3    78  ARG78       0.2205
     17  NE        -8.5380    4.7790  -21.7790 N.pl3  78  ARG78      -0.0865
     18  CZ        -7.5830    3.8390  -21.7570 C.cat  78  ARG78       0.5346
     19  NH1       -7.0630    3.4200  -20.6050 N.pl3  78  ARG78       0.1354
     20  NH2       -7.1440    3.3130  -22.8920 N.pl3  78  ARG78       0.1354
     21  N         -7.5090   -0.8520  -28.8520 N.3   122  HIS122     -0.1226
     22  CA        -7.2600   -1.5570  -27.5830 C.3   122  HIS122      0.1752
     23  C         -7.1290   -3.0520  -27.9020 C.2   122  HIS122      0.2596
     24  O         -7.8000   -3.9150  -27.3150 O.2   122  HIS122     -0.2718
     25  CB        -8.3720   -1.2650  -26.5810 C.3   122  HIS122      0.0759
     26  CG        -7.9530   -1.3630  -25.1440 C.ar  122  HIS122      0.0818
     27  ND1       -7.4130   -2.5050  -24.5910 N.ar  122  HIS122     -0.2268
     28  CD2       -8.0210   -0.4570  -24.1460 C.ar  122  HIS122      0.1154
     29  CE1       -7.2030   -2.3030  -23.2960 C.ar  122  HIS122      0.1986
     30  NE2       -7.5610   -1.0680  -23.0060 N.ar  122  HIS122     -0.2212
     31  N         -6.2410   -3.3220  -28.8580 N.am  123  TRP123     -0.1976
     32  CA        -5.6050   -4.6270  -29.0840 C.3   123  TRP123      0.1640
     33  C         -6.3330   -5.5670  -30.0260 C.2   123  TRP123      0.2290
     34  O         -5.7890   -6.6280  -30.3730 O.2   123  TRP123     -0.2864
     35  CB        -5.2850   -5.3850  -27.7830 C.3   123  TRP123      0.0576
     36  CG        -4.4970   -4.6380  -26.7650 C.ar  123  TRP123      0.0006
     37  CD1       -3.9330   -3.3970  -26.8800 C.ar  123  TRP123      0.0946
     38  CD2       -4.1320   -5.1260  -25.4830 C.ar  123  TRP123      0.0152
     39  NE1       -3.2830   -3.0620  -25.7220 N.ar  123  TRP123     -0.2442
     40  CE2       -3.3840   -4.1110  -24.8450 C.ar  123  TRP123      0.0810
     41  CE3       -4.3860   -6.3190  -24.7970 C.ar  123  TRP123      0.0012
     42  CZ2       -2.8560   -4.2690  -23.5730 C.ar  123  TRP123      0.0191
     43  CZ3       -3.8800   -6.4670  -23.5160 C.ar  123  TRP123      0.0001
     44  CH2       -3.1260   -5.4510  -22.9210 C.ar  123  TRP123      0.0015
     45  N         -3.7060    1.9550  -27.0250 N.3   167  ASN167     -0.1225
     46  CA        -3.5470    1.5300  -25.6360 C.3   167  ASN167      0.1785
     47  C         -2.3140    0.6360  -25.5130 C.2   167  ASN167      0.2597
     48  O         -2.2710   -0.4370  -26.1350 O.2   167  ASN167     -0.2718
     49  CB        -4.7690    0.7320  -25.1960 C.3   167  ASN167      0.1169
     50  CG        -4.6920    0.3330  -23.7370 C.2   167  ASN167      0.2627
     51  OD1       -4.4180   -0.8350  -23.3920 O.2   167  ASN167     -0.2716
     52  ND2       -4.8760    1.2970  -22.8790 N.am  167  ASN167     -0.0877
     53  N         -1.3170    1.0860  -24.7400 N.am  168  GLU168     -0.1979
     54  CA        -0.1720    0.2440  -24.3400 C.3   168  GLU168      0.1602
     55  C          0.5690   -0.4140  -25.5040 C.2   168  GLU168      0.2287
     56  O          0.6540   -1.6430  -25.5550 O.2   168  GLU168     -0.2864
     57  CB        -0.6450   -0.8410  -23.3410 C.3   168  GLU168      0.0415
     58  CG        -1.3270   -0.2360  -22.1140 C.3   168  GLU168      0.1163
     59  CD        -1.4460   -1.1980  -20.9600 C.2   168  GLU168      0.3649
     60  OE1       -1.1040   -2.4010  -21.1110 O.co2 168  GLU168     -0.2457
     61  OE2       -1.8450   -0.7330  -19.8730 O.co2 168  GLU168     -0.2457
     62  N          0.2440    0.9760  -12.3730 N.3   311  TYR311     -0.1241
     63  CA        -0.2020    0.1090  -11.2710 C.3   311  TYR311      0.1605
     64  C          0.8310   -0.0650  -10.1780 C.2   311  TYR311      0.2264
     65  O          0.4770   -0.1450   -9.0070 O.2   311  TYR311     -0.2867
     66  CB        -0.5500   -1.2950  -11.7720 C.3   311  TYR311      0.0534
     67  CG        -1.7620   -1.3470  -12.6710 C.ar  311  TYR311     -0.0201
     68  CD1       -1.6220   -1.4370  -14.0620 C.ar  311  TYR311     -0.0009
     69  CD2       -3.0580   -1.2870  -12.1300 C.ar  311  TYR311     -0.0009
     70  CE1       -2.7520   -1.4700  -14.8940 C.ar  311  TYR311      0.0417
     71  CE2       -4.1840   -1.3040  -12.9330 C.ar  311  TYR311      0.0417
     72  CZ        -4.0280   -1.4030  -14.3220 C.ar  311  TYR311      0.1957
     73  OH        -5.1460   -1.4200  -15.1200 O.3   311  TYR311     -0.2866
     74  N          1.7230   -9.8770  -10.9540 N.3   356  TRP356     -0.1241
     75  CA         2.5880   -8.7530  -11.2920 C.3   356  TRP356      0.1605
     76  C          2.2660   -7.4580  -10.5330 C.2   356  TRP356      0.2264
     77  O          3.0230   -6.5040  -10.6170 O.2   356  TRP356     -0.2867
     78  CB         2.5500   -8.4890  -12.8150 C.3   356  TRP356      0.0550
     79  CG         1.1570   -8.3540  -13.3430 C.ar  356  TRP356      0.0003
     80  CD1        0.3650   -9.3570  -13.8570 C.ar  356  TRP356      0.0946
     81  CD2        0.3600   -7.1600  -13.3650 C.ar  356  TRP356      0.0152
     82  NE1       -0.8590   -8.8490  -14.2130 N.ar  356  TRP356     -0.2442
     83  CE2       -0.8970   -7.5090  -13.9160 C.ar  356  TRP356      0.0810
     84  CE3        0.5900   -5.8290  -12.9820 C.ar  356  TRP356      0.0012
     85  CZ2       -1.9320   -6.5650  -14.1050 C.ar  356  TRP356      0.0191
     86  CZ3       -0.4410   -4.8910  -13.1620 C.ar  356  TRP356      0.0001
     87  CH2       -1.6870   -5.2700  -13.7150 C.ar  356  TRP356      0.0015
     88  N         -5.4050    4.6420  -16.4740 N.3   384  GLU384     -0.1245
     89  CA        -5.6680    3.3650  -15.8250 C.3   384  GLU384      0.1567
     90  C         -4.9320    3.3680  -14.4850 C.2   384  GLU384      0.2260
     91  O         -3.7140    3.5870  -14.4400 O.2   384  GLU384     -0.2867
     92  CB        -5.0290    2.2670  -16.6640 C.3   384  GLU384      0.0388
     93  CG        -5.8380    1.1120  -17.0450 C.3   384  GLU384      0.1160
     94  CD        -4.9420    0.0050  -17.5760 C.2   384  GLU384      0.3649
     95  OE1       -5.4760   -0.9090  -18.2230 O.co2 384  GLU384     -0.2457
     96  OE2       -3.7080    0.0420  -17.3320 O.co2 384  GLU384     -0.2457
     97  N         -9.2720    1.5700  -13.3280 N.3   434  TRP434     -0.1241
     98  CA        -9.5020    0.2490  -13.9090 C.3   434  TRP434      0.1605
     99  C        -10.0330   -0.6680  -12.7880 C.2   434  TRP434      0.2264
    100  O         -9.3070   -0.9150  -11.8220 O.2   434  TRP434     -0.2867
    101  CB        -8.2150   -0.3550  -14.5180 C.3   434  TRP434      0.0550
    102  CG        -8.5600   -1.5530  -15.3240 C.ar  434  TRP434      0.0003
    103  CD1       -8.5280   -2.8520  -14.9170 C.ar  434  TRP434      0.0946
    104  CD2       -9.0670   -1.5590  -16.6690 C.ar  434  TRP434      0.0152
    105  NE1       -8.9740   -3.6800  -15.9310 N.ar  434  TRP434     -0.2442
    106  CE2       -9.3140   -2.9090  -17.0160 C.ar  434  TRP434      0.0810
    107  CE3       -9.3230   -0.5570  -17.6170 C.ar  434  TRP434      0.0012
    108  CZ2       -9.8120   -3.2820  -18.2700 C.ar  434  TRP434      0.0191
    109  CZ3       -9.7970   -0.9250  -18.8750 C.ar  434  TRP434      0.0001
    110  CH2      -10.0520   -2.2780  -19.1840 C.ar  434  TRP434      0.0015
    111  N         -9.9700  -10.5760  -18.2660 N.3   441  GLU441     -0.1231
    112  CA        -8.6150  -10.0430  -18.1420 C.3   441  GLU441      0.1699
    113  C         -7.6300  -10.7770  -19.0710 C.2   441  GLU441      0.2592
    114  O         -6.6420  -11.3650  -18.6230 O.2   441  GLU441     -0.2718
    115  CB        -8.2020  -10.0830  -16.6480 C.3   441  GLU441      0.0402
    116  CG        -6.7740   -9.6880  -16.3460 C.3   441  GLU441      0.1161
    117  CD        -6.4170   -8.2750  -16.7130 C.2   441  GLU441      0.3649
    118  OE1       -7.3070   -7.4300  -16.9570 O.co2 441  GLU441     -0.2457
    119  OE2       -5.2030   -7.9980  -16.7290 O.co2 441  GLU441     -0.2457
    120  N         -7.9120  -10.7240  -20.3720 N.am  442  TRP442     -0.1976
    121  CA        -7.0160  -11.2480  -21.4090 C.3   442  TRP442      0.1640
    122  C         -6.6290  -12.6870  -21.0900 C.2   442  TRP442      0.2290
    123  O         -7.5240  -13.4870  -20.8190 O.2   442  TRP442     -0.2864
    124  CB        -5.8020  -10.3180  -21.5920 C.3   442  TRP442      0.0576
    125  CG        -6.2100   -8.8870  -21.8610 C.ar  442  TRP442      0.0006
    126  CD1       -6.0630   -7.8170  -21.0260 C.ar  442  TRP442      0.0946
    127  CD2       -6.8680   -8.3930  -23.0450 C.ar  442  TRP442      0.0152
    128  NE1       -6.5780   -6.6770  -21.6210 N.ar  442  TRP442     -0.2442
    129  CE2       -7.0780   -7.0040  -22.8570 C.ar  442  TRP442      0.0810
    130  CE3       -7.3000   -8.9900  -24.2430 C.ar  442  TRP442      0.0012
    131  CZ2       -7.6850   -6.1990  -23.8250 C.ar  442  TRP442      0.0191
    132  CZ3       -7.9170   -8.1760  -25.2260 C.ar  442  TRP442      0.0001
    133  CH2       -8.0930   -6.7970  -25.0080 C.ar  442  TRP442      0.0015
    134  N        -11.1860   -6.8880  -11.4780 N.3   450  PHE450     -0.1241
    135  CA       -10.7040   -5.5160  -11.3120 C.3   450  PHE450      0.1605
    136  C        -11.8120   -4.4890  -11.0540 C.2   450  PHE450      0.2264
    137  O        -11.5310   -3.2910  -10.9280 O.2   450  PHE450     -0.2867
    138  CB        -9.9670   -5.0900  -12.6030 C.3   450  PHE450      0.0534
    139  CG        -8.4820   -5.3540  -12.5970 C.ar  450  PHE450     -0.0203
    140  CD1       -7.9590   -6.4520  -13.2760 C.ar  450  PHE450     -0.0042
    141  CD2       -7.6040   -4.4730  -11.9530 C.ar  450  PHE450     -0.0042
    142  CE1       -6.5850   -6.6960  -13.2900 C.ar  450  PHE450     -0.0003
    143  CE2       -6.2260   -4.6850  -11.9650 C.ar  450  PHE450     -0.0003
    144  CZ        -5.7040   -5.8100  -12.6450 C.ar  450  PHE450     -0.0000
@<TRIPOS>BOND
     1    34    33    2
     2    33    32    1
     3    32    31    1
     4    32    35    1
     5    31    23   am
     6    21    22    1
     7    23    22    1
     8    23    24    2
     9    35    36    1
    10    22    25    1
    11    45    46    1
    12    37    36   ar
    13    37    39   ar
    14    36    38   ar
    15    25    26    1
    16    48    47    2
    17    39    40   ar
    18    46    47    1
    19    46    49    1
    20    56    55    2
    21    47    53   am
    22    55    54    1
    23    38    40   ar
    24    38    41   ar
    25   132   133   ar
    26   132   130   ar
    27    49    50    1
    28    26    27   ar
    29    26    28   ar
    30   133   131   ar
    31    40    42   ar
    32    41    43   ar
    33    53    54    1
    34    27    29   ar
    35    54    57    1
    36   130   127   ar
    37    28    30   ar
    38   131   129   ar
    39     1     2    1
    40    50    51    2
    41    50    52   am
    42    42    44   ar
    43    43    44   ar
    44    57    58    1
    45    29    30   ar
    46   127   129   ar
    47   127   125   ar
    48    20    18    1
    49   129   128   ar
    50     2     3    1
    51     2     5    1
    52    58    59    1
    53     6     5    1
    54     6     7    1
    55     3     4    2
    56   125   124    1
    57   125   126   ar
    58    17    18    2
    59    17    16    1
    60    18    19    1
    61    12    11    1
    62    12    13    2
    63   128   126   ar
    64   124   121    1
    65   121   122    1
    66   121   120    1
    67     8     7    2
    68    60    59   ar
    69    11    14    1
    70    11    10    1
    71   122   123    2
    72    59    61   ar
    73     7     9   am
    74    15    16    1
    75    15    14    1
    76   120   113   am
    77   110   109   ar
    78   110   108   ar
    79   113   114    2
    80   113   112    1
    81   109   107   ar
    82   108   106   ar
    83   111   112    1
    84    95    94   ar
    85   112   115    1
    86   107   104   ar
    87    94    96   ar
    88    94    93    1
    89    93    92    1
    90   106   104   ar
    91   106   105   ar
    92   118   117   ar
    93   119   117   ar
    94   117   116    1
    95   104   102   ar
    96    92    89    1
    97   115   116    1
    98    88    89    1
    99   105   103   ar
   100    89    90    1
   101   102   103   ar
   102   102   101    1
   103    73    72    1
   104    70    72   ar
   105    70    68   ar
   106   101    98    1
   107    90    91    2
   108    72    71   ar
   109    82    83   ar
   110    82    80   ar
   111    85    83   ar
   112    85    87   ar
   113    68    67   ar
   114    83    81   ar
   115    98    97    1
   116    98    99    1
   117    80    79   ar
   118    87    86   ar
   119    81    79   ar
   120    81    84   ar
   121    79    78    1
   122   142   140   ar
   123   142   144   ar
   124   140   139   ar
   125    86    84   ar
   126    71    69   ar
   127    78    75    1
   128    99   100    2
   129    67    69   ar
   130    67    66    1
   131   144   143   ar
   132   138   139    1
   133   138   135    1
   134   139   141   ar
   135    62    63    1
   136   143   141   ar
   137    66    63    1
   138   134   135    1
   139   135   136    1
   140    75    74    1
   141    75    76    1
   142    63    64    1
   143   136   137    2
   144    77    76    2
   145    64    65    2
