@<TRIPOS>MOLECULE
tmp/3gnvB00.pdb
 181 170 0 0 0
SMALL
GASTEIGER

@<TRIPOS>ATOM
      1  N         39.1300  101.0980  113.4990 N.3   148  ARG148     -0.1245
      2  CA        38.8580  100.2080  114.6160 C.3   148  ARG148      0.1563
      3  C         38.6500   98.7970  114.0930 C.2   148  ARG148      0.2260
      4  O         38.3790   98.5850  112.9020 O.2   148  ARG148     -0.2867
      5  CB        37.6550  100.6910  115.4240 C.3   148  ARG148      0.0307
      6  CG        37.9130  102.0540  116.0490 C.3   148  ARG148      0.0489
      7  CD        37.4070  102.1880  117.4550 C.3   148  ARG148      0.2205
      8  NE        35.9880  102.5290  117.4990 N.pl3 148  ARG148     -0.0865
      9  CZ        34.9810  101.6630  117.6640 C.cat 148  ARG148      0.5346
     10  NH1       35.1890  100.3480  117.8020 N.pl3 148  ARG148      0.1354
     11  NH2       33.7370  102.1250  117.6950 N.pl3 148  ARG148      0.1354
     12  N         24.3480  103.3450  131.6700 N.3   183  PHE183     -0.1241
     13  CA        23.3110  103.1150  130.6460 C.3   183  PHE183      0.1605
     14  C         21.8640  103.1360  131.1310 C.2   183  PHE183      0.2264
     15  O         20.9600  103.1460  130.3090 O.2   183  PHE183     -0.2867
     16  CB        23.5750  101.8130  129.9020 C.3   183  PHE183      0.0534
     17  CG        24.8960  101.7900  129.2010 C.ar  183  PHE183     -0.0203
     18  CD1       25.0680  102.4760  128.0160 C.ar  183  PHE183     -0.0042
     19  CD2       25.9700  101.0950  129.7320 C.ar  183  PHE183     -0.0042
     20  CE1       26.2730  102.4720  127.3690 C.ar  183  PHE183     -0.0003
     21  CE2       27.1890  101.0850  129.0840 C.ar  183  PHE183     -0.0003
     22  CZ        27.3430  101.7760  127.9010 C.ar  183  PHE183     -0.0000
     23  N         19.5070  111.3120  128.9870 N.3   187  PRO187     -0.2116
     24  CA        20.3200  112.5360  128.9990 C.3   187  PRO187      0.1372
     25  C         19.9840  113.4660  130.1720 C.2   187  PRO187      0.2244
     26  O         20.8870  113.8810  130.8970 O.2   187  PRO187     -0.2868
     27  CB        19.9950  113.1850  127.6550 C.3   187  PRO187      0.0268
     28  CG        19.6180  112.0570  126.7760 C.3   187  PRO187      0.0207
     29  CD        18.9320  111.0530  127.6490 C.3   187  PRO187      0.0892
     30  N         21.2410  111.7540  133.3840 N.3   190  ARG190     -0.1245
     31  CA        22.6960  111.7360  133.5260 C.3   190  ARG190      0.1563
     32  C         23.2410  113.0720  134.0420 C.2   190  ARG190      0.2260
     33  O         24.1850  113.0870  134.8310 O.2   190  ARG190     -0.2867
     34  CB        23.4000  111.3530  132.2150 C.3   190  ARG190      0.0307
     35  CG        24.8990  111.1050  132.4210 C.3   190  ARG190      0.0489
     36  CD        25.6860  110.9930  131.1380 C.3   190  ARG190      0.2205
     37  NE        26.6470  109.9010  131.2710 N.pl3 190  ARG190     -0.0865
     38  CZ        27.9640  110.0190  131.4010 C.cat 190  ARG190      0.5346
     39  NH1       28.5630  111.2000  131.3750 N.pl3 190  ARG190      0.1354
     40  NH2       28.6830  108.9220  131.5420 N.pl3 190  ARG190      0.1354
     41  N         30.3670  103.5310  131.8550 N.3   306  ASN306     -0.1240
     42  CA        29.7520  103.0620  130.6160 C.3   306  ASN306      0.1653
     43  C         30.8200  102.3110  129.8530 C.2   306  ASN306      0.2266
     44  O         31.7220  102.9280  129.3120 O.2   306  ASN306     -0.2867
     45  CB        29.2730  104.2330  129.7540 C.3   306  ASN306      0.1155
     46  CG        28.3090  105.1440  130.4760 C.2   306  ASN306      0.2627
     47  OD1       27.1470  105.2710  130.0870 O.2   306  ASN306     -0.2716
     48  ND2       28.7860  105.7950  131.5240 N.am  306  ASN306     -0.0877
     49  N         34.4810  103.6200  129.5570 N.3   309  ASP309     -0.1239
     50  CA        34.4800  105.0350  129.8830 C.3   309  ASP309      0.1674
     51  C         34.0740  105.1330  131.3410 C.2   309  ASP309      0.2266
     52  O         33.1200  104.4780  131.7670 O.2   309  ASP309     -0.2867
     53  CB        33.5360  105.8190  128.9660 C.3   309  ASP309      0.1410
     54  CG        34.1670  107.1120  128.4430 C.2   309  ASP309      0.3668
     55  OD1       34.5700  107.1460  127.2490 O.co2 309  ASP309     -0.2456
     56  OD2       34.2730  108.0840  129.2320 O.co2 309  ASP309     -0.2456
     57  N         32.5080  110.2570  128.1730 N.3   356  CYS356     -0.1221
     58  CA        31.8540  109.8280  126.9280 C.3   356  CYS356      0.1808
     59  C         31.8610  110.9220  125.8810 C.2   356  CYS356      0.2602
     60  O         30.8530  111.1500  125.2140 O.2   356  CYS356     -0.2717
     61  CB        30.4170  109.3810  127.1780 C.3   356  CYS356      0.0970
     62  SG        30.2650  107.8810  128.1500 S.3   356  CYS356     -0.0800
     63  N         33.0080  111.5840  125.7470 N.am  357  SER357     -0.1938
     64  CA        33.1790  112.7730  124.8900 C.3   357  SER357      0.2055
     65  C         32.5140  114.0340  125.4310 C.2   357  SER357      0.2643
     66  O         32.7610  115.1140  124.8940 O.2   357  SER357     -0.2714
     67  CB        32.6560  112.5460  123.4640 C.3   357  SER357      0.2130
     68  OG        32.9200  111.2400  122.9930 O.3   357  SER357     -0.2179
     69  N         31.6870  113.9120  126.4750 N.am  358  SER358     -0.1949
     70  CA        30.7800  114.9920  126.8670 C.3   358  SER358      0.1924
     71  C         31.1900  115.7150  128.1220 C.2   358  SER358      0.2314
     72  O         31.8330  115.1410  128.9950 O.2   358  SER358     -0.2863
     73  CB        29.3840  114.4480  127.0900 C.3   358  SER358      0.2116
     74  OG        29.0100  113.6540  125.9950 O.3   358  SER358     -0.2180
     75  N         24.3800  118.4050  128.7690 N.3   374  LEU374     -0.1245
     76  CA        25.6080  117.7930  128.2710 C.3   374  LEU374      0.1561
     77  C         25.8260  118.1800  126.8230 C.2   374  LEU374      0.2260
     78  O         24.9240  118.0700  125.9930 O.2   374  LEU374     -0.2867
     79  CB        25.5130  116.2770  128.3640 C.3   374  LEU374      0.0270
     80  CG        25.2940  115.8020  129.7880 C.3   374  LEU374      0.0019
     81  CD1       24.5840  114.4650  129.8050 C.3   374  LEU374      0.0001
     82  CD2       26.6260  115.7290  130.4920 C.3   374  LEU374      0.0001
     83  N         29.3240  118.5970  123.7550 N.3   376  ARG376     -0.1245
     84  CA        30.5770  117.9720  123.3390 C.3   376  ARG376      0.1563
     85  C         31.1500  118.7280  122.1460 C.2   376  ARG376      0.2260
     86  O         30.4420  119.4790  121.4710 O.2   376  ARG376     -0.2867
     87  CB        30.3690  116.4960  122.9520 C.3   376  ARG376      0.0307
     88  CG        29.4580  116.2740  121.7310 C.3   376  ARG376      0.0489
     89  CD        29.6930  114.9100  121.0930 C.3   376  ARG376      0.2205
     90  NE        30.9050  114.8640  120.2660 N.pl3 376  ARG376     -0.0865
     91  CZ        31.6840  113.7930  120.0980 C.cat 376  ARG376      0.5346
     92  NH1       31.4110  112.6570  120.7070 N.pl3 376  ARG376      0.1354
     93  NH2       32.7630  113.8610  119.3310 N.pl3 376  ARG376      0.1354
     94  N         30.6060  113.6770  110.4310 N.3   384  ARG384     -0.1245
     95  CA        29.7240  112.5420  110.1960 C.3   384  ARG384      0.1563
     96  C         28.4410  112.9560  109.5210 C.2   384  ARG384      0.2260
     97  O         27.9720  112.2650  108.6190 O.2   384  ARG384     -0.2867
     98  CB        29.4450  111.7920  111.4940 C.3   384  ARG384      0.0307
     99  CG        30.6300  110.9420  111.8570 C.3   384  ARG384      0.0489
    100  CD        30.4930  110.1810  113.1240 C.3   384  ARG384      0.2205
    101  NE        31.7830  109.5890  113.4430 N.pl3 384  ARG384     -0.0865
    102  CZ        31.9890  108.6800  114.3860 C.cat 384  ARG384      0.5346
    103  NH1       30.9850  108.2340  115.1270 N.pl3 384  ARG384      0.1354
    104  NH2       33.2120  108.2150  114.5910 N.pl3 384  ARG384      0.1354
    105  N         24.2610  108.6870  112.4320 N.3   397  SER397     -0.1217
    106  CA        24.7540  109.2780  113.6810 C.3   397  SER397      0.1889
    107  C         24.2320  110.7000  113.9090 C.2   397  SER397      0.2288
    108  O         24.1980  111.1570  115.0510 O.2   397  SER397     -0.2866
    109  CB        26.2820  109.2850  113.7010 C.3   397  SER397      0.2089
    110  OG        26.7900  109.9900  112.5900 O.3   397  SER397     -0.2183
    111  N         21.0540  110.1680  115.8970 N.3   400  GLY400     -0.1210
    112  CA        21.4760  109.8690  117.2550 C.3   400  GLY400      0.1956
    113  C         21.9280  111.1190  118.0010 C.2   400  GLY400      0.2611
    114  O         21.6610  111.2760  119.1940 O.2   400  GLY400     -0.2717
    115  N         22.6110  112.0170  117.2950 N.am  401  ASN401     -0.1974
    116  CA        23.1790  113.1780  117.9470 C.3   401  ASN401      0.1688
    117  C         22.1180  114.2210  118.2610 C.2   401  ASN401      0.2292
    118  O         22.1700  114.8510  119.3170 O.2   401  ASN401     -0.2864
    119  CB        24.3550  113.7600  117.1490 C.3   401  ASN401      0.1181
    120  CG        25.6880  113.1030  117.5120 C.2   401  ASN401      0.2629
    121  OD1       26.0280  112.9610  118.6870 O.2   401  ASN401     -0.2716
    122  ND2       26.4400  112.6910  116.5030 N.am  401  ASN401     -0.0877
    123  N         20.2750  112.8430  121.3980 N.3   404  MET404     -0.1230
    124  CA        21.1200  112.8770  122.5980 C.3   404  MET404      0.1702
    125  C         21.7150  114.2510  122.9480 C.2   404  MET404      0.2592
    126  O         21.9770  114.5280  124.1170 O.2   404  MET404     -0.2718
    127  CB        22.2480  111.8530  122.4540 C.3   404  MET404      0.0401
    128  CG        21.7590  110.4150  122.2900 C.3   404  MET404      0.0596
    129  SD        21.1280  109.7340  123.8290 S.3   404  MET404     -0.1393
    130  CE        22.6700  109.3320  124.6450 C.3   404  MET404      0.0692
    131  N         21.9370  115.1030  121.9470 N.am  405  TYR405     -0.1976
    132  CA        22.4270  116.4690  122.1880 C.3   405  TYR405      0.1639
    133  C         21.4370  117.5650  121.7560 C.2   405  TYR405      0.2290
    134  O         21.8290  118.7080  121.5530 O.2   405  TYR405     -0.2864
    135  CB        23.7750  116.6700  121.5030 C.3   405  TYR405      0.0560
    136  CG        24.8860  115.8240  122.0680 C.ar  405  TYR405     -0.0198
    137  CD1       25.4950  116.1600  123.2750 C.ar  405  TYR405     -0.0009
    138  CD2       25.3520  114.6990  121.3830 C.ar  405  TYR405     -0.0009
    139  CE1       26.5350  115.3840  123.8040 C.ar  405  TYR405      0.0417
    140  CE2       26.3940  113.9210  121.8890 C.ar  405  TYR405      0.0417
    141  CZ        26.9750  114.2650  123.1070 C.ar  405  TYR405      0.1957
    142  OH        27.9980  113.4990  123.6190 O.3   405  TYR405     -0.2866
    143  N         21.4610  104.8310  116.4700 N.3   436  GLN436     -0.1231
    144  CA        21.6910  103.9910  117.6260 C.3   436  GLN436      0.1698
    145  C         22.0950  104.7240  118.8890 C.2   436  GLN436      0.2592
    146  O         22.9730  105.5780  118.8700 O.2   436  GLN436     -0.2718
    147  CB        22.7020  102.9140  117.2970 C.3   436  GLN436      0.0381
    148  CG        23.9990  103.4170  116.7670 C.3   436  GLN436      0.0905
    149  CD        25.0000  102.3030  116.7140 C.2   436  GLN436      0.2608
    150  OE1       24.7220  101.2330  116.1650 O.2   436  GLN436     -0.2717
    151  NE2       26.1650  102.5240  117.3170 N.am  436  GLN436     -0.0878
    152  N         21.4020  104.3740  119.9740 N.am  437  ILE437     -0.1966
    153  CA        21.6430  104.9120  121.2990 C.3   437  ILE437      0.1727
    154  C         22.2510  103.8040  122.1320 C.2   437  ILE437      0.2616
    155  O         21.7350  102.6860  122.1570 O.2   437  ILE437     -0.2715
    156  CB        20.3400  105.3850  121.9690 C.3   437  ILE437      0.0290
    157  CG1       19.8010  106.6280  121.2690 C.3   437  ILE437      0.0022
    158  CG2       20.5810  105.7110  123.4360 C.3   437  ILE437      0.0023
    159  CD1       19.0020  106.3420  120.0630 C.3   437  ILE437      0.0001
    160  N         23.3500  104.1170  122.8090 N.am  438  TYR438     -0.1960
    161  CA        23.9950  103.1790  123.7200 C.3   438  TYR438      0.1771
    162  C         24.2180  101.8030  123.0670 C.2   438  TYR438      0.2620
    163  O         24.0360  100.7510  123.7030 O.2   438  TYR438     -0.2715
    164  CB        23.1790  103.0560  125.0300 C.3   438  TYR438      0.0574
    165  CG        23.1410  104.2920  125.9420 C.ar  438  TYR438     -0.0198
    166  CD1       24.0060  105.3880  125.7600 C.ar  438  TYR438     -0.0009
    167  CD2       22.2760  104.3270  127.0320 C.ar  438  TYR438     -0.0009
    168  CE1       23.9660  106.4890  126.6140 C.ar  438  TYR438      0.0417
    169  CE2       22.2350  105.4190  127.8870 C.ar  438  TYR438      0.0417
    170  CZ        23.0710  106.4940  127.6710 C.ar  438  TYR438      0.1957
    171  OH        23.0040  107.5540  128.5380 O.3   438  TYR438     -0.2866
    172  N         24.6040  101.8320  121.7910 N.am  439  GLY439     -0.1954
    173  CA        24.9250  100.6220  121.0400 C.3   439  GLY439      0.1869
    174  C         23.7720   99.8470  120.4240 C.2   439  GLY439      0.2309
    175  O         24.0070   98.9570  119.6240 O.2   439  GLY439     -0.2863
    176  N         26.9380   97.9620  122.9210 N.3   546  SER546     -0.1217
    177  CA        27.9620   98.1360  121.8900 C.3   546  SER546      0.1889
    178  C         28.5620   96.7880  121.5240 C.2   546  SER546      0.2288
    179  O         28.9960   96.0260  122.4000 O.2   546  SER546     -0.2866
    180  CB        29.0620   99.1170  122.3220 C.3   546  SER546      0.2089
    181  OG        28.8420  100.3970  121.7360 O.3   546  SER546     -0.2183
@<TRIPOS>BOND
     1    97    96    2
     2    96    95    1
     3    95    94    1
     4    95    98    1
     5    98    99    1
     6    99   100    1
     7   105   106    1
     8   110   109    1
     9     4     3    2
    10   100   101    1
    11   101   102    2
    12     1     2    1
    13   106   109    1
    14   106   107    1
    15   107   108    2
    16     3     2    1
    17   102   104    1
    18   102   103    1
    19     2     5    1
    20     5     6    1
    21   111   112    1
    22     6     7    1
    23   150   149    2
    24   143   144    1
    25   122   120   am
    26   149   148    1
    27   149   151   am
    28   148   147    1
    29   119   120    1
    30   119   116    1
    31   112   113    1
    32   115   116    1
    33   115   113   am
    34   147   144    1
    35     7     8    1
    36     8     9    2
    37   120   121    2
    38   144   145    1
    39     9    11    1
    40     9    10    1
    41   116   117    1
    42   113   114    2
    43   117   118    2
    44   146   145    2
    45   145   152   am
    46    93    91    1
    47   175   174    2
    48   152   153    1
    49   159   157    1
    50    91    90    2
    51    91    92    1
    52    90    89    1
    53   174   173    1
    54   173   172    1
    55    89    88    1
    56   157   156    1
    57   153   156    1
    58   153   154    1
    59   138   140   ar
    60   138   136   ar
    61   123   124    1
    62    86    85    2
    63   135   136    1
    64   135   132    1
    65   178   177    1
    66   178   179    2
    67   134   133    2
    68    88    87    1
    69   181   180    1
    70   133   132    1
    71   172   162   am
    72   140   141   ar
    73   177   180    1
    74   177   176    1
    75   131   132    1
    76   131   125   am
    77   156   158    1
    78   136   137   ar
    79   154   155    2
    80   154   160   am
    81    85    84    1
    82   128   127    1
    83   128   129    1
    84   127   124    1
    85   124   125    1
    86   160   161    1
    87   125   126    2
    88    87    84    1
    89    68    67    1
    90   162   163    2
    91   162   161    1
    92   141   142    1
    93   141   139   ar
    94   137   139   ar
    95    84    83    1
    96    67    64    1
    97   161   164    1
    98   129   130    1
    99    64    65    1
   100    64    63    1
   101    66    65    2
   102   164   165    1
   103    60    59    2
   104    65    69   am
   105    63    59   am
   106   166   165   ar
   107   166   168   ar
   108    59    58    1
   109   165   167   ar
   110    78    77    2
   111    74    73    1
   112    69    70    1
   113   168   170   ar
   114    28    29    1
   115    28    27    1
   116    77    76    1
   117    70    73    1
   118    70    71    1
   119    58    61    1
   120    58    57    1
   121   167   169   ar
   122    61    62    1
   123    55    54   ar
   124    20    22   ar
   125    20    18   ar
   126    29    23    1
   127    27    24    1
   128   170   169   ar
   129   170   171    1
   130    22    21   ar
   131    18    17   ar
   132    71    72    2
   133    76    79    1
   134    76    75    1
   135    79    80    1
   136    54    53    1
   137    54    56   ar
   138    53    50    1
   139    23    24    1
   140    24    25    1
   141    21    19   ar
   142    17    19   ar
   143    17    16    1
   144    44    43    2
   145    49    50    1
   146    45    46    1
   147    45    42    1
   148    80    81    1
   149    80    82    1
   150    43    42    1
   151    50    51    1
   152    16    13    1
   153    47    46    2
   154    25    26    2
   155    15    14    2
   156    46    48   am
   157    42    41    1
   158    13    14    1
   159    13    12    1
   160    36    37    1
   161    36    35    1
   162    37    38    2
   163    51    52    2
   164    39    38    1
   165    38    40    1
   166    34    35    1
   167    34    31    1
   168    30    31    1
   169    31    32    1
   170    32    33    2
