@<TRIPOS>MOLECULE
tmp/3gnwB00.pdb
 213 199 0 0 0
SMALL
GASTEIGER

@<TRIPOS>ATOM
      1  N         34.6040   57.3800   23.6690 N.3   143  GLU143     -0.1245
      2  CA        34.0940   56.2880   22.8440 C.3   143  GLU143      0.1567
      3  C         34.6130   54.9660   23.3770 C.2   143  GLU143      0.2260
      4  O         35.7570   54.8890   23.8130 O.2   143  GLU143     -0.2867
      5  CB        34.5300   56.4810   21.3910 C.3   143  GLU143      0.0388
      6  CG        34.0020   57.7710   20.7780 C.3   143  GLU143      0.1160
      7  CD        34.2870   57.8460   19.2960 C.2   143  GLU143      0.3649
      8  OE1       35.4910   57.8490   18.9040 O.co2 143  GLU143     -0.2457
      9  OE2       33.2940   57.8600   18.5350 O.co2 143  GLU143     -0.2457
     10  N         39.0700   60.6680   19.9830 N.3   155  ARG155     -0.1245
     11  CA        38.7440   61.6450   18.9340 C.3   155  ARG155      0.1563
     12  C         38.5940   63.0360   19.5720 C.2   155  ARG155      0.2260
     13  O         38.1120   63.1720   20.7090 O.2   155  ARG155     -0.2867
     14  CB        37.4310   61.3020   18.2110 C.3   155  ARG155      0.0307
     15  CG        37.5180   60.1250   17.2430 C.3   155  ARG155      0.0489
     16  CD        36.4340   60.2060   16.1260 C.3   155  ARG155      0.2205
     17  NE        35.0500   59.9270   16.5760 N.pl3 155  ARG155     -0.0865
     18  CZ        33.9700   60.6880   16.3360 C.cat 155  ARG155      0.5346
     19  NH1       34.0430   61.8130   15.6220 N.pl3 155  ARG155      0.1354
     20  NH2       32.7790   60.3190   16.7990 N.pl3 155  ARG155      0.1354
     21  N         24.3930   58.2990    1.7630 N.3   190  PHE190     -0.1241
     22  CA        23.4520   58.5630    2.8360 C.3   190  PHE190      0.1605
     23  C         21.9820   58.5960    2.4010 C.2   190  PHE190      0.2264
     24  O         21.0850   58.6300    3.2410 O.2   190  PHE190     -0.2867
     25  CB        23.8430   59.8610    3.5720 C.3   190  PHE190      0.0534
     26  CG        25.1580   59.7830    4.3190 C.ar  190  PHE190     -0.0203
     27  CD1       25.3130   58.9200    5.3870 C.ar  190  PHE190     -0.0042
     28  CD2       26.2270   60.6170    3.9820 C.ar  190  PHE190     -0.0042
     29  CE1       26.5340   58.8630    6.1040 C.ar  190  PHE190     -0.0003
     30  CE2       27.4400   60.5750    4.6810 C.ar  190  PHE190     -0.0003
     31  CZ        27.5900   59.6870    5.7570 C.ar  190  PHE190     -0.0000
     32  N         19.1970   50.6600    4.5490 N.3   194  PRO194     -0.2116
     33  CA        19.9870   49.4100    4.4470 C.3   194  PRO194      0.1372
     34  C         19.6650   48.5450    3.1990 C.2   194  PRO194      0.2244
     35  O         20.5560   48.2010    2.4480 O.2   194  PRO194     -0.2868
     36  CB        19.6400   48.6650    5.7500 C.3   194  PRO194      0.0268
     37  CG        19.3000   49.7530    6.7220 C.3   194  PRO194      0.0207
     38  CD        18.6000   50.8250    5.8870 C.3   194  PRO194      0.0892
     39  N         20.8150   50.1990    0.0510 N.3   197  ARG197     -0.1245
     40  CA        22.2700   50.2410    0.0270 C.3   197  ARG197      0.1563
     41  C         22.8500   48.9250   -0.4790 C.2   197  ARG197      0.2260
     42  O         23.7440   48.9300   -1.3000 O.2   197  ARG197     -0.2867
     43  CB        22.7970   50.5250    1.4290 C.3   197  ARG197      0.0307
     44  CG        24.1970   51.0840    1.4820 C.3   197  ARG197      0.0489
     45  CD        24.6170   51.2870    2.9390 C.3   197  ARG197      0.2205
     46  NE        25.6680   52.2970    3.1590 N.pl3 197  ARG197     -0.0865
     47  CZ        26.9640   52.1230    2.9000 C.cat 197  ARG197      0.5346
     48  NH1       27.4090   50.9590    2.4110 N.pl3 197  ARG197      0.1354
     49  NH2       27.8180   53.1150    3.1470 N.pl3 197  ARG197      0.1354
     50  N         30.1770   69.3860    8.2260 N.3   284  THR284     -0.1218
     51  CA        31.2610   68.4030    8.2310 C.3   284  THR284      0.1862
     52  C         30.9670   67.1830    7.3450 C.2   284  THR284      0.2287
     53  O         31.8000   66.8060    6.5190 O.2   284  THR284     -0.2866
     54  CB        31.6250   67.9110    9.6670 C.3   284  THR284      0.1770
     55  OG1       31.9400   69.0260   10.5110 O.3   284  THR284     -0.2211
     56  CG2       32.8220   66.9320    9.6210 C.3   284  THR284      0.0375
     57  N         32.7590   66.8830    3.8880 N.3   288  ASN288     -0.1240
     58  CA        33.6510   65.7190    3.6980 C.3   288  ASN288      0.1653
     59  C         33.2680   64.8660    2.5020 C.2   288  ASN288      0.2266
     60  O         34.1260   64.4640    1.7300 O.2   288  ASN288     -0.2867
     61  CB        33.7070   64.8600    4.9560 C.3   288  ASN288      0.1155
     62  CG        34.6150   65.4660    6.0190 C.2   288  ASN288      0.2627
     63  OD1       35.3360   66.4070    5.7490 O.2   288  ASN288     -0.2716
     64  ND2       34.5940   64.9130    7.2150 N.am  288  ASN288     -0.0877
     65  N         30.5420   58.2930    1.8050 N.3   313  ASN313     -0.1240
     66  CA        29.8910   58.6380    3.0690 C.3   313  ASN313      0.1653
     67  C         30.8970   59.4110    3.8870 C.2   313  ASN313      0.2266
     68  O         31.7570   58.7980    4.5340 O.2   313  ASN313     -0.2867
     69  CB        29.5190   57.3800    3.8500 C.3   313  ASN313      0.1155
     70  CG        28.5830   56.4720    3.0910 C.2   313  ASN313      0.2627
     71  OD1       27.3810   56.4970    3.3220 O.2   313  ASN313     -0.2716
     72  ND2       29.1390   55.6260    2.2140 N.am  313  ASN313     -0.0877
     73  N         34.1330   60.9140    4.8680 N.3   315  ASP315     -0.1225
     74  CA        35.4740   60.4450    4.5080 C.3   315  ASP315      0.1805
     75  C         35.5590   58.9910    4.0030 C.2   315  ASP315      0.2597
     76  O         36.5960   58.5750    3.4940 O.2   315  ASP315     -0.2718
     77  CB        36.4440   60.6200    5.7030 C.3   315  ASP315      0.1424
     78  CG        36.0910   59.7240    6.8990 C.2   315  ASP315      0.3668
     79  OD1       34.8780   59.5170    7.1730 O.co2 315  ASP315     -0.2456
     80  OD2       37.0360   59.2580    7.5810 O.co2 315  ASP315     -0.2456
     81  N         34.4910   58.2250    4.1430 N.am  316  ASP316     -0.1974
     82  CA        34.4980   56.8370    3.7490 C.3   316  ASP316      0.1709
     83  C         34.1910   56.6870    2.2480 C.2   316  ASP316      0.2293
     84  O         33.1920   57.2110    1.7430 O.2   316  ASP316     -0.2864
     85  CB        33.4740   56.0860    4.5850 C.3   316  ASP316      0.1436
     86  CG        33.6410   54.5890    4.5190 C.2   316  ASP316      0.3671
     87  OD1       33.2290   53.9780    3.4950 O.co2 316  ASP316     -0.2456
     88  OD2       34.1430   54.0210    5.5140 O.co2 316  ASP316     -0.2456
     89  N         32.0490   51.9120    5.7840 N.3   363  CYS363     -0.1221
     90  CA        31.4290   52.3630    7.0390 C.3   363  CYS363      0.1808
     91  C         31.2720   51.1940    8.0130 C.2   363  CYS363      0.2602
     92  O         30.1820   50.9340    8.5330 O.2   363  CYS363     -0.2717
     93  CB        30.0850   53.0440    6.7610 C.3   363  CYS363      0.0970
     94  SG        30.2370   54.6110    5.8390 S.3   363  CYS363     -0.0800
     95  N         32.3900   50.5060    8.2250 N.am  364  SER364     -0.1938
     96  CA        32.4700   49.2240    8.9700 C.3   364  SER364      0.2055
     97  C         31.7520   48.0460    8.3020 C.2   364  SER364      0.2643
     98  O         31.9580   46.9200    8.7000 O.2   364  SER364     -0.2714
     99  CB        31.9790   49.3550   10.4380 C.3   364  SER364      0.2130
    100  OG        32.5040   50.5010   11.1110 O.3   364  SER364     -0.2179
    101  N         30.9180   48.2880    7.2940 N.am  365  SER365     -0.1949
    102  CA        29.9960   47.2500    6.8040 C.3   365  SER365      0.1924
    103  C         30.4840   46.5030    5.5710 C.2   365  SER365      0.2314
    104  O         31.1600   47.0610    4.7120 O.2   365  SER365     -0.2863
    105  CB        28.6040   47.8370    6.5360 C.3   365  SER365      0.2116
    106  OG        28.5870   48.7490    5.4470 O.3   365  SER365     -0.2180
    107  N         23.8110   43.7740    4.9450 N.3   381  LEU381     -0.1245
    108  CA        25.0020   44.4160    5.4870 C.3   381  LEU381      0.1561
    109  C         25.2670   43.9620    6.9220 C.2   381  LEU381      0.2260
    110  O         24.3680   43.9490    7.7750 O.2   381  LEU381     -0.2867
    111  CB        24.8510   45.9380    5.4250 C.3   381  LEU381      0.0270
    112  CG        24.6110   46.4470    4.0010 C.3   381  LEU381      0.0019
    113  CD1       24.3790   47.9380    3.9960 C.3   381  LEU381      0.0001
    114  CD2       25.7880   46.0730    3.0850 C.3   381  LEU381      0.0001
    115  N         28.8110   43.5890    9.9210 N.3   383  ARG383     -0.1245
    116  CA        30.0930   44.1200   10.3250 C.3   383  ARG383      0.1563
    117  C         30.6480   43.2240   11.4160 C.2   383  ARG383      0.2260
    118  O         29.9310   42.3990   11.9870 O.2   383  ARG383     -0.2867
    119  CB        29.9170   45.5560   10.8580 C.3   383  ARG383      0.0307
    120  CG        28.9740   45.6470   12.0850 C.3   383  ARG383      0.0489
    121  CD        29.1560   46.9200   12.8840 C.3   383  ARG383      0.2205
    122  NE        30.5070   47.0420   13.3950 N.pl3 383  ARG383     -0.0865
    123  CZ        31.0980   48.1840   13.7320 C.cat 383  ARG383      0.5346
    124  NH1       30.4530   49.3330   13.6400 N.pl3 383  ARG383      0.1354
    125  NH2       32.3460   48.1670   14.1710 N.pl3 383  ARG383      0.1354
    126  N         30.2870   48.2060   23.1640 N.3   391  ARG391     -0.1245
    127  CA        29.4270   49.3380   23.4540 C.3   391  ARG391      0.1563
    128  C         28.1550   48.8990   24.1300 C.2   391  ARG391      0.2260
    129  O         27.7270   49.5270   25.0850 O.2   391  ARG391     -0.2867
    130  CB        29.1650   50.1540   22.1730 C.3   391  ARG391      0.0307
    131  CG        30.3930   50.9350   21.7940 C.3   391  ARG391      0.0489
    132  CD        30.3430   51.6710   20.5140 C.3   391  ARG391      0.2205
    133  NE        31.6550   52.2920   20.3200 N.pl3 391  ARG391     -0.0865
    134  CZ        32.0280   52.9830   19.2460 C.cat 391  ARG391      0.5346
    135  NH1       31.1820   53.1900   18.2450 N.pl3 391  ARG391      0.1354
    136  NH2       33.2480   53.5010   19.1960 N.pl3 391  ARG391      0.1354
    137  N         24.0070   53.0750   21.2940 N.3   404  SER404     -0.1217
    138  CA        24.5640   52.4520   20.0940 C.3   404  SER404      0.1889
    139  C         23.8590   51.1290   19.8140 C.2   404  SER404      0.2288
    140  O         23.5660   50.8240   18.6500 O.2   404  SER404     -0.2866
    141  CB        26.0730   52.2350   20.2460 C.3   404  SER404      0.2089
    142  OG        26.3910   51.2020   21.1750 O.3   404  SER404     -0.2183
    143  N         20.7620   51.6370   17.8460 N.3   407  GLY407     -0.1210
    144  CA        21.1690   51.9660   16.4890 C.3   407  GLY407      0.1956
    145  C         21.6160   50.7320   15.7070 C.2   407  GLY407      0.2611
    146  O         21.3110   50.5870   14.5140 O.2   407  GLY407     -0.2717
    147  N         22.3290   49.8380   16.3940 N.am  408  ASN408     -0.1974
    148  CA        22.8770   48.6510   15.7430 C.3   408  ASN408      0.1688
    149  C         21.7940   47.6120   15.4480 C.2   408  ASN408      0.2292
    150  O         21.8290   46.9460   14.4040 O.2   408  ASN408     -0.2864
    151  CB        24.0280   48.0410   16.5510 C.3   408  ASN408      0.1181
    152  CG        25.3600   48.6950   16.2570 C.2   408  ASN408      0.2629
    153  OD1       25.7110   48.9270   15.0980 O.2   408  ASN408     -0.2716
    154  ND2       26.1170   48.9940   17.3080 N.am  408  ASN408     -0.0877
    155  N         20.0750   49.2380   12.3640 N.3   411  MET411     -0.1230
    156  CA        20.9150   49.2050   11.1540 C.3   411  MET411      0.1702
    157  C         21.3700   47.8000   10.7370 C.2   411  MET411      0.2592
    158  O         21.5860   47.5450    9.5430 O.2   411  MET411     -0.2718
    159  CB        22.1080   50.1480   11.3110 C.3   411  MET411      0.0401
    160  CG        21.6820   51.6290   11.4110 C.3   411  MET411      0.0596
    161  SD        20.9890   52.3350    9.8650 S.3   411  MET411     -0.1393
    162  CE        22.5220   52.7150    9.0050 C.3   411  MET411      0.0692
    163  N         21.5080   46.9050   11.7190 N.am  412  TYR412     -0.1976
    164  CA        22.0350   45.5540   11.4860 C.3   412  TYR412      0.1639
    165  C         21.0440   44.4500   11.9300 C.2   412  TYR412      0.2290
    166  O         21.4450   43.3040   12.2080 O.2   412  TYR412     -0.2864
    167  CB        23.4030   45.4050   12.1690 C.3   412  TYR412      0.0560
    168  CG        24.5260   46.2640   11.5820 C.ar  412  TYR412     -0.0198
    169  CD1       25.1730   45.8900   10.4020 C.ar  412  TYR412     -0.0009
    170  CD2       24.9670   47.4160   12.2240 C.ar  412  TYR412     -0.0009
    171  CE1       26.2010   46.6630    9.8600 C.ar  412  TYR412      0.0417
    172  CE2       26.0050   48.1750   11.7040 C.ar  412  TYR412      0.0417
    173  CZ        26.6220   47.7960   10.5130 C.ar  412  TYR412      0.1957
    174  OH        27.6590   48.5500    9.9810 O.3   412  TYR412     -0.2866
    175  N         21.1910   56.9030   17.0870 N.3   443  GLN443     -0.1231
    176  CA        21.6110   57.6140   15.9100 C.3   443  GLN443      0.1698
    177  C         21.4620   56.7580   14.6660 C.2   443  GLN443      0.2592
    178  O         21.6570   55.5210   14.6920 O.2   443  GLN443     -0.2718
    179  CB        23.0500   58.0150   16.0670 C.3   443  GLN443      0.0381
    180  CG        23.2210   59.0580   17.1040 C.3   443  GLN443      0.0905
    181  CD        24.6610   59.4950   17.2170 C.2   443  GLN443      0.2608
    182  OE1       25.5810   58.6640   17.3600 O.2   443  GLN443     -0.2717
    183  NE2       24.8740   60.8030   17.1400 N.am  443  GLN443     -0.0878
    184  N         21.0920   57.4340   13.5860 N.am  444  ILE444     -0.1966
    185  CA        21.0150   56.8340   12.2720 C.3   444  ILE444      0.1727
    186  C         21.7280   57.8050   11.3760 C.2   444  ILE444      0.2616
    187  O         21.3550   58.9780   11.3250 O.2   444  ILE444     -0.2715
    188  CB        19.5660   56.5840   11.8280 C.3   444  ILE444      0.0290
    189  CG1       18.9760   55.4430   12.6610 C.3   444  ILE444      0.0022
    190  CG2       19.4970   56.1850   10.3490 C.3   444  ILE444      0.0023
    191  CD1       17.6270   55.7200   13.1430 C.3   444  ILE444      0.0001
    192  N         22.7870   57.3250   10.7280 N.am  445  TYR445     -0.1960
    193  CA        23.5830   58.1390    9.8170 C.3   445  TYR445      0.1771
    194  C         24.0600   59.4650   10.4800 C.2   445  TYR445      0.2620
    195  O         24.1020   60.5230    9.8410 O.2   445  TYR445     -0.2715
    196  CB        22.8000   58.3860    8.5050 C.3   445  TYR445      0.0574
    197  CG        22.8010   57.2550    7.4690 C.ar  445  TYR445     -0.0198
    198  CD1       23.5990   56.1070    7.6140 C.ar  445  TYR445     -0.0009
    199  CD2       22.0520   57.3770    6.3020 C.ar  445  TYR445     -0.0009
    200  CE1       23.6120   55.0970    6.6370 C.ar  445  TYR445      0.0417
    201  CE2       22.0650   56.3740    5.3250 C.ar  445  TYR445      0.0417
    202  CZ        22.8580   55.2380    5.4920 C.ar  445  TYR445      0.1957
    203  OH        22.8840   54.2650    4.5110 O.3   445  TYR445     -0.2866
    204  N         24.4170   59.3800   11.7670 N.am  446  GLY446     -0.1954
    205  CA        24.9160   60.5230   12.5180 C.3   446  GLY446      0.1869
    206  C         23.8990   61.4430   13.1820 C.2   446  GLY446      0.2309
    207  O         24.2770   62.2700   14.0110 O.2   446  GLY446     -0.2863
    208  N         26.6070   63.4500   10.9230 N.3   553  SER553     -0.1217
    209  CA        27.5130   63.1720   12.0290 C.3   553  SER553      0.1889
    210  C         28.2490   64.4720   12.3490 C.2   553  SER553      0.2288
    211  O         28.7580   65.1550   11.4280 O.2   553  SER553     -0.2866
    212  CB        28.4950   62.0400   11.6840 C.3   553  SER553      0.2089
    213  OG        29.4410   61.8210   12.7360 O.3   553  SER553     -0.2183
@<TRIPOS>BOND
     1    42    41    2
     2    41    40    1
     3    40    39    1
     4    40    43    1
     5    43    44    1
     6    44    45    1
     7    60    59    2
     8    84    83    2
     9    21    22    1
    10    65    66    1
    11    72    70   am
    12    83    82    1
    13    23    22    1
    14    23    24    2
    15    48    47    1
    16    35    34    2
    17    59    58    1
    18    22    25    1
    19    47    49    1
    20    47    46    2
    21    45    46    1
    22    66    69    1
    23    66    67    1
    24   114   112    1
    25    70    71    2
    26    70    69    1
    27    34    33    1
    28    76    75    2
    29    87    86   ar
    30    25    26    1
    31    58    57    1
    32    58    61    1
    33    82    81    1
    34    82    85    1
    35    67    68    2
    36    28    26   ar
    37    28    30   ar
    38   113   112    1
    39   112   111    1
    40    75    81   am
    41    75    74    1
    42    26    27   ar
    43    33    32    1
    44    33    36    1
    45    74    73    1
    46    74    77    1
    47   203   202    1
    48    86    85    1
    49    86    88   ar
    50    32    38    1
    51    30    31   ar
    52   104   103    2
    53   107   108    1
    54    61    62    1
    55   201   202   ar
    56   201   199   ar
    57    27    29   ar
    58   111   108    1
    59   106   105    1
    60   108   109    1
    61   202   200   ar
    62   103   102    1
    63    77    78    1
    64    63    62    2
    65    36    37    1
    66    31    29   ar
    67    89    90    1
    68    94    93    1
    69    38    37    1
    70    62    64   am
    71   199   197   ar
    72    53    52    2
    73   105   102    1
    74   200   198   ar
    75    93    90    1
    76   102   101    1
    77    78    79   ar
    78    78    80   ar
    79   109   110    2
    80    90    91    1
    81   101    97   am
    82    52    51    1
    83   197   198   ar
    84   197   196    1
    85    91    95   am
    86    91    92    2
    87    95    96    1
    88    50    51    1
    89    51    54    1
    90    97    98    2
    91    97    96    1
    92   196   193    1
    93    96    99    1
    94   162   161    1
    95   158   157    2
    96    56    54    1
    97    54    55    1
    98   193   194    1
    99   193   192    1
   100   195   194    2
   101   171   169   ar
   102   171   173   ar
   103   161   160    1
   104   115   116    1
   105   174   173    1
   106   116   119    1
   107   116   117    1
   108   190   188    1
   109   169   168   ar
   110    99   100    1
   111   194   204   am
   112   173   172   ar
   113   192   186   am
   114   157   156    1
   115   157   163   am
   116   119   120    1
   117   208   209    1
   118   156   159    1
   119   156   155    1
   120   159   160    1
   121   187   186    2
   122   186   185    1
   123   117   118    2
   124   211   210    2
   125   164   163    1
   126   164   165    1
   127   164   167    1
   128   168   167    1
   129   168   170   ar
   130   212   209    1
   131   212   213    1
   132   172   170   ar
   133   204   205    1
   134   188   185    1
   135   188   189    1
   136   165   166    2
   137   209   210    1
   138   120   121    1
   139   185   184    1
   140   205   206    1
   141   189   191    1
   142   121   122    1
   143   206   207    2
   144   122   123    2
   145   184   177   am
   146   124   123    1
   147   123   125    1
   148   150   149    2
   149   146   145    2
   150   177   178    2
   151   177   176    1
   152   153   152    2
   153   149   148    1
   154    19    18    1
   155   145   147   am
   156   145   144    1
   157   148   147    1
   158   148   151    1
   159   176   179    1
   160   176   175    1
   161   179   180    1
   162    16    17    1
   163    16    15    1
   164   152   151    1
   165   152   154   am
   166    18    17    2
   167    18    20    1
   168   144   143    1
   169   180   181    1
   170   183   181   am
   171   181   182    2
   172    15    14    1
   173    14    11    1
   174   135   134    1
   175     9     7   ar
   176   140   139    2
   177     8     7   ar
   178    11    12    1
   179    11    10    1
   180   136   134    1
   181   134   133    2
   182     7     6    1
   183    12    13    2
   184   139   138    1
   185   138   141    1
   186   138   137    1
   187   141   142    1
   188   133   132    1
   189   132   131    1
   190     6     5    1
   191     5     2    1
   192   131   130    1
   193   130   127    1
   194     2     3    1
   195     2     1    1
   196   126   127    1
   197     3     4    2
   198   127   128    1
   199   128   129    2
