@<TRIPOS>MOLECULE
tmp/3go4A00.pdb
 164 157 0 0 0
SMALL
GASTEIGER

@<TRIPOS>ATOM
      1  N        -25.4490   17.4230   18.1470 N.3     9  SER9       -0.1202
      2  CA       -24.0890   17.2500   17.6220 C.3     9  SER9        0.2020
      3  C        -22.9640   17.6770   18.5380 C.2     9  SER9        0.2618
      4  O        -21.9430   16.9780   18.6120 O.2     9  SER9       -0.2717
      5  CB       -23.9510   17.9570   16.2680 C.3     9  SER9        0.2103
      6  OG       -24.0560   19.3710   16.3860 O.3     9  SER9       -0.2182
      7  N        -23.1340   18.7990   19.2390 N.am   10  ALA10      -0.1979
      8  CA       -22.0990   19.2920   20.1630 C.3    10  ALA10       0.1597
      9  C        -21.8030   18.3340   21.3110 C.2    10  ALA10       0.2287
     10  O        -20.6700   18.1950   21.7500 O.2    10  ALA10      -0.2864
     11  CB       -22.4750   20.6790   20.7370 C.3    10  ALA10       0.0319
     12  N        -20.3080   14.9150   20.0880 N.3    13  TYR13      -0.1241
     13  CA       -18.8670   15.3160   19.9410 C.3    13  TYR13       0.1605
     14  C        -18.1520   15.3530   21.2800 C.2    13  TYR13       0.2264
     15  O        -17.1030   14.7480   21.4390 O.2    13  TYR13      -0.2867
     16  CB       -18.7920   16.6870   19.2240 C.3    13  TYR13       0.0534
     17  CG       -17.4130   17.2790   18.9400 C.ar   13  TYR13      -0.0201
     18  CD1      -16.4120   16.5310   18.3500 C.ar   13  TYR13      -0.0009
     19  CD2      -17.1420   18.6350   19.1740 C.ar   13  TYR13      -0.0009
     20  CE1      -15.1600   17.0800   18.0510 C.ar   13  TYR13       0.0417
     21  CE2      -15.8680   19.1870   18.8800 C.ar   13  TYR13       0.0417
     22  CZ       -14.8950   18.4050   18.3050 C.ar   13  TYR13       0.1957
     23  OH       -13.6550   18.9140   17.9650 O.3    13  TYR13      -0.2866
     24  N         -9.7890   16.2610   14.7140 N.3    45  ASN45      -0.1225
     25  CA       -10.4300   17.5190   14.3580 C.3    45  ASN45       0.1785
     26  C        -10.1460   18.5770   15.4450 C.2    45  ASN45       0.2597
     27  O         -9.6340   19.6670   15.1700 O.2    45  ASN45      -0.2718
     28  CB       -11.9590   17.3440   14.2150 C.3    45  ASN45       0.1169
     29  CG       -12.6730   18.6620   13.8910 C.2    45  ASN45       0.2627
     30  OD1      -12.6570   19.1490   12.7430 O.2    45  ASN45      -0.2716
     31  ND2      -13.2600   19.2840   14.9140 N.am   45  ASN45      -0.0877
     32  N        -10.4190   18.2260   16.6930 N.am   46  ARG46      -0.1979
     33  CA       -10.1690   19.1520   17.7830 C.3    46  ARG46       0.1597
     34  C         -8.6780   19.5270   17.8370 C.2    46  ARG46       0.2287
     35  O         -8.3780   20.6690   18.0770 O.2    46  ARG46      -0.2864
     36  CB       -10.6280   18.5980   19.1250 C.3    46  ARG46       0.0334
     37  CG       -10.5800   19.6280   20.3010 C.3    46  ARG46       0.0492
     38  CD       -11.5320   20.7560   20.0920 C.3    46  ARG46       0.2205
     39  NE       -11.5430   21.7360   21.2080 N.pl3  46  ARG46      -0.0865
     40  CZ       -12.4740   22.6640   21.3600 C.cat  46  ARG46       0.5346
     41  NH1      -13.4850   22.7440   20.5100 N.pl3  46  ARG46       0.1354
     42  NH2      -12.4370   23.5010   22.3880 N.pl3  46  ARG46       0.1354
     43  N        -15.6970   32.6770   15.4570 N.3    66  ASP66      -0.1225
     44  CA       -15.8120   31.1980   15.4580 C.3    66  ASP66       0.1805
     45  C        -17.2550   30.7760   15.3850 C.2    66  ASP66       0.2598
     46  O        -18.0090   31.0580   16.2990 O.2    66  ASP66      -0.2718
     47  CB       -15.2030   30.6900   16.7330 C.3    66  ASP66       0.1424
     48  CG       -15.0780   29.1780   16.8110 C.2    66  ASP66       0.3668
     49  OD1      -14.5970   28.4940   15.8700 O.co2  66  ASP66      -0.2456
     50  OD2      -15.3570   28.6890   17.9080 O.co2  66  ASP66      -0.2456
     51  N        -17.6090   30.1220   14.2820 N.am   67  ILE67      -0.1966
     52  CA       -18.9830   29.7140   14.0110 C.3    67  ILE67       0.1727
     53  C        -19.1020   28.2110   14.2460 C.2    67  ILE67       0.2617
     54  O        -18.4190   27.3950   13.5950 O.2    67  ILE67      -0.2715
     55  CB       -19.4310   30.1050   12.5750 C.3    67  ILE67       0.0290
     56  CG1      -19.0610   31.5430   12.2350 C.3    67  ILE67       0.0022
     57  CG2      -20.9810   29.8950   12.3630 C.3    67  ILE67       0.0023
     58  CD1      -19.5820   32.6120   13.1850 C.3    67  ILE67       0.0001
     59  N        -20.0120   27.8540   15.1530 N.am   68  GLY68      -0.1940
     60  CA       -20.2280   26.4750   15.5770 C.3    68  GLY68       0.2014
     61  C        -19.1650   26.1700   16.6080 C.2    68  GLY68       0.2640
     62  O        -18.4060   25.1940   16.4710 O.2    68  GLY68      -0.2714
     63  N        -19.1210   27.0130   17.6360 N.am   69  THR69      -0.1936
     64  CA       -18.1190   26.8970   18.6720 C.3    69  THR69       0.2028
     65  C        -18.1350   25.5780   19.4070 C.2    69  THR69       0.2642
     66  O        -17.0880   25.0690   19.7580 O.2    69  THR69      -0.2714
     67  CB       -18.2250   28.0570   19.7010 C.3    69  THR69       0.1808
     68  OG1      -17.9630   29.2870   19.0090 O.3    69  THR69      -0.2208
     69  CG2      -17.1750   27.9040   20.8510 C.3    69  THR69       0.0379
     70  N        -19.3010   24.9930   19.6260 N.am   70  GLY70      -0.1954
     71  CA       -19.3070   23.7680   20.4390 C.3    70  GLY70       0.1869
     72  C        -19.0870   23.9870   21.9240 C.2    70  GLY70       0.2309
     73  O        -18.8650   25.1190   22.4180 O.2    70  GLY70      -0.2863
     74  N        -19.6400   31.6160   18.6420 N.3    93  VAL93      -0.1231
     75  CA       -21.0410   31.5520   18.1980 C.3    93  VAL93       0.1692
     76  C        -21.5690   30.1140   18.0820 C.2    93  VAL93       0.2592
     77  O        -20.8980   29.2470   17.5050 O.2    93  VAL93      -0.2718
     78  CB       -21.1290   32.1970   16.7920 C.3    93  VAL93       0.0266
     79  CG1      -22.5740   32.2950   16.3370 C.3    93  VAL93       0.0020
     80  CG2      -20.3880   33.6100   16.7330 C.3    93  VAL93       0.0020
     81  N        -22.7750   29.8300   18.6050 N.am   94  ASP94      -0.1960
     82  CA       -23.3230   28.4920   18.4700 C.3    94  ASP94       0.1840
     83  C        -24.8200   28.6230   18.5730 C.2    94  ASP94       0.2622
     84  O        -25.3090   29.6340   19.0900 O.2    94  ASP94      -0.2715
     85  CB       -22.7550   27.5290   19.5370 C.3    94  ASP94       0.1450
     86  CG       -22.6910   26.0690   19.0570 C.2    94  ASP94       0.3671
     87  OD1      -23.7150   25.4130   18.9890 O.co2  94  ASP94      -0.2456
     88  OD2      -21.5840   25.5400   18.7670 O.co2  94  ASP94      -0.2456
     89  N        -25.5460   27.6600   18.0110 N.am   95  ASN95      -0.1958
     90  CA       -27.0020   27.6390   18.1620 C.3    95  ASN95       0.1819
     91  C        -27.5050   26.5280   19.0980 C.2    95  ASN95       0.2621
     92  O        -28.7010   26.3220   19.2050 O.2    95  ASN95      -0.2715
     93  CB       -27.7190   27.5420   16.8150 C.3    95  ASN95       0.1195
     94  CG       -27.5780   26.1730   16.1590 C.2    95  ASN95       0.2630
     95  OD1      -26.7960   25.3290   16.5910 O.2    95  ASN95      -0.2716
     96  ND2      -28.3500   25.9460   15.1100 N.am   95  ASN95      -0.0877
     97  N        -26.6160   25.8100   19.7740 N.am   96  ASP96      -0.1971
     98  CA       -27.0820   24.7910   20.7230 C.3    96  ASP96       0.1709
     99  C        -27.2560   25.4700   22.0920 C.2    96  ASP96       0.2293
    100  O        -26.2960   25.9290   22.6270 O.2    96  ASP96      -0.2864
    101  CB       -26.0900   23.6250   20.8050 C.3    96  ASP96       0.1436
    102  CG       -26.5990   22.4780   21.6850 C.2    96  ASP96       0.3671
    103  OD1      -27.3820   22.7710   22.6330 O.co2  96  ASP96      -0.2456
    104  OD2      -26.2060   21.2910   21.4280 O.co2  96  ASP96      -0.2456
    105  N        -26.6840   32.1140   18.0330 N.3   120  ALA120     -0.1231
    106  CA       -27.2000   32.4910   16.7370 C.3   120  ALA120      0.1694
    107  C        -26.9820   31.3800   15.7200 C.2   120  ALA120      0.2592
    108  O        -26.1300   30.5060   15.9060 O.2   120  ALA120     -0.2718
    109  CB       -26.5080   33.7720   16.2600 C.3   120  ALA120      0.0304
    110  N        -27.7530   31.4470   14.6380 N.am  121  ASP121     -0.1974
    111  CA       -27.7380   30.4570   13.5620 C.3   121  ASP121      0.1709
    112  C        -26.8960   30.9660   12.3830 C.2   121  ASP121      0.2293
    113  O        -27.1360   32.0760   11.8730 O.2   121  ASP121     -0.2864
    114  CB       -29.2040   30.2140   13.1530 C.3   121  ASP121      0.1436
    115  CG       -29.3790   29.0810   12.1460 C.2   121  ASP121      0.3671
    116  OD1      -28.4090   28.6880   11.4700 O.co2 121  ASP121     -0.2456
    117  OD2      -30.5400   28.5910   12.0090 O.co2 121  ASP121     -0.2456
    118  N        -27.0010   30.2870    9.4060 N.3   122  LEU122     -0.1245
    119  CA       -27.8690   30.5600    8.2740 C.3   122  LEU122      0.1561
    120  C        -28.4470   31.9930    8.3320 C.2   122  LEU122      0.2260
    121  O        -29.1770   32.4030    7.4480 O.2   122  LEU122     -0.2867
    122  CB       -28.9720   29.4950    8.1440 C.3   122  LEU122      0.0270
    123  CG       -28.5110   28.2270    7.4070 C.3   122  LEU122      0.0019
    124  CD1      -27.2550   27.5980    8.0320 C.3   122  LEU122      0.0001
    125  CD2      -29.6150   27.2130    7.3240 C.3   122  LEU122      0.0001
    126  N        -15.3820   25.4020   11.8710 N.3   148  ILE148     -0.1231
    127  CA       -14.8060   24.0950   12.0650 C.3   148  ILE148      0.1692
    128  C        -15.7760   23.0320   12.4860 C.2   148  ILE148      0.2592
    129  O        -16.4340   23.1540   13.5110 O.2   148  ILE148     -0.2718
    130  CB       -13.6410   24.1970   13.0890 C.3   148  ILE148      0.0266
    131  CG1      -12.7240   25.3720   12.6770 C.3   148  ILE148      0.0019
    132  CG2      -12.8690   22.8220   13.2570 C.3   148  ILE148      0.0020
    133  CD1      -11.4100   25.5460   13.4800 C.3   148  ILE148      0.0001
    134  N        -15.8230   21.9660   11.6850 N.am  149  ALA149     -0.1966
    135  CA       -16.6270   20.7850   11.9840 C.3   149  ALA149      0.1728
    136  C        -18.0690   21.1410   12.0550 C.2   149  ALA149      0.2616
    137  O        -18.7670   20.6080   12.9260 O.2   149  ALA149     -0.2715
    138  CB       -16.2780   20.1820   13.2900 C.3   149  ALA149      0.0334
    139  N        -18.4780   22.0860   11.2300 N.am  150  ILE150     -0.1977
    140  CA       -19.9030   22.4880   11.2160 C.3   150  ILE150      0.1596
    141  C        -20.5440   22.4290    9.8540 C.2   150  ILE150      0.2287
    142  O        -21.7560   22.0730    9.7540 O.2   150  ILE150     -0.2864
    143  CB       -20.1040   23.8960   11.8460 C.3   150  ILE150      0.0276
    144  CG1      -21.5670   24.3770   11.6690 C.3   150  ILE150      0.0022
    145  CG2      -19.2730   24.9130   11.1620 C.3   150  ILE150      0.0022
    146  CD1      -21.9030   25.6150   12.4270 C.3   150  ILE150      0.0001
    147  N        -23.0720   19.8740    8.4710 N.3   153  PHE153     -0.1227
    148  CA       -24.5110   19.9100    8.8620 C.3   153  PHE153      0.1736
    149  C        -25.3230   20.8890    8.0160 C.2   153  PHE153      0.2595
    150  O        -26.5410   21.1040    8.2800 O.2   153  PHE153     -0.2718
    151  CB       -24.6720   20.2710   10.3340 C.3   153  PHE153      0.0547
    152  CG       -24.0820   19.2680   11.2700 C.ar  153  PHE153     -0.0202
    153  CD1      -24.6820   18.0420   11.4650 C.ar  153  PHE153     -0.0042
    154  CD2      -22.9260   19.5520   11.9700 C.ar  153  PHE153     -0.0042
    155  CE1      -24.1460   17.1050   12.3530 C.ar  153  PHE153     -0.0003
    156  CE2      -22.3970   18.6240   12.8540 C.ar  153  PHE153     -0.0003
    157  CZ       -23.0030   17.4000   13.0220 C.ar  153  PHE153     -0.0000
    158  N        -24.6830   21.4680    6.9930 N.am  154  VAL154     -0.1980
    159  CA       -25.3270   22.4540    6.1280 C.3   154  VAL154      0.1595
    160  C        -25.4700   21.7950    4.7620 C.2   154  VAL154      0.2287
    161  O        -24.4850   21.4310    4.1070 O.2   154  VAL154     -0.2864
    162  CB       -24.5190   23.7870    5.9990 C.3   154  VAL154      0.0276
    163  CG1      -25.3440   24.8080    5.1680 C.3   154  VAL154      0.0022
    164  CG2      -24.1660   24.3660    7.3740 C.3   154  VAL154      0.0022
@<TRIPOS>BOND
     1   161   160    2
     2   160   159    1
     3   163   162    1
     4   162   159    1
     5   162   164    1
     6   159   158    1
     7   158   149   am
     8   125   123    1
     9   123   124    1
    10   123   122    1
    11   121   120    2
    12   149   150    2
    13   149   148    1
    14   122   119    1
    15   119   120    1
    16   119   118    1
    17   147   148    1
    18   148   151    1
    19   142   141    2
    20   141   140    1
    21   151   152    1
    22   145   143    1
    23   140   139    1
    24   140   143    1
    25   139   136   am
    26   152   153   ar
    27   152   154   ar
    28   153   155   ar
    29   116   115   ar
    30   144   143    1
    31   144   146    1
    32   134   135    1
    33   134   128   am
    34   126   127    1
    35   113   112    2
    36   154   156   ar
    37   135   136    1
    38   135   138    1
    39   117   115   ar
    40   136   137    2
    41   127   128    1
    42   127   130    1
    43   115   114    1
    44    56    55    1
    45    56    58    1
    46   155   157   ar
    47    57    55    1
    48   112   111    1
    49   128   129    2
    50    55    52    1
    51   131   130    1
    52   131   133    1
    53    30    29    2
    54   156   157   ar
    55   130   132    1
    56   114   111    1
    57   111   110    1
    58    54    53    2
    59    29    28    1
    60    29    31   am
    61    52    53    1
    62    52    51    1
    63    28    25    1
    64    53    59   am
    65    51    45   am
    66    25    24    1
    67    25    26    1
    68   110   107   am
    69    96    94   am
    70    59    60    1
    71    27    26    2
    72    45    44    1
    73    45    46    2
    74    26    32   am
    75    43    44    1
    76    44    47    1
    77    60    61    1
    78   107   108    2
    79   107   106    1
    80    49    48   ar
    81    94    95    2
    82    94    93    1
    83   109   106    1
    84     5     6    1
    85     5     2    1
    86    79    78    1
    87    62    61    2
    88    61    63   am
    89    32    33    1
    90    47    48    1
    91    80    78    1
    92   106   105    1
    93    78    75    1
    94    48    50   ar
    95    93    90    1
    96    77    76    2
    97     2     1    1
    98     2     3    1
    99    63    64    1
   100    33    34    1
   101    33    36    1
   102    34    35    2
   103    23    22    1
   104    89    90    1
   105    89    83   am
   106    20    22   ar
   107    20    18   ar
   108    76    75    1
   109    76    81   am
   110    90    91    1
   111    75    74    1
   112    22    21   ar
   113    18    17   ar
   114    82    83    1
   115    82    81    1
   116    82    85    1
   117     3     4    2
   118     3     7   am
   119    83    84    2
   120    64    65    1
   121    64    67    1
   122    88    86   ar
   123    21    19   ar
   124    17    19   ar
   125    17    16    1
   126    87    86   ar
   127    68    67    1
   128    86    85    1
   129    91    92    2
   130    91    97   am
   131    36    37    1
   132    16    13    1
   133     7     8    1
   134    65    70   am
   135    65    66    2
   136    70    71    1
   137    67    69    1
   138    97    98    1
   139    13    12    1
   140    13    14    1
   141    38    37    1
   142    38    39    1
   143     8    11    1
   144     8     9    1
   145    71    72    1
   146    41    40    1
   147    98   101    1
   148    98    99    1
   149   101   102    1
   150    39    40    2
   151    14    15    2
   152     9    10    2
   153    40    42    1
   154   104   102   ar
   155   102   103   ar
   156    72    73    2
   157    99   100    2
