@<TRIPOS>MOLECULE
tmp/3go6B00.pdb
 129 121 0 0 0
SMALL
GASTEIGER

@<TRIPOS>ATOM
      1  N        -15.3610   -8.5220   31.5310 N.3   181  ASN181     -0.1240
      2  CA       -15.6330   -7.2820   32.2710 C.3   181  ASN181      0.1653
      3  C        -16.9910   -7.4300   32.9810 C.2   181  ASN181      0.2266
      4  O        -17.6510   -8.4680   32.8460 O.2   181  ASN181     -0.2867
      5  CB       -15.4830   -6.0140   31.3790 C.3   181  ASN181      0.1155
      6  CG       -16.5680   -5.8700   30.3370 C.2   181  ASN181      0.2627
      7  OD1      -17.6600   -6.3870   30.4860 O.2   181  ASN181     -0.2716
      8  ND2      -16.2640   -5.1350   29.2640 N.am  181  ASN181     -0.0877
      9  N        -12.5600   -8.1080   34.9960 N.3   198  THR198     -0.1218
     10  CA       -11.7270   -6.9280   34.8550 C.3   198  THR198      0.1862
     11  C        -12.5270   -5.6850   35.2510 C.2   198  THR198      0.2287
     12  O        -13.7220   -5.5900   34.9720 O.2   198  THR198     -0.2866
     13  CB       -11.1830   -6.7910   33.4310 C.3   198  THR198      0.1770
     14  OG1      -12.2820   -6.7210   32.5220 O.3   198  THR198     -0.2211
     15  CG2      -10.2950   -8.0000   33.0890 C.3   198  THR198      0.0375
     16  N        -11.5240   -2.1620   34.6770 N.3   200  GLY200     -0.1210
     17  CA       -10.8600   -0.9690   34.1370 C.3   200  GLY200      0.1956
     18  C         -9.7380   -0.4970   35.0380 C.2   200  GLY200      0.2611
     19  O         -8.8600   -1.2790   35.4020 O.2   200  GLY200     -0.2717
     20  N         -9.7960    0.7770   35.4370 N.am  201  VAL201     -0.1979
     21  CA        -8.7720    1.3950   36.3000 C.3   201  VAL201      0.1595
     22  C         -8.4650    0.6530   37.5950 C.2   201  VAL201      0.2287
     23  O         -7.3210    0.6690   38.0570 O.2   201  VAL201     -0.2864
     24  CB        -9.1090    2.8850   36.6560 C.3   201  VAL201      0.0276
     25  CG1       -9.2950    3.6880   35.4000 C.3   201  VAL201      0.0022
     26  CG2      -10.3550    2.9870   37.5460 C.3   201  VAL201      0.0022
     27  N         -8.2500   -2.4960   38.1380 N.3   203  GLY203     -0.1225
     28  CA        -7.5910   -3.7820   37.9550 C.3   203  GLY203      0.1811
     29  C         -8.5880   -4.8990   37.6840 C.2   203  GLY203      0.2280
     30  O         -9.2700   -4.8960   36.6610 O.2   203  GLY203     -0.2866
     31  N         -4.6010   -2.6730   39.9210 N.3   217  ALA217     -0.1231
     32  CA        -3.6930   -2.3350   38.8320 C.3   217  ALA217      0.1679
     33  C         -2.7950   -1.1650   39.2620 C.2   217  ALA217      0.2434
     34  O         -3.2290   -0.3170   40.0610 O.2   217  ALA217     -0.2733
     35  CB        -4.4770   -1.9530   37.5950 C.3   217  ALA217      0.0304
     36  N         -1.5500   -1.1100   38.7300 N.am  218  PRO218     -0.2718
     37  CA        -0.6970    0.0620   38.9490 C.3   218  PRO218      0.1535
     38  C         -1.3920    1.3400   38.5010 C.2   218  PRO218      0.2599
     39  O         -2.1500    1.3350   37.5220 O.2   218  PRO218     -0.2715
     40  CB         0.5160   -0.2110   38.0540 C.3   218  PRO218      0.0310
     41  CG         0.5680   -1.6860   37.9430 C.3   218  PRO218      0.0237
     42  CD        -0.8630   -2.1370   37.9220 C.3   218  PRO218      0.0939
     43  N         -1.1570    2.4260   39.2300 N.am  219  THR219     -0.1937
     44  CA        -1.7130    3.7130   38.8490 C.3   219  THR219      0.2028
     45  C         -0.8990    4.2470   37.6730 C.2   219  THR219      0.2642
     46  O          0.3370    4.2270   37.7030 O.2   219  THR219     -0.2714
     47  CB        -1.7340    4.7090   40.0350 C.3   219  THR219      0.1808
     48  OG1       -2.1920    4.0270   41.2130 O.3   219  THR219     -0.2208
     49  CG2       -2.6760    5.8750   39.7400 C.3   219  THR219      0.0379
     50  N         -1.6110    4.6790   36.6310 N.am  220  VAL220     -0.1977
     51  CA        -1.0160    5.2140   35.4080 C.3   220  VAL220      0.1596
     52  C         -1.8880    6.3450   34.8870 C.2   220  VAL220      0.2287
     53  O         -3.0330    6.5040   35.3170 O.2   220  VAL220     -0.2864
     54  CB        -0.9110    4.1480   34.2670 C.3   220  VAL220      0.0276
     55  CG1        0.0920    3.0390   34.6160 C.3   220  VAL220      0.0022
     56  CG2       -2.2890    3.5850   33.9040 C.3   220  VAL220      0.0022
     57  N         -3.6650    7.1660   31.6090 N.3   222  PRO222     -0.2116
     58  CA        -4.0690    6.6370   30.3060 C.3   222  PRO222      0.1372
     59  C         -3.9300    7.6240   29.1600 C.2   222  PRO222      0.2244
     60  O         -4.1060    8.8430   29.3350 O.2   222  PRO222     -0.2868
     61  CB        -5.5450    6.2890   30.5100 C.3   222  PRO222      0.0268
     62  CG        -5.6550    6.0200   31.9610 C.3   222  PRO222      0.0207
     63  CD        -4.7530    7.0390   32.5960 C.3   222  PRO222      0.0892
     64  N         -7.2050    3.5190   26.3080 N.3   225  THR225     -0.1203
     65  CA        -7.5030    2.2590   26.9880 C.3   225  THR225      0.1994
     66  C         -7.9270    1.1600   26.0160 C.2   225  THR225      0.2618
     67  O         -8.0650   -0.0010   26.4130 O.2   225  THR225     -0.2717
     68  CB        -8.5980    2.4150   28.0730 C.3   225  THR225      0.1784
     69  OG1       -9.8690    2.6340   27.4430 O.3   225  THR225     -0.2211
     70  CG2       -8.2750    3.5740   29.0150 C.3   225  THR225      0.0376
     71  N         -8.1350    1.5120   24.7490 N.am  226  ALA226     -0.1965
     72  CA        -8.4770    0.5030   23.7530 C.3   226  ALA226      0.1728
     73  C         -7.3440   -0.5090   23.6420 C.2   226  ALA226      0.2617
     74  O         -6.1520   -0.1450   23.6770 O.2   226  ALA226     -0.2715
     75  CB        -8.7860    1.1320   22.4030 C.3   226  ALA226      0.0334
     76  N         -7.7250   -1.7830   23.5630 N.am  227  GLY227     -0.1940
     77  CA        -6.7690   -2.8760   23.4370 C.3   227  GLY227      0.2014
     78  C         -6.2530   -3.4160   24.7630 C.2   227  GLY227      0.2639
     79  O         -5.6120   -4.4810   24.7870 O.2   227  GLY227     -0.2714
     80  N         -6.4980   -2.6910   25.8610 N.am  228  ALA228     -0.1963
     81  CA        -6.0060   -3.1130   27.1840 C.3   228  ALA228      0.1728
     82  C         -6.6190   -4.4520   27.6250 C.2   228  ALA228      0.2617
     83  O         -5.9580   -5.2500   28.2750 O.2   228  ALA228     -0.2715
     84  CB        -6.2790   -2.0410   28.2530 C.3   228  ALA228      0.0334
     85  N         -7.8900   -4.6610   27.3060 N.am  229  GLY229     -0.1940
     86  CA        -8.5810   -5.9090   27.6650 C.3   229  GLY229      0.2014
     87  C         -7.9230   -7.1240   26.9900 C.2   229  GLY229      0.2638
     88  O         -7.7280   -8.1690   27.6180 O.2   229  GLY229     -0.2714
     89  N         -7.5740   -6.9810   25.7080 N.am  230  ASP230     -0.1971
     90  CA        -6.8870   -8.0710   24.9860 C.3   230  ASP230      0.1709
     91  C         -5.4960   -8.3240   25.5550 C.2   230  ASP230      0.2293
     92  O         -5.0470   -9.4740   25.6540 O.2   230  ASP230     -0.2864
     93  CB        -6.8320   -7.7620   23.4880 C.3   230  ASP230      0.1436
     94  CG        -8.2110   -7.8140   22.8480 C.2   230  ASP230      0.3671
     95  OD1       -9.0880   -8.5330   23.3850 O.co2 230  ASP230     -0.2456
     96  OD2       -8.4340   -7.1630   21.8060 O.co2 230  ASP230     -0.2456
     97  N         -4.6350   -7.8180   28.7250 N.3   232  PHE232     -0.1241
     98  CA        -4.8830   -8.5250   29.9890 C.3   232  PHE232      0.1605
     99  C         -5.0480  -10.0310   29.7350 C.2   232  PHE232      0.2264
    100  O         -4.4180  -10.8620   30.3990 O.2   232  PHE232     -0.2867
    101  CB        -6.1330   -7.9430   30.6840 C.3   232  PHE232      0.0534
    102  CG        -6.4420   -8.5760   32.0330 C.ar  232  PHE232     -0.0203
    103  CD1       -6.1060   -7.9280   33.2170 C.ar  232  PHE232     -0.0042
    104  CD2       -7.0950   -9.8040   32.1090 C.ar  232  PHE232     -0.0042
    105  CE1       -6.3800   -8.5230   34.4650 C.ar  232  PHE232     -0.0003
    106  CE2       -7.3730  -10.4120   33.3410 C.ar  232  PHE232     -0.0003
    107  CZ        -7.0270   -9.7700   34.5190 C.ar  232  PHE232     -0.0000
    108  N         -2.9400   -7.6550   35.2530 N.3   258  CYS258     -0.1235
    109  CA        -3.4290   -6.3270   35.6360 C.3   258  CYS258      0.1677
    110  C         -2.4110   -5.2570   35.3060 C.2   258  CYS258      0.2270
    111  O         -2.7660   -4.1940   34.7930 O.2   258  CYS258     -0.2867
    112  CB        -3.7350   -6.2540   37.1340 C.3   258  CYS258      0.0956
    113  SG        -5.3510   -6.8170   37.5220 S.3   258  CYS258     -0.0801
    114  N         -2.1790   -4.8160   31.4760 N.3   261  GLY261     -0.1210
    115  CA        -3.3420   -4.0400   31.0500 C.3   261  GLY261      0.1956
    116  C         -3.1730   -2.5440   31.3010 C.2   261  GLY261      0.2611
    117  O         -3.5230   -1.7230   30.4600 O.2   261  GLY261     -0.2717
    118  N         -2.6430   -2.1880   32.4730 N.am  262  ALA262     -0.1979
    119  CA        -2.3580   -0.7780   32.7860 C.3   262  ALA262      0.1597
    120  C         -1.3410   -0.1910   31.8000 C.2   262  ALA262      0.2287
    121  O         -1.5490    0.8850   31.2490 O.2   262  ALA262     -0.2864
    122  CB        -1.8430   -0.6400   34.2340 C.3   262  ALA262      0.0319
    123  N         -2.6140    0.8940   28.4240 N.3   265  THR265     -0.1218
    124  CA        -3.3730    2.1560   28.3130 C.3   265  THR265      0.1862
    125  C         -2.4750    3.3590   28.0260 C.2   265  THR265      0.2287
    126  O         -2.9690    4.4610   27.7550 O.2   265  THR265     -0.2866
    127  CB        -4.2320    2.4650   29.5830 C.3   265  THR265      0.1770
    128  OG1       -3.3670    2.8230   30.6740 O.3   265  THR265     -0.2211
    129  CG2       -5.0730    1.2700   29.9580 C.3   265  THR265      0.0375
@<TRIPOS>BOND
     1    96    94   ar
     2    75    72    1
     3    94    95   ar
     4    94    93    1
     5    77    76    1
     6    77    78    1
     7    93    90    1
     8    76    73   am
     9    73    74    2
    10    73    72    1
    11    72    71    1
    12    71    66   am
    13    78    79    2
    14    78    80   am
    15    90    91    1
    16    90    89    1
    17    91    92    2
    18    89    87   am
    19    80    81    1
    20    66    67    2
    21    66    65    1
    22    64    65    1
    23    65    68    1
    24    87    88    2
    25    87    86    1
    26    81    82    1
    27    81    84    1
    28    85    82   am
    29    85    86    1
    30    69    68    1
    31    82    83    2
    32   126   125    2
    33   125   124    1
    34    68    70    1
    35   124   123    1
    36   124   127    1
    37    97    98    1
    38    59    60    2
    39    59    58    1
    40     8     6   am
    41   127   129    1
    42   127   128    1
    43    99    98    1
    44    99   100    2
    45    98   101    1
    46    58    61    1
    47    58    57    1
    48     6     7    2
    49     6     5    1
    50   117   116    2
    51    61    62    1
    52   101   102    1
    53   115   116    1
    54   115   114    1
    55   121   120    2
    56   116   118   am
    57     5     2    1
    58     1     2    1
    59    57    63    1
    60   120   119    1
    61    62    63    1
    62   102   104   ar
    63   102   103   ar
    64   104   106   ar
    65     2     3    1
    66   118   119    1
    67    14    13    1
    68   119   122    1
    69     4     3    2
    70    15    13    1
    71   103   105   ar
    72   106   107   ar
    73    13    10    1
    74    56    54    1
    75    17    16    1
    76    17    18    1
    77    54    55    1
    78    54    51    1
    79   105   107   ar
    80   111   110    2
    81    10     9    1
    82    10    11    1
    83    52    53    2
    84    52    51    1
    85    12    11    2
    86    18    19    2
    87    18    20   am
    88   108   109    1
    89   110   109    1
    90    25    24    1
    91    51    50    1
    92    20    21    1
    93   109   112    1
    94    21    24    1
    95    21    22    1
    96    50    45   am
    97    24    26    1
    98    30    29    2
    99   112   113    1
   100    39    38    2
   101    22    23    2
   102    35    32    1
   103    45    46    2
   104    45    44    1
   105    29    28    1
   106    42    41    1
   107    42    36    1
   108    41    40    1
   109    28    27    1
   110    40    37    1
   111    38    37    1
   112    38    43   am
   113    36    37    1
   114    36    33   am
   115    32    33    1
   116    32    31    1
   117    44    43    1
   118    44    47    1
   119    33    34    2
   120    49    47    1
   121    47    48    1
