@<TRIPOS>MOLECULE
tmp/3go6A00.pdb
 97 85 0 0 0
SMALL
GASTEIGER

@<TRIPOS>ATOM
      1  N         12.7890    2.9620    6.9790 N.3    11  ASN11      -0.1240
      2  CA        12.5680    2.5820    5.5840 C.3    11  ASN11       0.1653
      3  C         12.8340    1.1010    5.4710 C.2    11  ASN11       0.2266
      4  O         13.6670    0.5800    6.2050 O.2    11  ASN11      -0.2867
      5  CB        13.6020    3.2620    4.6430 C.3    11  ASN11       0.1155
      6  CG        13.5510    4.7750    4.6830 C.2    11  ASN11       0.2627
      7  OD1       12.4780    5.3660    4.6960 O.2    11  ASN11      -0.2716
      8  ND2       14.7320    5.4170    4.7070 N.am   11  ASN11      -0.0877
      9  N         14.9130   -1.3320    3.1860 N.3    13  ASP13      -0.1239
     10  CA        16.0780   -1.1360    2.3390 C.3    13  ASP13       0.1674
     11  C         16.1950   -2.2710    1.3470 C.2    13  ASP13       0.2266
     12  O         16.1310   -3.4470    1.7290 O.2    13  ASP13      -0.2867
     13  CB        17.3700   -1.1390    3.1780 C.3    13  ASP13       0.1410
     14  CG        17.5670    0.1360    3.9870 C.2    13  ASP13       0.3668
     15  OD1       16.8390    1.1230    3.7480 O.co2  13  ASP13      -0.2456
     16  OD2       18.4650    0.1460    4.8720 O.co2  13  ASP13      -0.2456
     17  N         16.6040    2.6730    7.3570 N.3    39  GLY39      -0.1210
     18  CA        16.2150    4.0650    7.5570 C.3    39  GLY39       0.1956
     19  C         17.2120    4.7350    8.4860 C.2    39  GLY39       0.2611
     20  O         17.5720    4.1730    9.5220 O.2    39  GLY39      -0.2717
     21  N         17.6580    5.9440    8.1420 N.am   40  LYS40      -0.1979
     22  CA        18.6170    6.6680    8.9980 C.3    40  LYS40       0.1596
     23  C         18.2110    6.7130   10.4730 C.2    40  LYS40       0.2287
     24  O         19.0430    6.5160   11.3590 O.2    40  LYS40      -0.2864
     25  CB        18.8130    8.1150    8.5200 C.3    40  LYS40       0.0298
     26  CG        19.6400    8.2380    7.2680 C.3    40  LYS40       0.0038
     27  CD        19.8820    9.7280    6.9420 C.3    40  LYS40       0.0206
     28  CE        20.4060    9.8800    5.5250 C.3    40  LYS40       0.1093
     29  NZ        21.4480    8.8300    5.1510 N.3    40  LYS40      -0.1314
     30  N         18.2590    3.1420   12.0100 N.3    43  ASN43      -0.1240
     31  CA        19.6600    2.6930   12.0890 C.3    43  ASN43       0.1653
     32  C         20.4030    3.3860   13.2260 C.2    43  ASN43       0.2266
     33  O         21.1970    2.7550   13.9400 O.2    43  ASN43      -0.2867
     34  CB        20.4300    2.9950   10.7900 C.3    43  ASN43       0.1155
     35  CG        19.9310    2.2160    9.6010 C.2    43  ASN43       0.2627
     36  OD1       19.1930    1.2450    9.7440 O.2    43  ASN43      -0.2716
     37  ND2       20.3560    2.6320    8.4040 N.am   43  ASN43      -0.0877
     38  N         14.0780    2.4910    0.6160 N.3    94  ALA94      -0.1245
     39  CA        15.3650    3.0130    0.1490 C.3    94  ALA94       0.1562
     40  C         16.1170    2.0310   -0.7280 C.2    94  ALA94       0.2260
     41  O         16.0250    0.8170   -0.5200 O.2    94  ALA94      -0.2867
     42  CB        16.2270    3.4200    1.3190 C.3    94  ALA94       0.0290
     43  N         19.8970    1.0110   -1.7930 N.3    96  ILE96      -0.1245
     44  CA        21.3060    1.1500   -1.4570 C.3    96  ILE96       0.1561
     45  C         22.0850    0.3700   -2.5170 C.2    96  ILE96       0.2260
     46  O         21.8130   -0.8090   -2.7460 O.2    96  ILE96      -0.2867
     47  CB        21.6490    0.5620   -0.0690 C.3    96  ILE96       0.0252
     48  CG1       20.5770    0.8830    1.0070 C.3    96  ILE96       0.0019
     49  CG2       23.1260    0.8820    0.3160 C.3    96  ILE96       0.0019
     50  CD1       20.5140    2.2240    1.3990 C.3    96  ILE96       0.0001
     51  N         22.7490    6.0590   -1.8380 N.3   106  VAL106     -0.1245
     52  CA        21.4520    5.8130   -1.1880 C.3   106  VAL106      0.1561
     53  C         20.3940    6.6940   -1.8520 C.2   106  VAL106      0.2260
     54  O         20.6100    7.9060   -2.0240 O.2   106  VAL106     -0.2867
     55  CB        21.5290    6.0890    0.3380 C.3   106  VAL106      0.0252
     56  CG1       20.1260    6.0040    1.0230 C.3   106  VAL106      0.0019
     57  CG2       22.4980    5.1340    1.0230 C.3   106  VAL106      0.0019
     58  N         16.1370    7.4270   -1.5460 N.3   108  VAL108     -0.1245
     59  CA        15.0460    7.1930   -0.5790 C.3   108  VAL108      0.1561
     60  C         13.7370    7.7480   -1.1160 C.2   108  VAL108      0.2260
     61  O         13.6710    8.9090   -1.5240 O.2   108  VAL108     -0.2867
     62  CB        15.3250    7.8810    0.7860 C.3   108  VAL108      0.0252
     63  CG1       14.1680    7.6250    1.7710 C.3   108  VAL108      0.0019
     64  CG2       16.6690    7.4090    1.3840 C.3   108  VAL108      0.0019
     65  N         15.3510   13.1950    6.6290 N.3   134  GLU134     -0.1245
     66  CA        14.4190   12.5170    5.7050 C.3   134  GLU134      0.1567
     67  C         12.9570   12.7810    6.0930 C.2   134  GLU134      0.2260
     68  O         12.0550   12.7260    5.2450 O.2   134  GLU134     -0.2867
     69  CB        14.6720   11.0050    5.6300 C.3   134  GLU134      0.0388
     70  CG        16.1110   10.6090    5.2080 C.3   134  GLU134      0.1160
     71  CD        16.2780    9.0790    5.0830 C.2   134  GLU134      0.3649
     72  OE1       15.3570    8.3110    5.4940 O.co2 134  GLU134     -0.2457
     73  OE2       17.3130    8.6440    4.5410 O.co2 134  GLU134     -0.2457
     74  N         28.0380    1.2870    3.5390 N.3   226  ALA226     -0.1231
     75  CA        26.6510    1.7000    3.7670 C.3   226  ALA226      0.1694
     76  C         26.2640    1.4300    5.2200 C.2   226  ALA226      0.2592
     77  O         26.6160    0.3920    5.7960 O.2   226  ALA226     -0.2718
     78  CB        25.7220    0.9760    2.8130 C.3   226  ALA226      0.0304
     79  N         25.5830    2.3990    5.8160 N.am  227  GLY227     -0.1957
     80  CA        25.1270    2.2550    7.1780 C.3   227  GLY227      0.1869
     81  C         26.1520    2.7220    8.2030 C.2   227  GLY227      0.2309
     82  O         25.8100    2.9210    9.3490 O.2   227  GLY227     -0.2863
     83  N         25.4110    6.1200    9.9450 N.3   230  ASP230     -0.1239
     84  CA        24.3330    6.0250   10.9500 C.3   230  ASP230      0.1674
     85  C         24.8570    5.4260   12.2300 C.2   230  ASP230      0.2266
     86  O         24.4540    5.8280   13.3130 O.2   230  ASP230     -0.2867
     87  CB        23.1800    5.1600   10.4250 C.3   230  ASP230      0.1410
     88  CG        22.4510    5.8170    9.2710 C.2   230  ASP230      0.3668
     89  OD1       22.4340    7.0760    9.2240 O.co2 230  ASP230     -0.2456
     90  OD2       21.9270    5.0820    8.3960 O.co2 230  ASP230     -0.2456
     91  N         23.2000   -2.8570    5.9970 N.3   270  VAL270     -0.1245
     92  CA        23.0780   -1.4520    6.3340 C.3   270  VAL270      0.1561
     93  C         22.4920   -1.3400    7.7380 C.2   270  VAL270      0.2260
     94  O         23.0900   -0.7190    8.6320 O.2   270  VAL270     -0.2867
     95  CB        22.1910   -0.7310    5.2720 C.3   270  VAL270      0.0252
     96  CG1       22.0030    0.7390    5.6050 C.3   270  VAL270      0.0019
     97  CG2       22.7990   -0.8940    3.8710 C.3   270  VAL270      0.0019
@<TRIPOS>BOND
     1    46    45    2
     2    45    44    1
     3    54    53    2
     4    53    52    1
     5    51    52    1
     6    43    44    1
     7    58    59    1
     8    61    60    2
     9    44    47    1
    10    52    55    1
    11    60    59    1
    12    40    41    2
    13    40    39    1
    14    59    62    1
    15    47    49    1
    16    47    48    1
    17    39    38    1
    18    39    42    1
    19    55    56    1
    20    55    57    1
    21    62    64    1
    22    62    63    1
    23    48    50    1
    24    11    12    2
    25    11    10    1
    26    10    13    1
    27    10     9    1
    28    78    75    1
    29    13    14    1
    30    74    75    1
    31    15    14   ar
    32    75    76    1
    33    97    95    1
    34    14    16   ar
    35    73    71   ar
    36     5     6    1
    37     5     2    1
    38     6     7    2
    39     6     8   am
    40    71    70    1
    41    71    72   ar
    42    29    28    1
    43    70    69    1
    44    76    77    2
    45    76    79   am
    46    68    67    2
    47    95    96    1
    48    95    92    1
    49     3     2    1
    50     3     4    2
    51    28    27    1
    52     2     1    1
    53    69    66    1
    54    66    67    1
    55    66    65    1
    56    79    80    1
    57    91    92    1
    58    92    93    1
    59    27    26    1
    60    80    81    1
    61    26    25    1
    62    17    18    1
    63    18    19    1
    64    93    94    2
    65    21    19   am
    66    21    22    1
    67    81    82    2
    68    90    88   ar
    69    37    35   am
    70    19    20    2
    71    25    22    1
    72    22    23    1
    73    89    88   ar
    74    88    87    1
    75    35    36    2
    76    35    34    1
    77    83    84    1
    78    87    84    1
    79    23    24    2
    80    34    31    1
    81    84    85    1
    82    30    31    1
    83    31    32    1
    84    85    86    2
    85    32    33    2
