@<TRIPOS>MOLECULE
tmp/3go9A00.pdb
 100 98 0 0 0
SMALL
GASTEIGER

@<TRIPOS>ATOM
      1  N         18.7180    4.6550   22.6900 N.3   264  TRP264     -0.1241
      2  CA        19.2240    5.9920   22.9820 C.3   264  TRP264      0.1605
      3  C         20.2970    5.8830   24.0220 C.2   264  TRP264      0.2264
      4  O         20.1040    5.2380   25.0380 O.2   264  TRP264     -0.2867
      5  CB        18.1350    6.8730   23.5320 C.3   264  TRP264      0.0550
      6  CG        18.6110    8.1900   24.0160 C.ar  264  TRP264      0.0003
      7  CD1       18.6290    8.6100   25.3020 C.ar  264  TRP264      0.0946
      8  CD2       19.1220    9.2920   23.2270 C.ar  264  TRP264      0.0152
      9  NE1       19.1370    9.8820   25.3830 N.ar  264  TRP264     -0.2442
     10  CE2       19.4340   10.3330   24.1290 C.ar  264  TRP264      0.0810
     11  CE3       19.3190    9.5050   21.8590 C.ar  264  TRP264      0.0012
     12  CZ2       19.9310   11.5750   23.7250 C.ar  264  TRP264      0.0191
     13  CZ3       19.8480   10.7340   21.4540 C.ar  264  TRP264      0.0001
     14  CH2       20.1350   11.7650   22.3940 C.ar  264  TRP264      0.0015
     15  N         26.0200   13.3520   18.1750 N.3   275  TYR275     -0.1241
     16  CA        24.5630   13.5570   18.1520 C.3   275  TYR275      0.1605
     17  C         24.2170   14.6570   17.1570 C.2   275  TYR275      0.2264
     18  O         23.3140   14.4960   16.3180 O.2   275  TYR275     -0.2867
     19  CB        23.9680   13.8750   19.5600 C.3   275  TYR275      0.0534
     20  CG        22.5550   14.3720   19.5030 C.ar  275  TYR275     -0.0201
     21  CD1       21.5120   13.5100   19.1780 C.ar  275  TYR275     -0.0009
     22  CD2       22.2470   15.7250   19.6330 C.ar  275  TYR275     -0.0009
     23  CE1       20.2530   13.9230   19.0560 C.ar  275  TYR275      0.0417
     24  CE2       20.9530   16.1490   19.5490 C.ar  275  TYR275      0.0417
     25  CZ        19.9410   15.2540   19.2390 C.ar  275  TYR275      0.1957
     26  OH        18.6400   15.7340   19.1170 O.3   275  TYR275     -0.2866
     27  N         21.7650   14.2910   14.0060 N.3   279  ASP279     -0.1239
     28  CA        20.5610   15.1430   13.9500 C.3   279  ASP279      0.1674
     29  C         20.5490   15.9970   12.6790 C.2   279  ASP279      0.2266
     30  O         19.5190   16.1340   12.0210 O.2   279  ASP279     -0.2867
     31  CB        20.5560   16.0270   15.2030 C.3   279  ASP279      0.1410
     32  CG        19.5120   17.1560   15.1850 C.2   279  ASP279      0.3668
     33  OD1       18.3250   16.8600   15.2170 O.co2 279  ASP279     -0.2456
     34  OD2       19.9090   18.3610   15.2490 O.co2 279  ASP279     -0.2456
     35  N         19.7150   14.0440    9.5220 N.3   282  ARG282     -0.1245
     36  CA        18.2690   13.8300    9.4900 C.3   282  ARG282      0.1563
     37  C         17.5420   15.0830    9.0290 C.2   282  ARG282      0.2260
     38  O         16.6440   15.0210    8.1800 O.2   282  ARG282     -0.2867
     39  CB        17.7580   13.3530   10.8630 C.3   282  ARG282      0.0307
     40  CG        18.2280   11.9600   11.2080 C.3   282  ARG282      0.0489
     41  CD        17.6260   11.4220   12.5140 C.3   282  ARG282      0.2205
     42  NE        18.1970   12.0140   13.7340 N.pl3 282  ARG282     -0.0865
     43  CZ        19.1030   11.4190   14.5060 C.cat 282  ARG282      0.5346
     44  NH1       19.6130   10.2420   14.1760 N.pl3 282  ARG282      0.1354
     45  NH2       19.5520   12.0340   15.5940 N.pl3 282  ARG282      0.1354
     46  N          7.8400   15.0190    9.3410 N.3   305  PHE305     -0.1241
     47  CA         9.0790   14.4320    9.8580 C.3   305  PHE305      0.1605
     48  C          9.2430   14.6890   11.3420 C.2   305  PHE305      0.2264
     49  O          9.0170   15.8110   11.8250 O.2   305  PHE305     -0.2867
     50  CB        10.2750   15.0000    9.1330 C.3   305  PHE305      0.0534
     51  CG        11.5550   14.2920    9.4610 C.ar  305  PHE305     -0.0203
     52  CD1       11.7600   12.9840    9.0510 C.ar  305  PHE305     -0.0042
     53  CD2       12.5480   14.9080   10.2000 C.ar  305  PHE305     -0.0042
     54  CE1       12.9280   12.3010    9.3600 C.ar  305  PHE305     -0.0003
     55  CE2       13.7180   14.2250   10.5020 C.ar  305  PHE305     -0.0003
     56  CZ        13.8920   12.9170   10.0840 C.ar  305  PHE305     -0.0000
     57  N         11.3720   13.3260   15.1970 N.3   307  CYS307     -0.1221
     58  CA        12.2260   12.4770   15.9780 C.3   307  CYS307      0.1808
     59  C         11.7100   12.5790   17.3970 C.2   307  CYS307      0.2601
     60  O         11.1870   13.6240   17.8360 O.2   307  CYS307     -0.2717
     61  CB        13.6610   12.9620   15.9880 C.3   307  CYS307      0.0970
     62  SG        14.7340   12.6240   14.5060 S.3   307  CYS307     -0.0800
     63  N         11.8370   11.5060   18.1280 N.am  308  ARG308     -0.1965
     64  CA        11.5860   11.5550   19.5500 C.3   308  ARG308      0.1729
     65  C         12.5090   10.5860   20.2590 C.2   308  ARG308      0.2616
     66  O         12.9770    9.5990   19.6860 O.2   308  ARG308     -0.2715
     67  CB        10.1580   11.2020   19.8910 C.3   308  ARG308      0.0348
     68  CG         9.8230    9.7290   19.6980 C.3   308  ARG308      0.0492
     69  CD         8.3110    9.4730   19.5760 C.3   308  ARG308      0.2205
     70  NE         7.7090   10.4630   18.6980 N.pl3 308  ARG308     -0.0865
     71  CZ         6.4060   10.6760   18.5350 C.cat 308  ARG308      0.5346
     72  NH1        5.5080    9.9540   19.1810 N.pl3 308  ARG308      0.1354
     73  NH2        6.0100   11.6380   17.7080 N.pl3 308  ARG308      0.1354
     74  N         12.7800   10.9120   21.5060 N.am  309  VAL309     -0.1977
     75  CA        13.4940   10.0010   22.4070 C.3   309  VAL309      0.1596
     76  C         12.5330    9.7420   23.5370 C.2   309  VAL309      0.2287
     77  O         12.1020   10.6730   24.2200 O.2   309  VAL309     -0.2864
     78  CB        14.7950   10.6170   22.9470 C.3   309  VAL309      0.0276
     79  CG1       15.4440    9.6630   23.9310 C.3   309  VAL309      0.0022
     80  CG2       15.7010   10.9320   21.8400 C.3   309  VAL309      0.0022
     81  N         15.4870    5.9610   20.4730 N.3   314  ALA314     -0.1231
     82  CA        15.4300    7.1150   19.5540 C.3   314  ALA314      0.1694
     83  C         14.5810    6.6510   18.3790 C.2   314  ALA314      0.2592
     84  O         14.8750    5.5830   17.8130 O.2   314  ALA314     -0.2718
     85  CB        16.8230    7.5190   19.0700 C.3   314  ALA314      0.0304
     86  N         13.5350    7.4130   18.0340 N.am  315  GLN315     -0.1966
     87  CA        12.6570    7.0650   16.9190 C.3   315  GLN315      0.1733
     88  C         12.7080    8.2130   15.9150 C.2   315  GLN315      0.2616
     89  O         12.4850    9.3730   16.2880 O.2   315  GLN315     -0.2715
     90  CB        11.2420    6.8290   17.3960 C.3   315  GLN315      0.0408
     91  CG        10.2890    6.4040   16.2980 C.3   315  GLN315      0.0908
     92  CD         8.8620    6.3080   16.8180 C.2   315  GLN315      0.2608
     93  OE1        8.0810    7.2620   16.7200 O.2   315  GLN315     -0.2717
     94  NE2        8.5220    5.1620   17.3940 N.am  315  GLN315     -0.0878
     95  N         13.0240    7.9150   14.6650 N.am  316  CYS316     -0.1968
     96  CA        13.0400    8.9900   13.6950 C.3   316  CYS316      0.1712
     97  C         12.0890    8.4470   12.5360 C.2   316  CYS316      0.2296
     98  O         12.1430    7.2830   12.1210 O.2   316  CYS316     -0.2864
     99  CB        14.5330    9.5410   13.4310 C.3   316  CYS316      0.0983
    100  SG        15.5820   10.7650   14.8200 S.3   316  CYS316     -0.0798
@<TRIPOS>BOND
     1    38    37    2
     2    37    36    1
     3    52    54   ar
     4    52    51   ar
     5    50    51    1
     6    50    47    1
     7    46    47    1
     8    54    56   ar
     9    51    53   ar
    10    36    35    1
    11    36    39    1
    12    47    48    1
    13    56    55   ar
    14    53    55   ar
    15    39    40    1
    16    40    41    1
    17    48    49    2
    18    30    29    2
    19    98    97    2
    20    41    42    1
    21    97    96    1
    22    29    28    1
    23    99    96    1
    24    99   100    1
    25    96    95    1
    26    42    43    2
    27    28    27    1
    28    28    31    1
    29    44    43    1
    30    43    45    1
    31    62   100    1
    32    62    61    1
    33    95    88   am
    34    32    31    1
    35    32    33   ar
    36    32    34   ar
    37    57    58    1
    38    88    89    2
    39    88    87    1
    40    58    61    1
    41    58    59    1
    42    91    92    1
    43    91    90    1
    44    18    17    2
    45    93    92    2
    46    92    94   am
    47    87    90    1
    48    87    86    1
    49    17    16    1
    50    59    60    2
    51    59    63   am
    52    73    71    1
    53    84    83    2
    54    86    83   am
    55    63    64    1
    56    16    15    1
    57    16    19    1
    58    83    82    1
    59    71    70    2
    60    71    72    1
    61    70    69    1
    62    23    21   ar
    63    23    25   ar
    64    85    82    1
    65    26    25    1
    66    21    20   ar
    67    25    24   ar
    68    20    19    1
    69    20    22   ar
    70    24    22   ar
    71    64    67    1
    72    64    65    1
    73    82    81    1
    74    69    68    1
    75    66    65    2
    76    68    67    1
    77    65    74   am
    78    13    11   ar
    79    13    14   ar
    80    74    75    1
    81    80    78    1
    82    11     8   ar
    83    14    12   ar
    84    75    78    1
    85    75    76    1
    86     1     2    1
    87    78    79    1
    88     2     5    1
    89     2     3    1
    90     8     6   ar
    91     8    10   ar
    92     5     6    1
    93    76    77    2
    94    12    10   ar
    95     6     7   ar
    96     3     4    2
    97    10     9   ar
    98     7     9   ar
