@<TRIPOS>MOLECULE
tmp/3gobC00.pdb
 148 136 0 0 0
SMALL
GASTEIGER

@<TRIPOS>ATOM
      1  N         72.5390   15.1310   26.1850 N.3   155  LEU155     -0.1245
      2  CA        73.0610   15.5160   27.4880 C.3   155  LEU155      0.1561
      3  C         74.5860   15.4900   27.5560 C.2   155  LEU155      0.2260
      4  O         75.1780   16.2480   28.3110 O.2   155  LEU155     -0.2867
      5  CB        72.4670   14.6060   28.5620 C.3   155  LEU155      0.0270
      6  CG        70.9510   14.7670   28.6850 C.3   155  LEU155      0.0019
      7  CD1       70.3560   13.6270   29.4910 C.3   155  LEU155      0.0001
      8  CD2       70.6470   16.1190   29.3260 C.3   155  LEU155      0.0001
      9  N         77.6520   19.7620   24.7460 N.3   158  LEU158     -0.1245
     10  CA        77.5340   21.1780   25.1040 C.3   158  LEU158      0.1561
     11  C         77.2670   22.0850   23.9060 C.2   158  LEU158      0.2260
     12  O         76.7390   23.1870   24.0560 O.2   158  LEU158     -0.2867
     13  CB        78.8250   21.6610   25.7760 C.3   158  LEU158      0.0270
     14  CG        79.3350   20.9040   27.0040 C.3   158  LEU158      0.0019
     15  CD1       80.7220   21.3960   27.3640 C.3   158  LEU158      0.0001
     16  CD2       78.3700   21.0950   28.1600 C.3   158  LEU158      0.0001
     17  N         73.8550   24.0660   23.0860 N.3   161  ALA161     -0.1245
     18  CA        73.5130   25.1250   24.0270 C.3   161  ALA161      0.1562
     19  C         73.3310   26.4500   23.3000 C.2   161  ALA161      0.2260
     20  O         72.3500   27.1660   23.5110 O.2   161  ALA161     -0.2867
     21  CB        74.6110   25.2530   25.0770 C.3   161  ALA161      0.0290
     22  N         69.1030   26.0560   22.8250 N.3   165  HIS165     -0.1241
     23  CA        68.6880   26.8810   23.9500 C.3   165  HIS165      0.1621
     24  C         69.0830   28.3180   23.6690 C.2   165  HIS165      0.2264
     25  O         69.3840   29.0850   24.5870 O.2   165  HIS165     -0.2867
     26  CB        69.3650   26.4070   25.2330 C.3   165  HIS165      0.0745
     27  CG        69.2360   24.9370   25.4700 C.ar  165  HIS165      0.0817
     28  ND1       68.0170   24.2950   25.5110 N.ar  165  HIS165     -0.2268
     29  CD2       70.1740   23.9790   25.6600 C.ar  165  HIS165      0.1154
     30  CE1       68.2090   23.0040   25.7160 C.ar  165  HIS165      0.1986
     31  NE2       69.5090   22.7870   25.8100 N.ar  165  HIS165     -0.2212
     32  N         70.9240   29.8110   27.2730 N.3   169  ALA169     -0.1245
     33  CA        72.3810   29.7530   27.3210 C.3   169  ALA169      0.1562
     34  C         73.0760   29.9200   25.9730 C.2   169  ALA169      0.2260
     35  O         73.3930   28.9350   25.3050 O.2   169  ALA169     -0.2867
     36  CB        72.8200   28.4420   27.9640 C.3   169  ALA169      0.0290
     37  N         70.7840   32.4980   31.6100 N.3   202  LEU202     -0.1245
     38  CA        70.7910   31.4290   32.6000 C.3   202  LEU202      0.1561
     39  C         71.6100   31.7560   33.8400 C.2   202  LEU202      0.2260
     40  O         71.0530   32.0550   34.8960 O.2   202  LEU202     -0.2867
     41  CB        71.3100   30.1310   31.9770 C.3   202  LEU202      0.0270
     42  CG        70.2670   29.2740   31.2570 C.3   202  LEU202      0.0019
     43  CD1       70.9320   28.0370   30.6660 C.3   202  LEU202      0.0001
     44  CD2       69.1750   28.8750   32.2440 C.3   202  LEU202      0.0001
     45  N         71.0880   33.0310   38.1090 N.3   206  PHE206     -0.1241
     46  CA        71.6860   32.2120   39.1600 C.3   206  PHE206      0.1605
     47  C         72.6280   33.1110   39.9530 C.2   206  PHE206      0.2264
     48  O         72.7330   33.0060   41.1750 O.2   206  PHE206     -0.2867
     49  CB        72.5010   31.0610   38.5590 C.3   206  PHE206      0.0534
     50  CG        71.6710   29.9770   37.9340 C.ar  206  PHE206     -0.0203
     51  CD1       70.6790   30.2800   37.0190 C.ar  206  PHE206     -0.0042
     52  CD2       71.9100   28.6470   38.2400 C.ar  206  PHE206     -0.0042
     53  CE1       69.9390   29.2770   36.4180 C.ar  206  PHE206     -0.0003
     54  CE2       71.1760   27.6390   37.6430 C.ar  206  PHE206     -0.0003
     55  CZ        70.1890   27.9540   36.7310 C.ar  206  PHE206     -0.0000
     56  N         81.3690   23.9350   33.6750 N.3   218  ASN218     -0.1240
     57  CA        80.2940   23.1160   33.1220 C.3   218  ASN218      0.1653
     58  C         80.8010   21.6830   32.9680 C.2   218  ASN218      0.2266
     59  O         81.7060   21.4360   32.1750 O.2   218  ASN218     -0.2867
     60  CB        79.8690   23.6610   31.7580 C.3   218  ASN218      0.1155
     61  CG        78.6060   23.0070   31.2390 C.2   218  ASN218      0.2627
     62  OD1       78.4600   21.7900   31.3010 O.2   218  ASN218     -0.2716
     63  ND2       77.6900   23.8120   30.7170 N.am  218  ASN218     -0.0877
     64  N         75.1650   16.3610   36.0490 N.3   230  ASN230     -0.1240
     65  CA        76.0210   17.4350   35.5740 C.3   230  ASN230      0.1653
     66  C         76.4020   18.3730   36.6990 C.2   230  ASN230      0.2266
     67  O         75.9280   18.2390   37.8330 O.2   230  ASN230     -0.2867
     68  CB        75.3700   18.2170   34.4130 C.3   230  ASN230      0.1155
     69  CG        74.1990   19.0940   34.8530 C.2   230  ASN230      0.2627
     70  OD1       73.9860   19.3280   36.0400 O.2   230  ASN230     -0.2716
     71  ND2       73.4460   19.5930   33.8790 N.am  230  ASN230     -0.0877
     72  N         76.8880   22.5490   37.0940 N.3   232  ILE232     -0.1245
     73  CA        76.8040   23.9100   36.5610 C.3   232  ILE232      0.1561
     74  C         77.2060   24.8580   37.6870 C.2   232  ILE232      0.2260
     75  O         76.5230   24.9290   38.7130 O.2   232  ILE232     -0.2867
     76  CB        75.3590   24.2590   36.1190 C.3   232  ILE232      0.0252
     77  CG1       74.8160   23.1790   35.1740 C.3   232  ILE232      0.0019
     78  CG2       75.3390   25.6230   35.4220 C.3   232  ILE232      0.0019
     79  CD1       75.6250   23.0000   33.9030 C.3   232  ILE232      0.0001
     80  N         74.9290   24.0430   40.8210 N.3   247  SER247     -0.1217
     81  CA        73.7700   23.1770   40.7560 C.3   247  SER247      0.1889
     82  C         74.2010   21.8550   40.1210 C.2   247  SER247      0.2288
     83  O         74.8290   21.8400   39.0600 O.2   247  SER247     -0.2866
     84  CB        72.6770   23.8150   39.9060 C.3   247  SER247      0.2089
     85  OG        71.6390   22.8880   39.6420 O.3   247  SER247     -0.2183
     86  N         72.9640   18.7550   38.3180 N.3   249  GLY249     -0.1225
     87  CA        71.7800   18.3300   37.6000 C.3   249  GLY249      0.1811
     88  C         71.6170   16.8510   37.3480 C.2   249  GLY249      0.2280
     89  O         72.4760   16.1990   36.7500 O.2   249  GLY249     -0.2866
     90  N         70.0470   13.9810   35.4000 N.3   251  HIS251     -0.1241
     91  CA        69.4950   13.7670   34.0700 C.3   251  HIS251      0.1621
     92  C         69.6030   12.2750   33.8080 C.2   251  HIS251      0.2264
     93  O         70.6310   11.7890   33.3450 O.2   251  HIS251     -0.2867
     94  CB        70.2850   14.5700   33.0330 C.3   251  HIS251      0.0745
     95  CG        70.1540   16.0510   33.2030 C.ar  251  HIS251      0.0817
     96  ND1       69.0950   16.7690   32.6860 N.ar  251  HIS251     -0.2268
     97  CD2       70.9160   16.9400   33.8840 C.ar  251  HIS251      0.1154
     98  CE1       69.2100   18.0360   33.0420 C.ar  251  HIS251      0.1986
     99  NE2       70.3060   18.1660   33.7700 N.ar  251  HIS251     -0.2212
    100  N         66.3280   16.8640   37.4480 N.3   266  GLY266     -0.1210
    101  CA        66.2710   17.5580   38.7090 C.3   266  GLY266      0.1956
    102  C         67.4610   18.4720   38.8650 C.2   266  GLY266      0.2612
    103  O         68.4510   18.3510   38.1470 O.2   266  GLY266     -0.2717
    104  N         67.3510   19.3870   39.8150 N.am  267  SER267     -0.1952
    105  CA        68.4010   20.3390   40.1080 C.3   267  SER267      0.1924
    106  C         68.6460   20.3430   41.6030 C.2   267  SER267      0.2314
    107  O         67.7130   20.5090   42.3870 O.2   267  SER267     -0.2863
    108  CB        67.9820   21.7420   39.6660 C.3   267  SER267      0.2116
    109  OG        68.8860   22.7090   40.1640 O.3   267  SER267     -0.2180
    110  N         64.5260   27.6890   38.2920 N.3   282  LEU282     -0.1245
    111  CA        65.0250   26.3740   37.9100 C.3   282  LEU282      0.1561
    112  C         63.9770   25.5480   37.1710 C.2   282  LEU282      0.2260
    113  O         64.2510   25.0020   36.1040 O.2   282  LEU282     -0.2867
    114  CB        65.5040   25.6220   39.1490 C.3   282  LEU282      0.0270
    115  CG        66.6040   26.3430   39.9300 C.3   282  LEU282      0.0019
    116  CD1       66.9390   25.5490   41.1700 C.3   282  LEU282      0.0001
    117  CD2       67.8330   26.5200   39.0560 C.3   282  LEU282      0.0001
    118  N         63.3620   26.7230   33.7510 N.3   285  TRP285     -0.1227
    119  CA        64.3770   26.3520   32.7750 C.3   285  TRP285      0.1737
    120  C         64.1910   24.9050   32.3410 C.2   285  TRP285      0.2595
    121  O         64.2970   24.5840   31.1590 O.2   285  TRP285     -0.2718
    122  CB        65.7800   26.5290   33.3600 C.3   285  TRP285      0.0564
    123  CG        66.8010   25.6050   32.7470 C.ar  285  TRP285      0.0003
    124  CD1       67.2760   24.4400   33.2810 C.ar  285  TRP285      0.0946
    125  CD2       67.4610   25.7620   31.4820 C.ar  285  TRP285      0.0152
    126  NE1       68.1900   23.8670   32.4300 N.ar  285  TRP285     -0.2442
    127  CE2       68.3220   24.6580   31.3190 C.ar  285  TRP285      0.0810
    128  CE3       67.4070   26.7280   30.4730 C.ar  285  TRP285      0.0012
    129  CZ2       69.1230   24.4950   30.1880 C.ar  285  TRP285      0.0191
    130  CZ3       68.2030   26.5630   29.3500 C.ar  285  TRP285      0.0001
    131  CH2       69.0490   25.4570   29.2180 C.ar  285  TRP285      0.0015
    132  N         63.9090   24.0360   33.3050 N.am  286  GLN286     -0.1979
    133  CA        63.7140   22.6210   33.0220 C.3   286  GLN286      0.1601
    134  C         62.5530   22.3970   32.0610 C.2   286  GLN286      0.2287
    135  O         62.6560   21.5930   31.1340 O.2   286  GLN286     -0.2864
    136  CB        63.4710   21.8560   34.3240 C.3   286  GLN286      0.0394
    137  CG        64.5690   22.0580   35.3580 C.3   286  GLN286      0.0908
    138  CD        64.3420   21.2540   36.6230 C.2   286  GLN286      0.2608
    139  OE1       63.2510   21.2700   37.1960 O.2   286  GLN286     -0.2717
    140  NE2       65.3780   20.5510   37.0710 N.am  286  GLN286     -0.0878
    141  N         64.5970   21.3360   28.7930 N.3   290  LEU290     -0.1245
    142  CA        64.3800   19.9010   28.6700 C.3   290  LEU290      0.1561
    143  C         63.0610   19.4540   28.0460 C.2   290  LEU290      0.2260
    144  O         63.0120   18.4220   27.3780 O.2   290  LEU290     -0.2867
    145  CB        64.5330   19.2330   30.0410 C.3   290  LEU290      0.0270
    146  CG        65.8650   19.4270   30.7750 C.3   290  LEU290      0.0019
    147  CD1       67.0140   19.1730   29.8160 C.3   290  LEU290      0.0001
    148  CD2       65.9520   20.8360   31.3310 C.3   290  LEU290      0.0001
@<TRIPOS>BOND
     1    22    23    1
     2    17    18    1
     3    19    20    2
     4    19    18    1
     5    24    23    1
     6    24    25    2
     7    11    12    2
     8    11    10    1
     9    23    26    1
    10    18    21    1
    11     9    10    1
    12    10    13    1
    13    26    27    1
    14    35    34    2
    15    27    28   ar
    16    27    29   ar
    17    28    30   ar
    18    29    31   ar
    19    30    31   ar
    20    13    14    1
    21    34    33    1
    22     1     2    1
    23    14    15    1
    24    14    16    1
    25    32    33    1
    26    33    36    1
    27   144   143    2
    28     2     3    1
    29     2     5    1
    30     3     4    2
    31   143   142    1
    32     5     6    1
    33   142   141    1
    34   142   145    1
    35     6     8    1
    36     6     7    1
    37   131   130   ar
    38   131   129   ar
    39   130   128   ar
    40   147   146    1
    41   145   146    1
    42   129   127   ar
    43   128   125   ar
    44    43    42    1
    45    63    61   am
    46   146   148    1
    47   135   134    2
    48   121   120    2
    49    61    62    2
    50    61    60    1
    51    42    41    1
    52    42    44    1
    53   127   125   ar
    54   127   126   ar
    55   125   123   ar
    56    37    38    1
    57    60    57    1
    58    41    38    1
    59   134   133    1
    60    59    58    2
    61   120   119    1
    62   120   132   am
    63   126   124   ar
    64    38    39    1
    65    96    98   ar
    66    96    95   ar
    67   123   124   ar
    68   123   122    1
    69   119   122    1
    70   119   118    1
    71    58    57    1
    72   133   132    1
    73   133   136    1
    74    94    95    1
    75    94    91    1
    76    98    99   ar
    77    57    56    1
    78    95    97   ar
    79    93    92    2
    80    99    97   ar
    81    92    91    1
    82    39    40    2
    83    71    69   am
    84    79    77    1
    85    91    90    1
    86   136   137    1
    87    68    69    1
    88    68    65    1
    89    69    70    2
    90    77    76    1
    91   137   138    1
    92    78    76    1
    93    65    64    1
    94    65    66    1
    95   113   112    2
    96    76    73    1
    97    53    55   ar
    98    53    51   ar
    99    73    72    1
   100    73    74    1
   101   138   140   am
   102   138   139    2
   103    66    67    2
   104    55    54   ar
   105    89    88    2
   106    51    50   ar
   107   112   111    1
   108    88    87    1
   109   100   101    1
   110    87    86    1
   111    54    52   ar
   112    74    75    2
   113   111   110    1
   114   111   114    1
   115    50    52   ar
   116    50    49    1
   117    45    46    1
   118   103   102    2
   119    49    46    1
   120   101   102    1
   121   102   104   am
   122   117   115    1
   123    83    82    2
   124   114   115    1
   125    46    47    1
   126    85    84    1
   127   108   105    1
   128   108   109    1
   129   104   105    1
   130    84    81    1
   131   115   116    1
   132    47    48    2
   133   105   106    1
   134    82    81    1
   135    81    80    1
   136   106   107    2
