@<TRIPOS>MOLECULE
tmp/3gocB00.pdb
 74 72 0 0 0
SMALL
GASTEIGER

@<TRIPOS>ATOM
      1  N         -8.3060   -7.3970   18.0970 N.3    97  LEU97      -0.1245
      2  CA        -8.5940   -7.4410   19.5240 C.3    97  LEU97       0.1561
      3  C         -9.2470   -8.7680   19.9010 C.2    97  LEU97       0.2260
      4  O         -8.9840   -9.3080   20.9740 O.2    97  LEU97      -0.2867
      5  CB        -9.5100   -6.2830   19.9240 C.3    97  LEU97       0.0270
      6  CG        -8.8970   -4.8790   19.8810 C.3    97  LEU97       0.0019
      7  CD1       -9.9980   -3.8480   20.0750 C.3    97  LEU97       0.0001
      8  CD2       -7.8240   -4.7320   20.9540 C.3    97  LEU97       0.0001
      9  N         -6.5190  -11.3150   20.2370 N.3   100  LEU100     -0.1231
     10  CA        -5.7840  -11.0940   21.4770 C.3   100  LEU100      0.1693
     11  C         -6.6080  -11.5490   22.6760 C.2   100  LEU100      0.2592
     12  O         -6.0800  -12.1860   23.5850 O.2   100  LEU100     -0.2718
     13  CB        -5.4260   -9.6130   21.6160 C.3   100  LEU100      0.0284
     14  CG        -4.3790   -9.1010   20.6190 C.3   100  LEU100      0.0019
     15  CD1       -4.3350   -7.5760   20.6580 C.3   100  LEU100      0.0001
     16  CD2       -3.0020   -9.6850   20.9590 C.3   100  LEU100      0.0001
     17  N         -7.9000  -11.2280   22.6770 N.am  101  ASP101     -0.1974
     18  CA        -8.7740  -11.6210   23.7850 C.3   101  ASP101      0.1709
     19  C         -8.8390  -13.1320   23.9760 C.2   101  ASP101      0.2293
     20  O         -9.0270  -13.6090   25.0940 O.2   101  ASP101     -0.2864
     21  CB       -10.2000  -11.1000   23.5670 C.3   101  ASP101      0.1436
     22  CG       -10.3160   -9.5970   23.7350 C.2   101  ASP101      0.3671
     23  OD1       -9.3390   -8.9570   24.1720 O.co2 101  ASP101     -0.2456
     24  OD2      -11.4010   -9.0520   23.4380 O.co2 101  ASP101     -0.2456
     25  N         -6.4440  -15.2350   23.6520 N.3   103  LEU103     -0.1231
     26  CA        -5.1790  -15.7890   24.1250 C.3   103  LEU103      0.1678
     27  C         -5.2940  -16.2580   25.5700 C.2   103  LEU103      0.2434
     28  O         -6.0340  -15.6780   26.3660 O.2   103  LEU103     -0.2733
     29  CB        -4.0630  -14.7480   24.0170 C.3   103  LEU103      0.0284
     30  CG        -3.5710  -14.4160   22.6070 C.3   103  LEU103      0.0019
     31  CD1       -2.5450  -13.2990   22.6830 C.3   103  LEU103      0.0001
     32  CD2       -2.9650  -15.6600   21.9660 C.3   103  LEU103      0.0001
     33  N         -4.5570  -17.3210   25.9270 N.am  104  PRO104     -0.2718
     34  CA        -4.5740  -17.8750   27.2840 C.3   104  PRO104      0.1535
     35  C         -3.6110  -17.1940   28.2560 C.2   104  PRO104      0.2599
     36  O         -3.5380  -17.5680   29.4270 O.2   104  PRO104     -0.2715
     37  CB        -4.2030  -19.3310   27.0510 C.3   104  PRO104      0.0310
     38  CG        -3.1760  -19.2110   25.9590 C.3   104  PRO104      0.0237
     39  CD        -3.8120  -18.2060   25.0110 C.3   104  PRO104      0.0939
     40  N         -2.8780  -16.1970   27.7710 N.am  105  CYS105     -0.1955
     41  CA        -1.9050  -15.4910   28.5960 C.3   105  CYS105      0.1828
     42  C         -1.7420  -14.0380   28.1540 C.2   105  CYS105      0.2467
     43  O         -2.1430  -13.6680   27.0500 O.2   105  CYS105     -0.2730
     44  CB        -0.5470  -16.1860   28.4950 C.3   105  CYS105      0.0996
     45  SG         0.1360  -16.2110   26.8040 S.3   105  CYS105     -0.0797
     46  N         -1.1460  -13.1920   29.0140 N.am  106  PRO106     -0.2716
     47  CA        -0.9490  -11.7820   28.6510 C.3   106  PRO106      0.1521
     48  C          0.0410  -11.7060   27.4870 C.2   106  PRO106      0.2440
     49  O          1.0070  -12.4670   27.4440 O.2   106  PRO106     -0.2731
     50  CB        -0.3840  -11.1680   29.9310 C.3   106  PRO106      0.0310
     51  CG        -0.9610  -12.0460   31.0240 C.3   106  PRO106      0.0237
     52  CD        -0.8020  -13.4270   30.4280 C.3   106  PRO106      0.0939
     53  N         -0.1850  -10.7900   26.5280 N.am  107  PRO107     -0.2727
     54  CA         0.6970  -10.6320   25.3620 C.3   107  PRO107      0.1402
     55  C          2.1310  -10.2020   25.6590 C.2   107  PRO107      0.2269
     56  O          3.0490  -10.5750   24.9320 O.2   107  PRO107     -0.2865
     57  CB        -0.0290   -9.5910   24.5110 C.3   107  PRO107      0.0296
     58  CG        -1.4700   -9.7580   24.9020 C.3   107  PRO107      0.0237
     59  CD        -1.3880   -9.9490   26.3930 C.3   107  PRO107      0.0939
     60  N         -5.6030   -1.3270   24.3910 N.3   133  THR133     -0.1218
     61  CA        -5.2920   -2.4540   25.2710 C.3   133  THR133      0.1862
     62  C         -4.4480   -2.0610   26.4770 C.2   133  THR133      0.2287
     63  O         -4.3660   -2.8130   27.4490 O.2   133  THR133     -0.2866
     64  CB        -4.5060   -3.5340   24.5220 C.3   133  THR133      0.1770
     65  OG1       -3.2410   -2.9900   24.1310 O.3   133  THR133     -0.2211
     66  CG2       -5.2590   -3.9850   23.2820 C.3   133  THR133      0.0375
     67  N         -1.4070   -2.0480   26.5140 N.3   135  LEU135     -0.1245
     68  CA        -0.1630   -2.8160   26.4210 C.3   135  LEU135      0.1561
     69  C          0.9550   -2.1180   25.6420 C.2   135  LEU135      0.2260
     70  O          0.6990   -1.2280   24.8250 O.2   135  LEU135     -0.2867
     71  CB        -0.4460   -4.1670   25.7500 C.3   135  LEU135      0.0270
     72  CG        -1.3960   -5.1610   26.4260 C.3   135  LEU135      0.0019
     73  CD1       -1.8640   -6.1770   25.4000 C.3   135  LEU135      0.0001
     74  CD2       -0.7020   -5.8530   27.5890 C.3   135  LEU135      0.0001
@<TRIPOS>BOND
     1     1     2    1
     2     2     3    1
     3     2     5    1
     4     6     5    1
     5     6     7    1
     6     6     8    1
     7     3     4    2
     8     9    10    1
     9    14    15    1
    10    14    16    1
    11    14    13    1
    12    10    13    1
    13    10    11    1
    14    32    30    1
    15    30    31    1
    16    30    29    1
    17    11    17   am
    18    11    12    2
    19    17    18    1
    20    66    64    1
    21    24    22   ar
    22    21    22    1
    23    21    18    1
    24    25    26    1
    25    22    23   ar
    26    18    19    1
    27    19    20    2
    28    29    26    1
    29    26    27    1
    30    65    64    1
    31    60    61    1
    32    57    58    1
    33    57    54    1
    34    64    61    1
    35    70    69    2
    36    58    59    1
    37    56    55    2
    38    39    33    1
    39    39    38    1
    40    61    62    1
    41    54    55    1
    42    54    53    1
    43    73    72    1
    44    27    33   am
    45    27    28    2
    46    69    68    1
    47    71    68    1
    48    71    72    1
    49    33    34    1
    50    38    37    1
    51    59    53    1
    52    68    67    1
    53    72    74    1
    54    62    63    2
    55    53    48   am
    56    45    44    1
    57    43    42    2
    58    37    34    1
    59    34    35    1
    60    49    48    2
    61    48    47    1
    62    40    35   am
    63    40    41    1
    64    42    41    1
    65    42    46   am
    66    35    36    2
    67    44    41    1
    68    47    46    1
    69    47    50    1
    70    46    52    1
    71    50    51    1
    72    52    51    1
