@<TRIPOS>MOLECULE
tmp/3goiA01.pdb
 164 157 0 0 0
SMALL
GASTEIGER

@<TRIPOS>ATOM
      1  N         32.2270   14.3700   56.7520 N.3    48  TYR48      -0.1227
      2  CA        32.8470   15.7020   56.5960 C.3    48  TYR48       0.1736
      3  C         33.7290   16.0280   57.7490 C.2    48  TYR48       0.2595
      4  O         34.2710   17.1210   57.7580 O.2    48  TYR48      -0.2718
      5  CB        31.8490   16.8640   56.2780 C.3    48  TYR48       0.0548
      6  CG        31.1660   16.5380   54.9770 C.ar   48  TYR48      -0.0200
      7  CD1       31.6710   17.0140   53.7580 C.ar   48  TYR48      -0.0009
      8  CD2       30.1100   15.6340   54.9500 C.ar   48  TYR48      -0.0009
      9  CE1       31.0930   16.6580   52.5770 C.ar   48  TYR48       0.0417
     10  CE2       29.5540   15.2590   53.7700 C.ar   48  TYR48       0.0417
     11  CZ        30.0400   15.7760   52.6250 C.ar   48  TYR48       0.1957
     12  OH        29.4780   15.3550   51.4790 O.3    48  TYR48      -0.2866
     13  N         33.9870   15.0990   58.6750 N.am   49  VAL49      -0.1966
     14  CA        35.2220   15.3190   59.5260 C.3    49  VAL49       0.1727
     15  C         36.5210   15.0230   58.7510 C.2    49  VAL49       0.2616
     16  O         36.6360   13.9830   58.1400 O.2    49  VAL49      -0.2715
     17  CB        35.1540   14.5510   60.8240 C.3    49  VAL49       0.0290
     18  CG1       36.3020   14.8770   61.6720 C.3    49  VAL49       0.0023
     19  CG2       33.8730   14.9190   61.5410 C.3    49  VAL49       0.0023
     20  N         37.5030   15.9300   58.7500 N.am   50  ARG50      -0.1963
     21  CA        38.6230   15.7900   57.7890 C.3    50  ARG50       0.1729
     22  C         39.9160   15.8470   58.5180 C.2    50  ARG50       0.2617
     23  O         39.9620   16.3840   59.6340 O.2    50  ARG50      -0.2715
     24  CB        38.5870   16.8850   56.7010 C.3    50  ARG50       0.0348
     25  CG        37.5320   16.7190   55.6410 C.3    50  ARG50       0.0492
     26  CD        37.3800   18.0490   54.8560 C.3    50  ARG50       0.2205
     27  NE        36.5430   18.0100   53.6230 N.pl3  50  ARG50      -0.0865
     28  CZ        36.9930   17.4930   52.4900 C.cat  50  ARG50       0.5346
     29  NH1       38.2200   16.9450   52.4430 N.pl3  50  ARG50       0.1354
     30  NH2       36.2170   17.5120   51.4240 N.pl3  50  ARG50       0.1354
     31  N         40.9530   15.2880   57.8870 N.am   51  SER51      -0.1936
     32  CA        42.3100   15.3010   58.4550 C.3    51  SER51       0.2055
     33  C         43.0400   16.6410   58.3860 C.2    51  SER51       0.2644
     34  O         42.5820   17.5540   57.7500 O.2    51  SER51      -0.2714
     35  CB        43.1910   14.2410   57.7930 C.3    51  SER51       0.2130
     36  OG        43.3310   14.4940   56.3860 O.3    51  SER51      -0.2179
     37  N         44.2470   16.6810   58.9590 N.am   52  THR52      -0.1937
     38  CA        44.9350   17.9310   59.3120 C.3    52  THR52       0.2013
     39  C         43.9310   19.0270   59.7430 C.2    52  THR52       0.2484
     40  O         43.5580   19.9030   58.9370 O.2    52  THR52      -0.2729
     41  CB        45.9810   18.4470   58.2130 C.3    52  THR52       0.1807
     42  OG1       45.4910   19.6090   57.4980 O.3    52  THR52      -0.2208
     43  CG2       46.4100   17.3200   57.2300 C.3    52  THR52       0.0379
     44  N         43.4670   18.9760   61.0120 N.am   53  PRO53      -0.2726
     45  CA        42.5100   20.0520   61.4010 C.3    53  PRO53       0.1402
     46  C         43.0850   21.5150   61.1530 C.2    53  PRO53       0.2269
     47  O         42.4610   22.3060   60.4410 O.2    53  PRO53      -0.2865
     48  CB        42.2160   19.7410   62.9000 C.3    53  PRO53       0.0296
     49  CG        43.4660   18.8960   63.3700 C.3    53  PRO53       0.0237
     50  CD        43.7760   18.0570   62.1320 C.3    53  PRO53       0.0939
     51  N         44.0900   20.8780   70.4390 N.3    85  GLN85      -0.1245
     52  CA        43.2080   21.4650   71.4450 C.3    85  GLN85       0.1566
     53  C         42.9010   20.6150   72.7050 C.2    85  GLN85       0.2260
     54  O         42.5270   19.4500   72.5780 O.2    85  GLN85      -0.2867
     55  CB        41.9490   21.9540   70.7320 C.3    85  GLN85       0.0367
     56  CG        42.0530   23.4320   70.2590 C.3    85  GLN85       0.0905
     57  CD        43.4090   23.7210   69.6600 C.2    85  GLN85       0.2608
     58  OE1       44.2970   24.3290   70.3170 O.2    85  GLN85      -0.2717
     59  NE2       43.6220   23.2230   68.4110 N.am   85  GLN85      -0.0878
     60  N         28.9540   19.2760   57.3340 N.3   146  ILE146     -0.1245
     61  CA        29.3410   18.9600   58.6740 C.3   146  ILE146      0.1561
     62  C         28.2420   19.4010   59.5780 C.2   146  ILE146      0.2260
     63  O         28.2510   19.1020   60.7600 O.2   146  ILE146     -0.2867
     64  CB        30.6010   19.6750   59.0080 C.3   146  ILE146      0.0252
     65  CG1       31.0010   19.3940   60.4060 C.3   146  ILE146      0.0019
     66  CG2       30.3280   21.1380   59.0200 C.3   146  ILE146      0.0019
     67  CD1       31.0510   18.0100   60.7180 C.3   146  ILE146      0.0001
     68  N         36.0690    9.0270   68.7270 N.3   197  MET197     -0.1230
     69  CA        37.3450    8.9800   68.0750 C.3   197  MET197      0.1702
     70  C         38.0650   10.3030   68.3500 C.2   197  MET197      0.2592
     71  O         39.1910   10.3130   68.7890 O.2   197  MET197     -0.2718
     72  CB        37.2290    8.6570   66.5620 C.3   197  MET197      0.0401
     73  CG        38.5700    8.5720   65.8030 C.3   197  MET197      0.0596
     74  SD        38.3580    8.4910   63.9880 S.3   197  MET197     -0.1393
     75  CE        37.9800   10.2580   63.7410 C.3   197  MET197      0.0692
     76  N         37.3550   11.4090   68.1360 N.am  198  ILE198     -0.1980
     77  CA        37.9770   12.7320   68.0070 C.3   198  ILE198      0.1595
     78  C         38.5130   13.1450   69.3770 C.2   198  ILE198      0.2287
     79  O         39.6370   13.6720   69.4590 O.2   198  ILE198     -0.2864
     80  CB        36.9580   13.7630   67.4340 C.3   198  ILE198      0.0276
     81  CG1       36.7130   13.5040   65.9220 C.3   198  ILE198      0.0022
     82  CG2       37.4230   15.2040   67.7460 C.3   198  ILE198      0.0022
     83  CD1       37.9530   13.7380   65.0120 C.3   198  ILE198      0.0001
     84  N         42.0400   12.2230   70.3060 N.3   201  TYR201     -0.1241
     85  CA        43.1160   12.7820   69.4770 C.3   201  TYR201      0.1605
     86  C         44.1790   13.5440   70.2470 C.2   201  TYR201      0.2264
     87  O         45.3680   13.4450   69.9580 O.2   201  TYR201     -0.2867
     88  CB        42.5390   13.6510   68.3810 C.3   201  TYR201      0.0534
     89  CG        43.6420   14.2090   67.4780 C.ar  201  TYR201     -0.0201
     90  CD1       44.0640   13.4930   66.3940 C.ar  201  TYR201     -0.0009
     91  CD2       44.2530   15.4850   67.7380 C.ar  201  TYR201     -0.0009
     92  CE1       45.0460   13.9540   65.5890 C.ar  201  TYR201      0.0417
     93  CE2       45.2560   15.9520   66.9320 C.ar  201  TYR201      0.0417
     94  CZ        45.6570   15.1700   65.8610 C.ar  201  TYR201      0.1957
     95  OH        46.6950   15.5460   65.0280 O.3   201  TYR201     -0.2866
     96  N         47.4160   10.8480   68.6760 N.3   205  HIS205     -0.1241
     97  CA        47.2210   11.1000   67.2210 C.3   205  HIS205      0.1621
     98  C         47.0890    9.8530   66.3290 C.2   205  HIS205      0.2264
     99  O         46.6580    9.9310   65.1680 O.2   205  HIS205     -0.2867
    100  CB        48.4270   11.8830   66.7160 C.3   205  HIS205      0.0745
    101  CG        48.4920   13.3020   67.2080 C.ar  205  HIS205      0.0817
    102  ND1       47.8210   13.7500   68.3400 N.ar  205  HIS205     -0.2268
    103  CD2       49.1600   14.3760   66.7190 C.ar  205  HIS205      0.1154
    104  CE1       48.0690   15.0330   68.5140 C.ar  205  HIS205      0.1986
    105  NE2       48.8660   15.4340   67.5410 N.ar  205  HIS205     -0.2212
    106  N         44.9360    7.7240   67.0380 N.3   207  CYS207     -0.1221
    107  CA        43.5760    7.2770   67.1490 C.3   207  CYS207      0.1808
    108  C         42.8540    7.5360   65.8580 C.2   207  CYS207      0.2601
    109  O         42.5150    8.6150   65.6250 O.2   207  CYS207     -0.2717
    110  CB        42.8520    7.8930   68.3170 C.3   207  CYS207      0.0970
    111  SG        41.2180    7.2070   68.3730 S.3   207  CYS207     -0.0800
    112  N         42.6180    6.5570   65.0120 N.am  208  GLU208     -0.1979
    113  CA        41.9070    6.8080   63.7800 C.3   208  GLU208      0.1602
    114  C         40.6620    5.9510   63.6130 C.2   208  GLU208      0.2287
    115  O         40.2110    5.7580   62.4800 O.2   208  GLU208     -0.2864
    116  CB        42.8200    6.5240   62.5860 C.3   208  GLU208      0.0415
    117  CG        44.1380    7.4290   62.5870 C.3   208  GLU208      0.1163
    118  CD        44.7960    7.5750   61.2000 C.2   208  GLU208      0.3649
    119  OE1       45.7180    6.7840   60.8510 O.co2 208  GLU208     -0.2457
    120  OE2       44.3620    8.4420   60.3950 O.co2 208  GLU208     -0.2457
    121  N         39.1240    6.5720   59.8150 N.3   222  MET222     -0.1245
    122  CA        39.6170    7.5380   58.8150 C.3   222  MET222      0.1570
    123  C         39.9310    6.9130   57.4270 C.2   222  MET222      0.2261
    124  O         40.7790    6.0530   57.3890 O.2   222  MET222     -0.2867
    125  CB        40.8370    8.1650   59.3380 C.3   222  MET222      0.0387
    126  CG        40.6900    8.8300   60.6170 C.3   222  MET222      0.0595
    127  SD        39.5330   10.2690   60.5310 S.3   222  MET222     -0.1393
    128  CE        40.0320   11.1880   58.9980 C.3   222  MET222      0.0692
    129  N         34.9930   19.4980   70.2080 N.3   438  LEU438     -0.1231
    130  CA        36.3000   19.5750   69.4590 C.3   438  LEU438      0.1693
    131  C         36.1640   19.8550   67.9060 C.2   438  LEU438      0.2591
    132  O         37.0580   20.4750   67.2970 O.2   438  LEU438     -0.2718
    133  CB        37.1870   18.3740   69.7350 C.3   438  LEU438      0.0284
    134  CG        38.0880   18.2540   70.9780 C.3   438  LEU438      0.0019
    135  CD1       38.7800   16.8390   71.1230 C.3   438  LEU438      0.0001
    136  CD2       39.2260   19.4230   71.0750 C.3   438  LEU438      0.0001
    137  N         35.0030   19.4960   67.3610 N.am  439  VAL439     -0.1980
    138  CA        34.7170   19.4570   65.9680 C.3   439  VAL439      0.1595
    139  C         34.0430   20.7630   65.6420 C.2   439  VAL439      0.2287
    140  O         34.5330   21.5080   64.7930 O.2   439  VAL439     -0.2864
    141  CB        33.8300   18.1540   65.5790 C.3   439  VAL439      0.0276
    142  CG1       33.1360   18.2730   64.2570 C.3   439  VAL439      0.0022
    143  CG2       34.6830   16.8570   65.5180 C.3   439  VAL439      0.0022
    144  N         36.5040   23.3530   65.3180 N.3   442  VAL442     -0.1231
    145  CA        37.2660   23.4680   64.0870 C.3   442  VAL442      0.1692
    146  C         36.3040   23.9500   63.0320 C.2   442  VAL442      0.2591
    147  O         36.7300   24.6120   62.1060 O.2   442  VAL442     -0.2718
    148  CB        37.9570   22.1560   63.6490 C.3   442  VAL442      0.0266
    149  CG1       38.1390   22.1270   62.1410 C.3   442  VAL442      0.0020
    150  CG2       39.3100   21.9850   64.3290 C.3   442  VAL442      0.0020
    151  N         35.0160   23.6500   63.1830 N.am  443  ALA443     -0.1980
    152  CA        34.0040   24.0640   62.2130 C.3   443  ALA443      0.1597
    153  C         33.8120   25.5510   62.2740 C.2   443  ALA443      0.2287
    154  O         33.5450   26.1700   61.2490 O.2   443  ALA443     -0.2864
    155  CB        32.6930   23.4190   62.4830 C.3   443  ALA443      0.0319
    156  N         35.8470   27.8620   60.2410 N.3   446  LYS446     -0.1245
    157  CA        35.2010   28.0640   58.9210 C.3   446  LYS446      0.1561
    158  C         33.8520   28.8240   59.0050 C.2   446  LYS446      0.2260
    159  O         32.9590   28.6080   58.1630 O.2   446  LYS446     -0.2867
    160  CB        35.0240   26.7050   58.1770 C.3   446  LYS446      0.0271
    161  CG        34.7560   26.7930   56.6520 C.3   446  LYS446      0.0035
    162  CD        35.6110   25.8150   55.8060 C.3   446  LYS446      0.0206
    163  CE        37.0710   26.3380   55.6380 C.3   446  LYS446      0.1093
    164  NZ        37.9100   25.5400   54.6800 N.3   446  LYS446     -0.1314
@<TRIPOS>BOND
     1    30    28    1
     2    12    11    1
     3    29    28    1
     4    28    27    2
     5     9    11   ar
     6     9     7   ar
     7    11    10   ar
     8    27    26    1
     9     7     6   ar
    10    10     8   ar
    11   164   163    1
    12    26    25    1
    13     8     6   ar
    14     6     5    1
    15   163   162    1
    16    25    24    1
    17   162   161    1
    18     5     2    1
    19    36    35    1
    20     2     1    1
    21     2     3    1
    22   161   160    1
    23    24    21    1
    24    43    41    1
    25    60    61    1
    26   124   123    2
    27   123   122    1
    28    42    41    1
    29     3     4    2
    30     3    13   am
    31    34    33    2
    32    21    22    1
    33    21    20    1
    34    35    32    1
    35    31    32    1
    36    31    22   am
    37    16    15    2
    38   159   158    2
    39   160   157    1
    40    41    38    1
    41    33    32    1
    42    33    37   am
    43    22    23    2
    44    61    64    1
    45    61    62    1
    46    13    14    1
    47    20    15   am
    48    15    14    1
    49   122   125    1
    50   122   121    1
    51   157   158    1
    52   157   156    1
    53    40    39    2
    54    37    38    1
    55   128   127    1
    56    64    66    1
    57    64    65    1
    58    38    39    1
    59   125   126    1
    60    14    17    1
    61    62    63    2
    62    39    44   am
    63   120   118   ar
    64    65    67    1
    65    47    46    2
    66   127   126    1
    67    17    19    1
    68    17    18    1
    69   119   118   ar
    70    44    45    1
    71    44    50    1
    72    46    45    1
    73   118   117    1
    74   154   153    2
    75    45    48    1
    76   147   146    2
    77    50    49    1
    78   149   148    1
    79   152   153    1
    80   152   155    1
    81   152   151    1
    82   115   114    2
    83   116   117    1
    84   116   113    1
    85    48    49    1
    86   146   151   am
    87   146   145    1
    88   114   113    1
    89   148   145    1
    90   148   150    1
    91    75    74    1
    92   113   112    1
    93    74    73    1
    94   145   144    1
    95   142   141    1
    96   140   139    2
    97    83    81    1
    98   112   108   am
    99    95    94    1
   100    99    98    2
   101   143   141    1
   102   141   138    1
   103    92    94   ar
   104    92    90   ar
   105   109   108    2
   106   139   138    1
   107    73    72    1
   108   108   107    1
   109    94    93   ar
   110    81    80    1
   111   138   137    1
   112    98    97    1
   113    90    89   ar
   114    72    69    1
   115   100   101    1
   116   100    97    1
   117   103   101   ar
   118   103   105   ar
   119    93    91   ar
   120   106   107    1
   121   107   110    1
   122   101   102   ar
   123    97    96    1
   124   132   131    2
   125   137   131   am
   126    80    82    1
   127    80    77    1
   128    89    91   ar
   129    89    88    1
   130   105   104   ar
   131   131   130    1
   132    77    76    1
   133    77    78    1
   134    69    70    1
   135    69    68    1
   136    76    70   am
   137   110   111    1
   138   102   104   ar
   139    70    71    2
   140    88    85    1
   141    59    57   am
   142    78    79    2
   143   130   133    1
   144   130   129    1
   145    85    86    1
   146    85    84    1
   147    57    56    1
   148    57    58    2
   149   133   134    1
   150    87    86    2
   151    56    55    1
   152    51    52    1
   153    55    52    1
   154   134   136    1
   155   134   135    1
   156    52    53    1
   157    54    53    2
