@<TRIPOS>MOLECULE
tmp/3golB00.pdb
 165 156 0 0 0
SMALL
GASTEIGER

@<TRIPOS>ATOM
      1  N         31.2570   57.4400   64.4250 N.3   189  PHE189     -0.1241
      2  CA        32.1490   57.7640   63.3060 C.3   189  PHE189      0.1605
      3  C         33.6200   57.7950   63.6930 C.2   189  PHE189      0.2264
      4  O         34.4870   58.0040   62.8420 O.2   189  PHE189     -0.2867
      5  CB        31.7590   59.0920   62.6570 C.3   189  PHE189      0.0534
      6  CG        30.4780   59.0210   61.8800 C.ar  189  PHE189     -0.0203
      7  CD1       30.3960   58.2570   60.7340 C.ar  189  PHE189     -0.0042
      8  CD2       29.3490   59.7100   62.2950 C.ar  189  PHE189     -0.0042
      9  CE1       29.2220   58.1870   60.0140 C.ar  189  PHE189     -0.0003
     10  CE2       28.1680   59.6380   61.5760 C.ar  189  PHE189     -0.0003
     11  CZ        28.1090   58.8760   60.4360 C.ar  189  PHE189     -0.0000
     12  N         35.5550   49.8140   61.0530 N.3   193  PRO193     -0.2116
     13  CA        34.7190   48.6090   61.2190 C.3   193  PRO193      0.1372
     14  C         35.2630   47.6380   62.2660 C.2   193  PRO193      0.2244
     15  O         34.4760   47.0080   62.9790 O.2   193  PRO193     -0.2868
     16  CB        34.7400   47.9620   59.8280 C.3   193  PRO193      0.0268
     17  CG        35.0230   49.1000   58.8920 C.3   193  PRO193      0.0207
     18  CD        35.9160   50.0630   59.6480 C.3   193  PRO193      0.0892
     19  N         34.6450   49.0900   65.7210 N.3   196  ARG196     -0.1245
     20  CA        33.2360   49.1670   66.0310 C.3   196  ARG196      0.1563
     21  C         32.7770   47.8430   66.6130 C.2   196  ARG196      0.2260
     22  O         32.1490   47.8050   67.6780 O.2   196  ARG196     -0.2867
     23  CB        32.4330   49.5040   64.7770 C.3   196  ARG196      0.0307
     24  CG        30.9760   49.6940   65.0650 C.3   196  ARG196      0.0489
     25  CD        30.1480   49.7430   63.8130 C.3   196  ARG196      0.2205
     26  NE        29.0320   50.6800   63.9720 N.pl3 196  ARG196     -0.0865
     27  CZ        27.7350   50.3750   63.9640 C.cat 196  ARG196      0.5346
     28  NH1       27.3110   49.1240   63.7880 N.pl3 196  ARG196      0.1354
     29  NH2       26.8460   51.3520   64.1160 N.pl3 196  ARG196      0.1354
     30  N         25.1770   57.0170   64.6300 N.3   312  ASN312     -0.1240
     31  CA        25.7660   57.4340   63.3670 C.3   312  ASN312      0.1653
     32  C         24.7000   58.1650   62.5780 C.2   312  ASN312      0.2266
     33  O         23.8230   57.5380   61.9880 O.2   312  ASN312     -0.2867
     34  CB        26.2700   56.2190   62.5740 C.3   312  ASN312      0.1155
     35  CG        27.5440   55.6330   63.1440 C.2   312  ASN312      0.2627
     36  OD1       28.6380   55.8860   62.6260 O.2   312  ASN312     -0.2716
     37  ND2       27.4150   54.8510   64.2220 N.am  312  ASN312     -0.0877
     38  N         21.1240   56.8970   62.4480 N.3   315  ASP315     -0.1239
     39  CA        21.1730   55.4860   62.7930 C.3   315  ASP315      0.1674
     40  C         21.6630   55.3250   64.2250 C.2   315  ASP315      0.2266
     41  O         22.4520   56.1200   64.7380 O.2   315  ASP315     -0.2867
     42  CB        22.0180   54.6830   61.7910 C.3   315  ASP315      0.1410
     43  CG        21.2440   54.3320   60.4980 C.2   315  ASP315      0.3668
     44  OD1       21.8000   53.5940   59.6540 O.co2 315  ASP315     -0.2456
     45  OD2       20.0860   54.7910   60.3170 O.co2 315  ASP315     -0.2456
     46  N         22.4310   47.2410   61.9480 N.3   361  SER361     -0.1202
     47  CA        22.8450   48.5490   62.4030 C.3   361  SER361      0.2020
     48  C         23.7870   49.1790   61.3720 C.2   361  SER361      0.2619
     49  O         24.8570   48.6240   61.0910 O.2   361  SER361     -0.2717
     50  CB        23.5470   48.3570   63.7480 C.3   361  SER361      0.2103
     51  OG        23.8980   49.5780   64.3470 O.3   361  SER361     -0.2182
     52  N         23.3950   50.3350   60.8190 N.am  362  CYS362     -0.1955
     53  CA        24.0550   50.9270   59.6390 C.3   362  CYS362      0.1843
     54  C         24.1680   49.8700   58.5470 C.2   362  CYS362      0.2626
     55  O         25.2620   49.6030   58.0340 O.2   362  CYS362     -0.2714
     56  CB        25.4400   51.4940   59.9700 C.3   362  CYS362      0.0997
     57  SG        25.4390   53.0210   60.8920 S.3   362  CYS362     -0.0797
     58  N         23.0230   49.2550   58.2310 N.am  363  SER363     -0.1936
     59  CA        22.9320   48.1760   57.2440 C.3   363  SER363      0.2055
     60  C         23.9110   47.0340   57.5010 C.2   363  SER363      0.2643
     61  O         24.3120   46.3340   56.5750 O.2   363  SER363     -0.2714
     62  CB        23.1280   48.7330   55.8280 C.3   363  SER363      0.2130
     63  OG        22.0460   49.5730   55.4740 O.3   363  SER363     -0.2179
     64  N         24.2850   46.8340   58.7570 N.am  364  SER364     -0.1949
     65  CA        25.3410   45.8780   59.0790 C.3   364  SER364      0.1924
     66  C         25.0810   45.1090   60.3580 C.2   364  SER364      0.2314
     67  O         24.2070   45.4630   61.1510 O.2   364  SER364     -0.2863
     68  CB        26.6840   46.5860   59.1870 C.3   364  SER364      0.2116
     69  OG        26.9830   47.2570   57.9820 O.3   364  SER364     -0.2180
     70  N         32.4870   42.7510   61.0200 N.3   380  LEU380     -0.1245
     71  CA        31.3230   43.4990   60.5980 C.3   380  LEU380      0.1561
     72  C         31.0310   43.0840   59.1610 C.2   380  LEU380      0.2260
     73  O         31.9450   43.0870   58.3260 O.2   380  LEU380     -0.2867
     74  CB        31.6620   44.9800   60.6880 C.3   380  LEU380      0.0270
     75  CG        30.5850   46.0410   60.8760 C.3   380  LEU380      0.0019
     76  CD1       29.9810   46.4350   59.5420 C.3   380  LEU380      0.0001
     77  CD2       29.5430   45.5750   61.8780 C.3   380  LEU380      0.0001
     78  N         27.4850   42.3720   56.0280 N.3   382  ARG382     -0.1245
     79  CA        26.4070   43.0630   55.3470 C.3   382  ARG382      0.1563
     80  C         25.5940   42.1050   54.4830 C.2   382  ARG382      0.2260
     81  O         26.0990   41.0900   54.0330 O.2   382  ARG382     -0.2867
     82  CB        27.0350   44.1260   54.4460 C.3   382  ARG382      0.0307
     83  CG        26.3250   45.4400   54.3950 C.3   382  ARG382      0.0489
     84  CD        26.6420   46.1710   53.1000 C.3   382  ARG382      0.2205
     85  NE        25.3840   46.4760   52.4370 N.pl3 382  ARG382     -0.0865
     86  CZ        24.7170   47.6190   52.5540 C.cat 382  ARG382      0.5346
     87  NH1       25.1950   48.6360   53.2720 N.pl3 382  ARG382      0.1354
     88  NH2       23.5640   47.7570   51.9150 N.pl3 382  ARG382      0.1354
     89  N         31.6110   52.7920   44.8210 N.3   403  SER403     -0.1217
     90  CA        31.2320   52.1540   46.0870 C.3   403  SER403      0.1889
     91  C         31.8630   50.7850   46.2380 C.2   403  SER403      0.2288
     92  O         32.1720   50.3860   47.3550 O.2   403  SER403     -0.2866
     93  CB        29.7010   52.0480   46.2540 C.3   403  SER403      0.2089
     94  OG        29.1060   51.2820   45.2260 O.3   403  SER403     -0.2183
     95  N         34.8110   51.3320   48.2450 N.3   406  GLY406     -0.1210
     96  CA        34.4530   51.5210   49.6490 C.3   406  GLY406      0.1956
     97  C         34.1160   50.2010   50.3190 C.2   406  GLY406      0.2611
     98  O         34.6340   49.8830   51.3830 O.2   406  GLY406     -0.2717
     99  N         33.2520   49.4180   49.6800 N.am  407  ASN407     -0.1974
    100  CA        32.8000   48.1450   50.2430 C.3   407  ASN407      0.1688
    101  C         33.9490   47.1840   50.4750 C.2   407  ASN407      0.2292
    102  O         33.9310   46.4490   51.4450 O.2   407  ASN407     -0.2864
    103  CB        31.7330   47.4860   49.3570 C.3   407  ASN407      0.1181
    104  CG        30.3290   48.0690   49.5750 C.2   407  ASN407      0.2629
    105  OD1       29.8460   48.1920   50.7070 O.2   407  ASN407     -0.2716
    106  ND2       29.6660   48.4110   48.4820 N.am  407  ASN407     -0.0877
    107  N         35.9230   48.5660   53.6400 N.3   410  MET410     -0.1230
    108  CA        35.1130   48.4000   54.8370 C.3   410  MET410      0.1702
    109  C         34.8010   46.9300   55.1540 C.2   410  MET410      0.2592
    110  O         34.8860   46.5320   56.3120 O.2   410  MET410     -0.2718
    111  CB        33.8450   49.2320   54.7150 C.3   410  MET410      0.0401
    112  CG        34.1480   50.7470   54.5640 C.3   410  MET410      0.0596
    113  SD        34.5930   51.6000   56.1040 S.3   410  MET410     -0.1393
    114  CE        32.9940   51.6630   56.9340 C.3   410  MET410      0.0692
    115  N         34.4920   46.1230   54.1370 N.am  411  TYR411     -0.1976
    116  CA        34.1070   44.7210   54.3370 C.3   411  TYR411      0.1639
    117  C         35.1620   43.7760   53.8060 C.2   411  TYR411      0.2290
    118  O         34.8360   42.7120   53.2750 O.2   411  TYR411     -0.2864
    119  CB        32.7420   44.4270   53.6880 C.3   411  TYR411      0.0560
    120  CG        31.6690   45.3230   54.2460 C.ar  411  TYR411     -0.0198
    121  CD1       31.1450   45.0990   55.5140 C.ar  411  TYR411     -0.0009
    122  CD2       31.2160   46.4360   53.5320 C.ar  411  TYR411     -0.0009
    123  CE1       30.1850   45.9490   56.0480 C.ar  411  TYR411      0.0417
    124  CE2       30.2550   47.2850   54.0540 C.ar  411  TYR411      0.0417
    125  CZ        29.7410   47.0400   55.3110 C.ar  411  TYR411      0.1957
    126  OH        28.7830   47.8820   55.8290 O.3   411  TYR411     -0.2866
    127  N         34.1010   56.7520   48.6470 N.3   442  GLN442     -0.1231
    128  CA        33.8290   57.5510   49.8310 C.3   442  GLN442      0.1698
    129  C         33.4570   56.8460   51.1380 C.2   442  GLN442      0.2592
    130  O         32.5820   55.9800   51.1690 O.2   442  GLN442     -0.2718
    131  CB        32.8280   58.6420   49.4480 C.3   442  GLN442      0.0381
    132  CG        31.3830   58.4730   49.8220 C.3   442  GLN442      0.0905
    133  CD        30.5990   59.7520   49.5250 C.2   442  GLN442      0.2608
    134  OE1       29.3770   59.7940   49.6500 O.2   442  GLN442     -0.2717
    135  NE2       31.3130   60.8050   49.1290 N.am  442  GLN442     -0.0878
    136  N         34.1500   57.2450   52.2140 N.am  443  ILE443     -0.1966
    137  CA        34.0540   56.6100   53.5460 C.3   443  ILE443      0.1727
    138  C         33.5050   57.5590   54.6050 C.2   443  ILE443      0.2616
    139  O         34.0500   58.6510   54.8240 O.2   443  ILE443     -0.2715
    140  CB        35.4320   56.1500   54.0620 C.3   443  ILE443      0.0290
    141  CG1       36.0440   55.1130   53.1260 C.3   443  ILE443      0.0022
    142  CG2       35.3110   55.5770   55.4830 C.3   443  ILE443      0.0023
    143  CD1       37.4950   54.8140   53.4540 C.3   443  ILE443      0.0001
    144  N         32.4680   57.0990   55.2990 N.am  444  TYR444     -0.1960
    145  CA        31.7690   57.9140   56.2790 C.3   444  TYR444      0.1771
    146  C         31.5740   59.3250   55.7380 C.2   444  TYR444      0.2620
    147  O         32.0100   60.3010   56.3710 O.2   444  TYR444     -0.2715
    148  CB        32.5430   58.0240   57.5990 C.3   444  TYR444      0.0574
    149  CG        32.6770   56.7820   58.4580 C.ar  444  TYR444     -0.0198
    150  CD1       32.1040   55.5650   58.1030 C.ar  444  TYR444     -0.0009
    151  CD2       33.3670   56.8550   59.6730 C.ar  444  TYR444     -0.0009
    152  CE1       32.2420   54.4620   58.9180 C.ar  444  TYR444      0.0417
    153  CE2       33.4950   55.7650   60.4910 C.ar  444  TYR444      0.0417
    154  CZ        32.9380   54.5760   60.1090 C.ar  444  TYR444      0.1957
    155  OH        33.0840   53.5030   60.9310 O.3   444  TYR444     -0.2866
    156  N         30.9610   59.4340   54.5600 N.am  445  GLY445     -0.1954
    157  CA        30.5910   60.7400   54.0200 C.3   445  GLY445      0.1869
    158  C         31.7120   61.4960   53.3400 C.2   445  GLY445      0.2309
    159  O         31.4950   62.0610   52.2800 O.2   445  GLY445     -0.2863
    160  N         28.4910   63.2850   55.6570 N.3   552  SER552     -0.1217
    161  CA        27.5450   62.9830   54.5850 C.3   552  SER552      0.1889
    162  C         26.6670   64.1770   54.1970 C.2   552  SER552      0.2288
    163  O         25.8360   64.6220   54.9840 O.2   552  SER552     -0.2866
    164  CB        26.6810   61.7840   54.9760 C.3   552  SER552      0.2089
    165  OG        27.4820   60.6090   54.9680 O.3   552  SER552     -0.2183
@<TRIPOS>BOND
     1    89    90    1
     2    94    93    1
     3    90    91    1
     4    90    93    1
     5    91    92    2
     6    95    96    1
     7   106   104   am
     8   127   128    1
     9   135   133   am
    10   103   104    1
    11   103   100    1
    12   131   132    1
    13   131   128    1
    14   133   134    2
    15   133   132    1
    16   104   105    2
    17    96    97    1
    18    99   100    1
    19    99    97   am
    20   128   129    1
    21   100   101    1
    22    97    98    2
    23   101   102    2
    24   129   130    2
    25   129   136   am
    26    88    86    1
    27   136   137    1
    28   159   158    2
    29    85    86    2
    30    85    84    1
    31    86    87    1
    32    84    83    1
    33   141   143    1
    34   141   140    1
    35   118   117    2
    36   158   157    1
    37   122   124   ar
    38   122   120   ar
    39   137   140    1
    40   137   138    1
    41   107   108    1
    42   119   120    1
    43   119   116    1
    44   117   116    1
    45   157   156    1
    46    81    80    2
    47   124   125   ar
    48   140   142    1
    49   115   116    1
    50   115   109   am
    51   162   161    1
    52   162   163    2
    53   120   121   ar
    54    83    82    1
    55    82    79    1
    56    80    79    1
    57   156   146   am
    58   112   111    1
    59   112   113    1
    60   161   164    1
    61   161   160    1
    62   138   139    2
    63   138   144   am
    64   111   108    1
    65   108   109    1
    66   165   164    1
    67   109   110    2
    68   144   145    1
    69   125   126    1
    70   125   123   ar
    71    79    78    1
    72    63    62    1
    73   121   123   ar
    74   146   145    1
    75   146   147    2
    76    62    59    1
    77   113   114    1
    78   145   148    1
    79    61    60    2
    80    59    60    1
    81    59    58    1
    82    60    64   am
    83   148   149    1
    84    69    68    1
    85    55    54    2
    86   150   149   ar
    87   150   152   ar
    88    58    54   am
    89    73    72    2
    90   149   151   ar
    91    54    53    1
    92    64    65    1
    93    17    18    1
    94    17    16    1
    95   152   154   ar
    96    65    68    1
    97    65    66    1
    98    72    71    1
    99    76    75    1
   100    53    56    1
   101    53    52    1
   102    18    12    1
   103    44    43   ar
   104   151   153   ar
   105    16    13    1
   106    56    57    1
   107     9    11   ar
   108     9     7   ar
   109   154   153   ar
   110   154   155    1
   111    45    43   ar
   112    66    67    2
   113    11    10   ar
   114    43    42    1
   115    71    74    1
   116    71    70    1
   117    74    75    1
   118     7     6   ar
   119    52    48   am
   120    75    77    1
   121    12    13    1
   122    49    48    2
   123    13    14    1
   124    48    47    1
   125    10     8   ar
   126    42    39    1
   127     6     8   ar
   128     6     5    1
   129    46    47    1
   130    33    32    2
   131    14    15    2
   132    47    50    1
   133    38    39    1
   134    34    35    1
   135    34    31    1
   136    32    31    1
   137    36    35    2
   138     5     2    1
   139    39    40    1
   140     4     3    2
   141    35    37   am
   142     2     3    1
   143     2     1    1
   144    31    30    1
   145    50    51    1
   146    28    27    1
   147    25    26    1
   148    25    24    1
   149    27    26    2
   150    27    29    1
   151    40    41    2
   152    23    24    1
   153    23    20    1
   154    19    20    1
   155    20    21    1
   156    21    22    2
