@<TRIPOS>MOLECULE
tmp/3gonA01.pdb
 168 155 0 0 0
SMALL
GASTEIGER

@<TRIPOS>ATOM
      1  N         23.2230   27.1470   -0.1300 N.3     9  LYS9       -0.1245
      2  CA        23.4090   26.1600    0.9280 C.3     9  LYS9        0.1561
      3  C         22.3810   25.0270    0.8980 C.2     9  LYS9        0.2260
      4  O         21.2740   25.1950    0.3920 O.2     9  LYS9       -0.2867
      5  CB        23.3290   26.8520    2.2860 C.3     9  LYS9        0.0271
      6  CG        21.9510   27.4500    2.5770 C.3     9  LYS9        0.0035
      7  CD        21.0740   26.4710    3.3610 C.3     9  LYS9        0.0206
      8  CE        19.5850   26.7770    3.1990 C.3     9  LYS9        0.1093
      9  NZ        19.0820   26.3710    1.8450 N.3     9  LYS9       -0.1314
     10  N         24.8800   34.0130   -6.1720 N.3    34  MET34      -0.1245
     11  CA        24.0460   35.1970   -6.2940 C.3    34  MET34       0.1570
     12  C         25.1760   36.2150   -6.4690 C.2    34  MET34       0.2261
     13  O         26.2170   36.1080   -5.8090 O.2    34  MET34      -0.2867
     14  CB        23.2810   35.5120   -4.9960 C.3    34  MET34       0.0387
     15  CG        22.0070   34.7060   -4.7700 C.3    34  MET34       0.0595
     16  SD        20.8270   34.8300   -6.1260 S.3    34  MET34      -0.1393
     17  CE        20.5150   36.6110   -6.1750 C.3    34  MET34       0.0692
     18  N         17.0720   43.8830   -8.5800 N.3    48  SER48      -0.1202
     19  CA        17.3380   42.4540   -8.4210 C.3    48  SER48       0.2020
     20  C         16.6330   41.7700   -9.5820 C.2    48  SER48       0.2619
     21  O         15.4610   42.0550   -9.8410 O.2    48  SER48      -0.2717
     22  CB        16.7740   41.9440   -7.1040 C.3    48  SER48       0.2103
     23  OG        16.8060   40.5300   -7.0820 O.3    48  SER48      -0.2182
     24  N         17.3130   40.8640  -10.2800 N.am   49  ASP49      -0.1959
     25  CA        16.6650   40.2290  -11.4190 C.3    49  ASP49       0.1840
     26  C         15.5190   39.2940  -11.0730 C.2    49  ASP49       0.2622
     27  O         14.9330   38.6690  -11.9520 O.2    49  ASP49      -0.2715
     28  CB        17.6840   39.5490  -12.3590 C.3    49  ASP49       0.1450
     29  CG        18.3700   38.3400  -11.7560 C.2    49  ASP49       0.3671
     30  OD1       18.0720   37.9480  -10.6070 O.co2  49  ASP49      -0.2456
     31  OD2       19.2320   37.7760  -12.4700 O.co2  49  ASP49      -0.2456
     32  N         15.1730   39.2290   -9.7930 N.am   50  MET50      -0.1963
     33  CA        14.0510   38.4100   -9.3660 C.3    50  MET50       0.1736
     34  C         12.7750   39.1720   -9.7350 C.2    50  MET50       0.2616
     35  O         11.6980   38.5920   -9.8160 O.2    50  MET50      -0.2715
     36  CB        14.0770   38.2130   -7.8520 C.3    50  MET50       0.0427
     37  CG        13.2600   37.0350   -7.3740 C.3    50  MET50       0.0599
     38  SD        12.9990   37.0350   -5.5920 S.3    50  MET50      -0.1393
     39  CE        11.2120   36.7050   -5.5330 C.3    50  MET50       0.0692
     40  N         12.9190   40.4780   -9.9590 N.am   51  PHE51      -0.1974
     41  CA        11.7840   41.3460  -10.2770 C.3    51  PHE51       0.1639
     42  C         11.9360   42.0510  -11.6280 C.2    51  PHE51       0.2290
     43  O         12.9770   41.9450  -12.2710 O.2    51  PHE51      -0.2864
     44  CB        11.6270   42.3740   -9.1570 C.3    51  PHE51       0.0560
     45  CG        11.6540   41.7700   -7.7800 C.ar   51  PHE51      -0.0200
     46  CD1       10.6610   40.8830   -7.3730 C.ar   51  PHE51      -0.0042
     47  CD2       12.6940   42.0560   -6.9040 C.ar   51  PHE51      -0.0042
     48  CE1       10.7040   40.2870   -6.1110 C.ar   51  PHE51      -0.0003
     49  CE2       12.7480   41.4650   -5.6430 C.ar   51  PHE51      -0.0003
     50  CZ        11.7510   40.5790   -5.2450 C.ar   51  PHE51      -0.0000
     51  N          8.4740   43.9250   -2.2730 N.3    62  ASP62      -0.1239
     52  CA         9.3210   42.9900   -3.0170 C.3    62  ASP62       0.1674
     53  C         10.7640   43.1110   -2.5450 C.2    62  ASP62       0.2266
     54  O         11.4510   42.1050   -2.3570 O.2    62  ASP62      -0.2867
     55  CB         9.2790   43.2790   -4.5220 C.3    62  ASP62       0.1410
     56  CG         8.1150   42.5980   -5.2270 C.2    62  ASP62       0.3668
     57  OD1        7.3190   41.9090   -4.5620 O.co2  62  ASP62      -0.2456
     58  OD2        8.0010   42.7510   -6.4610 O.co2  62  ASP62      -0.2456
     59  N         13.4920   42.9160    2.0900 N.3    65  LEU65      -0.1231
     60  CA        14.6350   42.2250    2.6950 C.3    65  LEU65       0.1693
     61  C         15.9450   42.9380    2.3650 C.2    65  LEU65       0.2591
     62  O         16.8040   43.1110    3.2300 O.2    65  LEU65      -0.2718
     63  CB        14.6950   40.7720    2.2180 C.3    65  LEU65       0.0284
     64  CG        15.8270   39.8900    2.7630 C.3    65  LEU65       0.0019
     65  CD1       15.7700   39.8180    4.2760 C.3    65  LEU65       0.0001
     66  CD2       15.7070   38.4970    2.1710 C.3    65  LEU65       0.0001
     67  N         16.0840   43.3540    1.1110 N.am   66  ILE66      -0.1980
     68  CA        17.2840   44.0520    0.6590 C.3    66  ILE66       0.1595
     69  C         17.3620   45.4370    1.3000 C.2    66  ILE66       0.2287
     70  O         18.4210   45.8630    1.7610 O.2    66  ILE66      -0.2864
     71  CB        17.2800   44.2000   -0.8930 C.3    66  ILE66       0.0276
     72  CG1       17.3760   42.8240   -1.5520 C.3    66  ILE66       0.0022
     73  CG2       18.4240   45.1120   -1.3440 C.3    66  ILE66       0.0022
     74  CD1       17.2440   42.8770   -3.0650 C.3    66  ILE66       0.0001
     75  N         21.6080   43.2030   -8.3580 N.3    91  ILE91      -0.1245
     76  CA        21.6810   41.8430   -7.8420 C.3    91  ILE91       0.1561
     77  C         21.1660   40.8900   -8.9160 C.2    91  ILE91       0.2260
     78  O         20.0560   41.0500   -9.4200 O.2    91  ILE91      -0.2867
     79  CB        20.8240   41.7130   -6.5620 C.3    91  ILE91       0.0252
     80  CG1       21.4280   42.5990   -5.4650 C.3    91  ILE91       0.0019
     81  CG2       20.7420   40.2560   -6.1240 C.3    91  ILE91       0.0019
     82  CD1       20.5540   42.7560   -4.2280 C.3    91  ILE91       0.0001
     83  N         19.6420   35.0100   -9.7670 N.3    94  LYS94      -0.1245
     84  CA        18.5620   34.4590   -8.9420 C.3    94  LYS94       0.1561
     85  C         18.5700   32.9450   -8.9960 C.2    94  LYS94       0.2260
     86  O         18.5080   32.3490  -10.0720 O.2    94  LYS94      -0.2867
     87  CB        17.1990   34.9890   -9.4100 C.3    94  LYS94       0.0271
     88  CG        16.9190   34.8080  -10.8950 C.3    94  LYS94       0.0035
     89  CD        15.5450   35.3590  -11.2700 C.3    94  LYS94       0.0206
     90  CE        15.2890   35.2560  -12.7710 C.3    94  LYS94       0.1093
     91  NZ        13.9520   35.7870  -13.1690 N.3    94  LYS94      -0.1314
     92  N         12.1780   28.5970   -7.5020 N.3   101  LYS101     -0.1245
     93  CA        13.4250   28.6070   -6.7340 C.3   101  LYS101      0.1561
     94  C         13.9270   27.1760   -6.5820 C.2   101  LYS101      0.2260
     95  O         13.1250   26.2380   -6.5650 O.2   101  LYS101     -0.2867
     96  CB        13.1890   29.2080   -5.3440 C.3   101  LYS101      0.0271
     97  CG        11.9280   28.6830   -4.6570 C.3   101  LYS101      0.0035
     98  CD        11.9960   28.7470   -3.1280 C.3   101  LYS101      0.0206
     99  CE        12.6410   27.4950   -2.5510 C.3   101  LYS101      0.1093
    100  NZ        12.4120   27.3650   -1.0800 N.3   101  LYS101     -0.1314
    101  N         15.9050   26.0970   -3.9190 N.3   103  GLY103     -0.1210
    102  CA        15.8510   25.7620   -2.5010 C.3   103  GLY103      0.1956
    103  C         17.2240   25.9060   -1.8690 C.2   103  GLY103      0.2612
    104  O         17.4760   25.3840   -0.7710 O.2   103  GLY103     -0.2717
    105  N         18.1060   26.6360   -2.5510 N.am  104  LEU104     -0.1965
    106  CA        19.4870   26.8540   -2.1060 C.3   104  LEU104      0.1728
    107  C         19.7090   27.9620   -1.0710 C.2   104  LEU104      0.2617
    108  O         20.8520   28.3260   -0.7920 O.2   104  LEU104     -0.2715
    109  CB        20.3910   27.1240   -3.3170 C.3   104  LEU104      0.0311
    110  CG        20.4810   26.0070   -4.3600 C.3   104  LEU104      0.0022
    111  CD1       21.4090   26.4310   -5.4800 C.3   104  LEU104      0.0001
    112  CD2       20.9660   24.7350   -3.7180 C.3   104  LEU104      0.0001
    113  N         18.6340   28.4930   -0.5080 N.am  105  GLY105     -0.1940
    114  CA        18.7790   29.5280    0.5020 C.3   105  GLY105      0.2014
    115  C         19.0080   30.9320   -0.0420 C.2   105  GLY105      0.2640
    116  O         19.8250   31.6860    0.4840 O.2   105  GLY105     -0.2714
    117  N         18.2660   31.2870   -1.0860 N.am  106  SER106     -0.1935
    118  CA        18.3990   32.5990   -1.6980 C.3   106  SER106      0.2055
    119  C         18.1330   33.7490   -0.7260 C.2   106  SER106      0.2643
    120  O         18.7730   34.7960   -0.8140 O.2   106  SER106     -0.2714
    121  CB        17.4660   32.7190   -2.9000 C.3   106  SER106      0.2130
    122  OG        17.7400   33.9220   -3.5920 O.3   106  SER106     -0.2179
    123  N         17.1950   33.5570    0.1980 N.am  107  SER107     -0.1949
    124  CA        16.8800   34.6020    1.1690 C.3   107  SER107      0.1924
    125  C         18.1360   34.9330    1.9700 C.2   107  SER107      0.2314
    126  O         18.5290   36.0970    2.0850 O.2   107  SER107     -0.2863
    127  CB        15.7620   34.1400    2.1110 C.3   107  SER107      0.2116
    128  OG        16.1380   32.9640    2.8120 O.3   107  SER107     -0.2180
    129  N         21.0790   36.5130   -0.3180 N.3   110  VAL110     -0.1245
    130  CA        20.9460   37.9220   -0.6890 C.3   110  VAL110      0.1561
    131  C         21.2860   38.8600    0.4650 C.2   110  VAL110      0.2260
    132  O         21.7770   39.9670    0.2400 O.2   110  VAL110     -0.2867
    133  CB        19.5160   38.2670   -1.2260 C.3   110  VAL110      0.0252
    134  CG1       18.4900   38.1480   -0.1370 C.3   110  VAL110      0.0019
    135  CG2       19.4990   39.6870   -1.7610 C.3   110  VAL110      0.0019
    136  N         13.3630   41.4850   11.6410 N.3   142  ARG142     -0.1245
    137  CA        12.0970   41.3560   10.9290 C.3   142  ARG142      0.1563
    138  C         11.3000   40.1590   11.4340 C.2   142  ARG142      0.2260
    139  O         10.2990   39.7720   10.8320 O.2   142  ARG142     -0.2867
    140  CB        12.3220   41.2500    9.4140 C.3   142  ARG142      0.0307
    141  CG        13.2200   40.1200    8.9730 C.3   142  ARG142      0.0489
    142  CD        12.7940   39.6020    7.6070 C.3   142  ARG142      0.2205
    143  NE        12.5260   40.6770    6.6510 N.pl3 142  ARG142     -0.0865
    144  CZ        11.9880   40.4880    5.4480 C.cat 142  ARG142      0.5346
    145  NH1       11.6570   39.2680    5.0480 N.pl3 142  ARG142      0.1354
    146  NH2       11.7790   41.5190    4.6420 N.pl3 142  ARG142      0.1354
    147  N         21.4450   28.9170    7.3490 N.3   150  ASP150     -0.1239
    148  CA        21.8180   29.2290    5.9730 C.3   150  ASP150      0.1674
    149  C         22.8740   30.3290    5.9540 C.2   150  ASP150      0.2266
    150  O         23.8260   30.2660    5.1740 O.2   150  ASP150     -0.2867
    151  CB        20.5800   29.6220    5.1450 C.3   150  ASP150      0.1410
    152  CG        19.8100   30.7950    5.7380 C.2   150  ASP150      0.3668
    153  OD1       19.7430   30.9160    6.9760 O.co2 150  ASP150     -0.2456
    154  OD2       19.2440   31.5860    4.9470 O.co2 150  ASP150     -0.2456
    155  N          9.9630   27.7700    2.9800 N.3   213  SER213     -0.1217
    156  CA        10.5530   27.4880    4.2900 C.3   213  SER213      0.1889
    157  C          9.7550   27.9730    5.4960 C.2   213  SER213      0.2288
    158  O          9.5190   27.2140    6.4360 O.2   213  SER213     -0.2866
    159  CB        11.9620   28.0780    4.3640 C.3   213  SER213      0.2089
    160  OG        12.8060   27.4880    3.3950 O.3   213  SER213     -0.2183
    161  N         11.5790   21.2440   -3.1310 N.3   297  ASP297     -0.1239
    162  CA        12.9840   21.5990   -3.2930 C.3   297  ASP297      0.1674
    163  C         13.8880   20.4020   -3.5920 C.2   297  ASP297      0.2266
    164  O         13.5400   19.5460   -4.4030 O.2   297  ASP297     -0.2867
    165  CB        13.4920   22.3570   -2.0580 C.3   297  ASP297      0.1410
    166  CG        12.8410   23.7290   -1.8980 C.2   297  ASP297      0.3668
    167  OD1       12.0620   24.1440   -2.7870 O.co2 297  ASP297     -0.2456
    168  OD2       13.1170   24.4010   -0.8770 O.co2 297  ASP297     -0.2456
@<TRIPOS>BOND
     1    91    90    1
     2    90    89    1
     3    31    29   ar
     4    28    29    1
     5    28    25    1
     6    43    42    2
     7    27    26    2
     8    29    30   ar
     9    42    41    1
    10    25    26    1
    11    25    24    1
    12    89    88    1
    13    26    32   am
    14    88    87    1
    15    24    20   am
    16    41    40    1
    17    41    44    1
    18    86    85    2
    19    40    34   am
    20    21    20    2
    21    35    34    2
    22    32    33    1
    23    83    84    1
    24    34    33    1
    25    20    19    1
    26    78    77    2
    27    87    84    1
    28    33    36    1
    29    44    45    1
    30    85    84    1
    31    77    76    1
    32    18    19    1
    33    19    22    1
    34    75    76    1
    35    36    37    1
    36    76    79    1
    37    45    46   ar
    38    45    47   ar
    39    92    93    1
    40    37    38    1
    41    46    48   ar
    42    22    23    1
    43    47    49   ar
    44    93    94    1
    45    93    96    1
    46    94    95    2
    47    79    81    1
    48    79    80    1
    49    12    11    1
    50    12    13    2
    51    58    56   ar
    52    11    10    1
    53    11    14    1
    54    17    16    1
    55    16    15    1
    56    48    50   ar
    57    49    50   ar
    58    38    39    1
    59   111   110    1
    60    80    82    1
    61    96    97    1
    62    56    57   ar
    63    56    55    1
    64    14    15    1
    65    97    98    1
    66    55    52    1
    67   164   163    2
    68   110   112    1
    69   110   109    1
    70   101   102    1
    71   163   162    1
    72   122   121    1
    73   109   106    1
    74   162   161    1
    75   162   165    1
    76    98    99    1
    77    74    72    1
    78    52    53    1
    79    52    51    1
    80   121   118    1
    81   167   166   ar
    82    99   100    1
    83   105   106    1
    84   105   103   am
    85    53    54    2
    86   102   103    1
    87   106   107    1
    88   165   166    1
    89   166   168   ar
    90   103   104    2
    91   135   133    1
    92   118   117    1
    93   118   119    1
    94    72    71    1
    95    73    71    1
    96   133   130    1
    97   133   134    1
    98   117   115   am
    99   107   108    2
   100   107   113   am
   101    71    68    1
   102   120   119    2
   103   119   123   am
   104   130   129    1
   105   130   131    1
   106   113   114    1
   107     1     2    1
   108   115   116    2
   109   115   114    1
   110   123   124    1
   111   132   131    2
   112     4     3    2
   113    68    67    1
   114    68    69    1
   115     3     2    1
   116     2     5    1
   117    67    61   am
   118   124   125    1
   119   124   127    1
   120    69    70    2
   121     9     8    1
   122   125   126    2
   123    59    60    1
   124   127   128    1
   125    66    64    1
   126    63    60    1
   127    63    64    1
   128     5     6    1
   129    61    60    1
   130    61    62    2
   131     6     7    1
   132    64    65    1
   133   155   156    1
   134     8     7    1
   135   160   159    1
   136   156   159    1
   137   156   157    1
   138   146   144    1
   139   154   152   ar
   140   145   144    1
   141   151   152    1
   142   151   148    1
   143   150   149    2
   144   144   143    2
   145   157   158    2
   146   152   153   ar
   147   149   148    1
   148   148   147    1
   149   143   142    1
   150   142   141    1
   151   141   140    1
   152   140   137    1
   153   139   138    2
   154   137   138    1
   155   137   136    1
