@<TRIPOS>MOLECULE
tmp/3gonA00.pdb
 153 144 0 0 0
SMALL
GASTEIGER

@<TRIPOS>ATOM
      1  N         23.2230   27.1470   -0.1300 N.3     9  LYS9       -0.1231
      2  CA        23.4090   26.1600    0.9280 C.3     9  LYS9        0.1693
      3  C         22.3810   25.0270    0.8980 C.2     9  LYS9        0.2592
      4  O         21.2740   25.1950    0.3920 O.2     9  LYS9       -0.2718
      5  CB        23.3290   26.8520    2.2860 C.3     9  LYS9        0.0285
      6  CG        21.9510   27.4500    2.5770 C.3     9  LYS9        0.0035
      7  CD        21.0740   26.4710    3.3610 C.3     9  LYS9        0.0206
      8  CE        19.5850   26.7770    3.1990 C.3     9  LYS9        0.1093
      9  NZ        19.0820   26.3710    1.8450 N.3     9  LYS9       -0.1314
     10  N         22.7660   23.8880    1.4620 N.am   10  LEU10      -0.1966
     11  CA        21.8860   22.7260    1.5690 C.3    10  LEU10       0.1728
     12  C         22.1920   21.9400    2.8470 C.2    10  LEU10       0.2616
     13  O         23.3210   21.4950    3.0790 O.2    10  LEU10      -0.2715
     14  CB        22.0310   21.8110    0.3380 C.3    10  LEU10       0.0311
     15  CG        21.3300   22.2720   -0.9440 C.3    10  LEU10       0.0022
     16  CD1       21.7140   21.3580   -2.1090 C.3    10  LEU10       0.0001
     17  CD2       19.8200   22.2680   -0.7310 C.3    10  LEU10       0.0001
     18  N         21.1850   21.7950    3.6960 N.am   11  TYR11      -0.1974
     19  CA        21.3540   21.0490    4.9340 C.3    11  TYR11       0.1639
     20  C         21.6190   19.5840    4.6380 C.2    11  TYR11       0.2290
     21  O         21.0390   19.0100    3.7180 O.2    11  TYR11      -0.2864
     22  CB        20.0840   21.1240    5.7860 C.3    11  TYR11       0.0560
     23  CG        19.9390   22.4070    6.5690 C.ar   11  TYR11      -0.0198
     24  CD1       20.3600   22.4710    7.8960 C.ar   11  TYR11      -0.0009
     25  CD2       19.4270   23.5540    5.9780 C.ar   11  TYR11      -0.0009
     26  CE1       20.2730   23.6560    8.6140 C.ar   11  TYR11       0.0417
     27  CE2       19.3380   24.7490    6.6940 C.ar   11  TYR11       0.0417
     28  CZ        19.7650   24.7830    8.0140 C.ar   11  TYR11       0.1957
     29  OH        19.6830   25.9460    8.7310 O.3    11  TYR11      -0.2866
     30  N         18.0140   19.4790   10.3350 N.3    15  GLU15      -0.1231
     31  CA        16.8520   20.3030   10.0000 C.3    15  GLU15       0.1699
     32  C         15.7780   20.2320   11.0840 C.2    15  GLU15       0.2592
     33  O         15.5770   19.1870   11.7030 O.2    15  GLU15      -0.2718
     34  CB        16.2450   19.8860    8.6540 C.3    15  GLU15       0.0402
     35  CG        17.2200   19.9300    7.4900 C.3    15  GLU15       0.1161
     36  CD        17.7860   18.5550    7.1460 C.2    15  GLU15       0.3649
     37  OE1       18.2860   17.8590    8.0490 O.co2  15  GLU15      -0.2457
     38  OE2       17.7270   18.1690    5.9600 O.co2  15  GLU15      -0.2457
     39  N         15.0940   21.3590   11.2790 N.am   16  TYR16      -0.1976
     40  CA        14.0380   21.5410   12.2790 C.3    16  TYR16       0.1639
     41  C         14.5680   21.5680   13.7080 C.2    16  TYR16       0.2290
     42  O         14.2790   22.4960   14.4630 O.2    16  TYR16      -0.2864
     43  CB        12.9300   20.4820   12.1220 C.3    16  TYR16       0.0560
     44  CG        12.0830   20.7020   10.8780 C.ar   16  TYR16      -0.0198
     45  CD1       12.3720   20.0360    9.6900 C.ar   16  TYR16      -0.0009
     46  CD2       11.0420   21.6270   10.8750 C.ar   16  TYR16      -0.0009
     47  CE1       11.6430   20.2900    8.5260 C.ar   16  TYR16       0.0417
     48  CE2       10.3080   21.8860    9.7160 C.ar   16  TYR16       0.0417
     49  CZ        10.6150   21.2150    8.5490 C.ar   16  TYR16       0.1957
     50  OH         9.9040   21.4770    7.3980 O.3    16  TYR16      -0.2866
     51  N         17.4320   22.2450   14.6100 N.3    18  ILE18      -0.1231
     52  CA        18.2990   23.4250   14.6700 C.3    18  ILE18       0.1692
     53  C         17.5620   24.7090   15.0680 C.2    18  ILE18       0.2591
     54  O         18.1920   25.7030   15.4440 O.2    18  ILE18      -0.2718
     55  CB        19.0350   23.6230   13.3160 C.3    18  ILE18       0.0266
     56  CG1       20.1670   24.6470   13.4610 C.3    18  ILE18       0.0019
     57  CG2       18.0450   24.0490   12.2430 C.3    18  ILE18       0.0020
     58  CD1       21.3070   24.2080   14.3830 C.3    18  ILE18       0.0001
     59  N         16.2330   24.6870   15.0030 N.am   19  LEU19      -0.1980
     60  CA        15.4320   25.8480   15.3840 C.3    19  LEU19       0.1596
     61  C         15.5140   26.1100   16.8980 C.2    19  LEU19       0.2287
     62  O         15.3290   27.2390   17.3590 O.2    19  LEU19      -0.2864
     63  CB        13.9680   25.6360   14.9630 C.3    19  LEU19       0.0297
     64  CG        13.7080   25.6190   13.4500 C.3    19  LEU19       0.0022
     65  CD1       12.2720   25.1890   13.1750 C.3    19  LEU19       0.0001
     66  CD2       14.0040   26.9920   12.8570 C.3    19  LEU19       0.0001
     67  N         12.1780   28.5970   -7.5020 N.3   101  LYS101     -0.1245
     68  CA        13.4250   28.6070   -6.7340 C.3   101  LYS101      0.1561
     69  C         13.9270   27.1760   -6.5820 C.2   101  LYS101      0.2260
     70  O         13.1250   26.2380   -6.5650 O.2   101  LYS101     -0.2867
     71  CB        13.1890   29.2080   -5.3440 C.3   101  LYS101      0.0271
     72  CG        11.9280   28.6830   -4.6570 C.3   101  LYS101      0.0035
     73  CD        11.9960   28.7470   -3.1280 C.3   101  LYS101      0.0206
     74  CE        12.6410   27.4950   -2.5510 C.3   101  LYS101      0.1093
     75  NZ        12.4120   27.3650   -1.0800 N.3   101  LYS101     -0.1314
     76  N         15.9050   26.0970   -3.9190 N.3   103  GLY103     -0.1225
     77  CA        15.8510   25.7620   -2.5010 C.3   103  GLY103      0.1811
     78  C         17.2240   25.9060   -1.8690 C.2   103  GLY103      0.2280
     79  O         17.4760   25.3840   -0.7710 O.2   103  GLY103     -0.2866
     80  N         18.6340   28.4930   -0.5080 N.3   105  GLY105     -0.1225
     81  CA        18.7790   29.5280    0.5020 C.3   105  GLY105      0.1811
     82  C         19.0080   30.9320   -0.0420 C.2   105  GLY105      0.2280
     83  O         19.8250   31.6860    0.4840 O.2   105  GLY105     -0.2866
     84  N         13.5350   31.4460   11.0540 N.3   146  GLY146     -0.1210
     85  CA        14.5940   30.5080   10.7150 C.3   146  GLY146      0.1956
     86  C         15.6850   30.3840   11.7630 C.2   146  GLY146      0.2613
     87  O         15.7640   31.1910   12.6800 O.2   146  GLY146     -0.2717
     88  N         16.5380   29.3700   11.6070 N.am  147  SER147     -0.1938
     89  CA        17.6290   29.1130   12.5420 C.3   147  SER147      0.2055
     90  C         18.9100   29.9090   12.2650 C.2   147  SER147      0.2643
     91  O         19.8140   29.9300   13.1020 O.2   147  SER147     -0.2714
     92  CB        17.9980   27.6320   12.5080 C.3   147  SER147      0.2130
     93  OG        18.6750   27.3390   11.2940 O.3   147  SER147     -0.2179
     94  N         18.9830   30.5290   11.0910 N.am  148  MET148     -0.1962
     95  CA        20.1480   31.3100   10.6520 C.3   148  MET148      0.1736
     96  C         21.2410   30.3870   10.1260 C.2   148  MET148      0.2617
     97  O         22.3240   30.8410    9.7420 O.2   148  MET148     -0.2715
     98  CB        20.7080   32.1830   11.7860 C.3   148  MET148      0.0427
     99  CG        19.7090   33.1560   12.3920 C.3   148  MET148      0.0599
    100  SD        18.9100   34.1900   11.1630 S.3   148  MET148     -0.1393
    101  CE        17.1870   33.8310   11.4960 C.3   148  MET148      0.0692
    102  N         20.9500   29.0900   10.0980 N.am  149  GLY149     -0.1940
    103  CA        21.9190   28.1260    9.6030 C.3   149  GLY149      0.2014
    104  C         22.3600   28.4240    8.1790 C.2   149  GLY149      0.2638
    105  O         23.5200   28.2130    7.8300 O.2   149  GLY149     -0.2714
    106  N         21.4450   28.9170    7.3490 N.am  150  ASP150     -0.1971
    107  CA        21.8180   29.2290    5.9730 C.3   150  ASP150      0.1709
    108  C         22.8740   30.3290    5.9540 C.2   150  ASP150      0.2293
    109  O         23.8260   30.2660    5.1740 O.2   150  ASP150     -0.2864
    110  CB        20.5800   29.6220    5.1450 C.3   150  ASP150      0.1436
    111  CG        19.8100   30.7950    5.7380 C.2   150  ASP150      0.3671
    112  OD1       19.7430   30.9160    6.9760 O.co2 150  ASP150     -0.2456
    113  OD2       19.2440   31.5860    4.9470 O.co2 150  ASP150     -0.2456
    114  N          9.9630   27.7700    2.9800 N.3   213  SER213     -0.1217
    115  CA        10.5530   27.4880    4.2900 C.3   213  SER213      0.1889
    116  C          9.7550   27.9730    5.4960 C.2   213  SER213      0.2288
    117  O          9.5190   27.2140    6.4360 O.2   213  SER213     -0.2866
    118  CB        11.9620   28.0780    4.3640 C.3   213  SER213      0.2089
    119  OG        12.8060   27.4880    3.3950 O.3   213  SER213     -0.2183
    120  N          8.0590   25.5330    8.3720 N.3   217  VAL217     -0.1245
    121  CA         8.4280   25.7110    9.7730 C.3   217  VAL217      0.1561
    122  C          7.2100   26.0600   10.6250 C.2   217  VAL217      0.2260
    123  O          6.9830   25.4600   11.6790 O.2   217  VAL217     -0.2867
    124  CB         9.4930   26.8240    9.9330 C.3   217  VAL217      0.0252
    125  CG1        9.7840   27.0580   11.4120 C.3   217  VAL217      0.0019
    126  CG2       10.7700   26.4400    9.1850 C.3   217  VAL217      0.0019
    127  N         16.5180   17.4320    1.9300 N.3   291  SER291     -0.1202
    128  CA        17.4190   18.4630    2.4370 C.3   291  SER291      0.2020
    129  C         16.6640   19.7560    2.7060 C.2   291  SER291      0.2619
    130  O         16.0370   20.3100    1.8110 O.2   291  SER291     -0.2717
    131  CB        18.5330   18.7340    1.4260 C.3   291  SER291      0.2103
    132  OG        19.3210   19.8270    1.8490 O.3   291  SER291     -0.2182
    133  N         16.7290   20.2340    3.9420 N.am  292  GLY292     -0.1942
    134  CA        16.0390   21.4580    4.2920 C.3   292  GLY292      0.2014
    135  C         14.6910   21.2060    4.9410 C.2   292  GLY292      0.2639
    136  O         14.4980   20.2280    5.6620 O.2   292  GLY292     -0.2714
    137  N         13.7450   22.0940    4.6820 N.am  293  ALA293     -0.1963
    138  CA        12.4190   21.9700    5.2570 C.3   293  ALA293      0.1728
    139  C         11.6330   20.8090    4.6270 C.2   293  ALA293      0.2616
    140  O         10.6180   20.3720    5.1720 O.2   293  ALA293     -0.2715
    141  CB        11.6640   23.2760    5.0440 C.3   293  ALA293      0.0334
    142  N         12.1250   20.3080    3.4980 N.am  294  GLY294     -0.1955
    143  CA        11.4200   19.2480    2.7860 C.3   294  GLY294      0.1869
    144  C         10.1910   19.8840    2.1450 C.2   294  GLY294      0.2309
    145  O         10.1390   21.1060    2.0070 O.2   294  GLY294     -0.2863
    146  N         11.5790   21.2440   -3.1310 N.3   297  ASP297     -0.1239
    147  CA        12.9840   21.5990   -3.2930 C.3   297  ASP297      0.1674
    148  C         13.8880   20.4020   -3.5920 C.2   297  ASP297      0.2266
    149  O         13.5400   19.5460   -4.4030 O.2   297  ASP297     -0.2867
    150  CB        13.4920   22.3570   -2.0580 C.3   297  ASP297      0.1410
    151  CG        12.8410   23.7290   -1.8980 C.2   297  ASP297      0.3668
    152  OD1       12.0620   24.1440   -2.7870 O.co2 297  ASP297     -0.2456
    153  OD2       13.1170   24.4010   -0.8770 O.co2 297  ASP297     -0.2456
@<TRIPOS>BOND
     1    67    68    1
     2    68    69    1
     3    68    71    1
     4    69    70    2
     5    71    72    1
     6    72    73    1
     7   149   148    2
     8    76    77    1
     9   148   147    1
    10   147   146    1
    11   147   150    1
    12    73    74    1
    13   152   151   ar
    14    74    75    1
    15    77    78    1
    16    16    15    1
    17   150   151    1
    18   151   153   ar
    19    78    79    2
    20    15    17    1
    21    15    14    1
    22    80    81    1
    23     1     2    1
    24    82    83    2
    25    82    81    1
    26    14    11    1
    27     4     3    2
    28     3     2    1
    29     3    10   am
    30     2     5    1
    31   131   132    1
    32   131   128    1
    33    10    11    1
    34    11    12    1
    35   130   129    2
    36     9     8    1
    37   127   128    1
    38   145   144    2
    39   144   143    1
    40     5     6    1
    41   128   129    1
    42     6     7    1
    43   129   133   am
    44   143   142    1
    45    12    13    2
    46    12    18   am
    47   114   115    1
    48     8     7    1
    49   119   118    1
    50   142   139   am
    51    18    19    1
    52    21    20    2
    53   133   134    1
    54   115   118    1
    55   115   116    1
    56   134   135    1
    57   139   140    2
    58   139   138    1
    59    20    19    1
    60   137   135   am
    61   137   138    1
    62    19    22    1
    63   135   136    2
    64   113   111   ar
    65   141   138    1
    66   110   111    1
    67   110   107    1
    68   109   108    2
    69   116   117    2
    70   111   112   ar
    71    22    23    1
    72   108   107    1
    73    38    36   ar
    74   107   106    1
    75    25    23   ar
    76    25    27   ar
    77    23    24   ar
    78    27    28   ar
    79    36    35    1
    80    36    37   ar
    81   106   104   am
    82    50    49    1
    83    35    34    1
    84   105   104    2
    85    24    26   ar
    86    28    26   ar
    87    28    29    1
    88   104   103    1
    89   120   121    1
    90    47    49   ar
    91    47    45   ar
    92    49    48   ar
    93    34    31    1
    94   126   124    1
    95   103   102    1
    96    45    44   ar
    97    48    46   ar
    98    97    96    2
    99   121   124    1
   100   121   122    1
   101   124   125    1
   102    31    30    1
   103    31    32    1
   104   102    96   am
   105    96    95    1
   106   122   123    2
   107    95    94    1
   108    95    98    1
   109    85    84    1
   110    85    86    1
   111    46    44   ar
   112    44    43    1
   113    32    39   am
   114    32    33    2
   115    94    90   am
   116   100   101    1
   117   100    99    1
   118    39    40    1
   119    93    92    1
   120    88    86   am
   121    88    89    1
   122    86    87    2
   123    98    99    1
   124    43    40    1
   125    57    55    1
   126    90    89    1
   127    90    91    2
   128    40    41    1
   129    92    89    1
   130    66    64    1
   131    65    64    1
   132    55    56    1
   133    55    52    1
   134    64    63    1
   135    56    58    1
   136    41    42    2
   137    51    52    1
   138    52    53    1
   139    63    60    1
   140    59    53   am
   141    59    60    1
   142    53    54    2
   143    60    61    1
   144    61    62    2
