@<TRIPOS>MOLECULE
tmp/3goxA00.pdb
 89 82 0 0 0
SMALL
GASTEIGER

@<TRIPOS>ATOM
      1  N         -6.0510   18.5930  111.0790 N.3     6  ASP6       -0.1239
      2  CA        -6.1790   17.2740  111.7060 C.3     6  ASP6        0.1674
      3  C         -5.3750   17.2260  112.9990 C.2     6  ASP6        0.2266
      4  O         -4.3670   17.9230  113.1530 O.2     6  ASP6       -0.2867
      5  CB        -5.6500   16.1410  110.8210 C.3     6  ASP6        0.1410
      6  CG        -6.5370   15.8260  109.6360 C.2     6  ASP6        0.3668
      7  OD1       -7.7040   16.2710  109.5680 O.co2   6  ASP6       -0.2456
      8  OD2       -6.0370   15.0550  108.7830 O.co2   6  ASP6       -0.2456
      9  N         -1.1040   12.4020  117.4870 N.3     9  ILE9       -0.1245
     10  CA        -0.1760   12.2630  118.5970 C.3     9  ILE9        0.1561
     11  C          1.1890   11.8710  118.0590 C.2     9  ILE9        0.2260
     12  O          1.3110   11.2020  117.0230 O.2     9  ILE9       -0.2867
     13  CB        -0.6380   11.2360  119.6580 C.3     9  ILE9        0.0252
     14  CG1       -0.9590    9.8890  119.0130 C.3     9  ILE9        0.0019
     15  CG2       -1.8210   11.8170  120.4500 C.3     9  ILE9        0.0019
     16  CD1       -1.3020    8.8010  120.0230 C.3     9  ILE9        0.0001
     17  N          2.7460   10.6190  122.8310 N.3    20  ASN20      -0.1240
     18  CA         1.3380   10.8800  123.1440 C.3    20  ASN20       0.1653
     19  C          0.9950   12.3500  123.2990 C.2    20  ASN20       0.2266
     20  O         -0.1590   12.7010  123.5700 O.2    20  ASN20      -0.2867
     21  CB         0.8510   10.0770  124.3560 C.3    20  ASN20       0.1155
     22  CG         0.9560    8.6010  124.1350 C.2    20  ASN20       0.2627
     23  OD1        0.7980    8.1390  123.0190 O.2    20  ASN20      -0.2716
     24  ND2        1.2510    7.8550  125.1870 N.am   20  ASN20      -0.0877
     25  N          0.3590    9.5860  114.6480 N.3    52  GLU52      -0.1231
     26  CA        -0.8360    8.7710  114.6070 C.3    52  GLU52       0.1699
     27  C         -2.0500    9.7170  114.7090 C.2    52  GLU52       0.2592
     28  O         -2.1710   10.4910  115.6510 O.2    52  GLU52      -0.2718
     29  CB        -0.8330    7.7790  115.7580 C.3    52  GLU52       0.0402
     30  CG        -2.0220    6.8680  115.7780 C.3    52  GLU52       0.1161
     31  CD        -1.9870    5.8940  116.9470 C.2    52  GLU52       0.3649
     32  OE1       -0.8790    5.5630  117.4470 O.co2  52  GLU52      -0.2457
     33  OE2       -3.0800    5.4560  117.3590 O.co2  52  GLU52      -0.2457
     34  N         -2.9460    9.6580  113.7340 N.am   53  ALA53      -0.1966
     35  CA        -4.1840   10.4360  113.7660 C.3    53  ALA53       0.1728
     36  C         -5.0530    9.9880  114.9290 C.2    53  ALA53       0.2616
     37  O         -5.1580    8.8020  115.2340 O.2    53  ALA53      -0.2715
     38  CB        -4.9740   10.2660  112.4650 C.3    53  ALA53       0.0334
     39  N         -5.6640   10.9770  115.5870 N.am   54  ILE54      -0.1963
     40  CA        -6.6500   10.7250  116.6300 C.3    54  ILE54       0.1727
     41  C         -7.9700   11.4490  116.3560 C.2    54  ILE54       0.2616
     42  O         -8.0200   12.4590  115.6270 O.2    54  ILE54      -0.2715
     43  CB        -6.1190   11.1090  118.0380 C.3    54  ILE54       0.0290
     44  CG1       -5.8300   12.6140  118.1550 C.3    54  ILE54       0.0022
     45  CG2       -4.8950   10.3120  118.3630 C.3    54  ILE54       0.0023
     46  CD1       -5.6490   13.0860  119.6510 C.3    54  ILE54       0.0001
     47  N         -9.0370   10.9070  116.9370 N.am   55  ASP55      -0.1971
     48  CA       -10.3760   11.5040  116.9080 C.3    55  ASP55       0.1709
     49  C        -10.6060   12.1880  118.2530 C.2    55  ASP55       0.2293
     50  O        -10.8690   11.5350  119.2770 O.2    55  ASP55      -0.2864
     51  CB       -11.4460   10.4420  116.6460 C.3    55  ASP55       0.1436
     52  CG       -12.8600   11.0180  116.5890 C.2    55  ASP55       0.3671
     53  OD1      -13.0520   12.2390  116.7690 O.co2  55  ASP55      -0.2456
     54  OD2      -13.8090   10.2200  116.3510 O.co2  55  ASP55      -0.2456
     55  N        -13.6360   11.3040  120.4070 N.3    58  ARG58      -0.1231
     56  CA       -13.6720   10.0420  121.1330 C.3    58  ARG58       0.1694
     57  C        -12.5760   10.0310  122.1910 C.2    58  ARG58       0.2592
     58  O        -11.8870    9.0230  122.3920 O.2    58  ARG58      -0.2718
     59  CB       -13.5720    8.8510  120.1790 C.3    58  ARG58       0.0321
     60  CG       -14.8530    8.6590  119.3650 C.3    58  ARG58       0.0489
     61  CD       -14.8660    7.3890  118.5670 C.3    58  ARG58       0.2205
     62  NE       -14.0140    7.5030  117.3940 N.pl3  58  ARG58      -0.0865
     63  CZ       -13.5100    6.4740  116.7290 C.cat  58  ARG58       0.5346
     64  NH1      -13.7490    5.2330  117.1300 N.pl3  58  ARG58       0.1354
     65  NH2      -12.7520    6.6810  115.6560 N.pl3  58  ARG58       0.1354
     66  N        -12.4460   11.1720  122.8530 N.am   59  THR59      -0.1953
     67  CA       -11.6150   11.3280  124.0450 C.3    59  THR59       0.1897
     68  C        -12.4440   12.0770  125.0810 C.2    59  THR59       0.2313
     69  O        -13.4150   12.7610  124.7340 O.2    59  THR59      -0.2863
     70  CB       -10.2950   12.1210  123.7770 C.3    59  THR59       0.1794
     71  OG1      -10.5930   13.5000  123.5410 O.3    59  THR59      -0.2208
     72  CG2       -9.5130   11.5510  122.5960 C.3    59  THR59       0.0378
     73  N         -9.5170    7.4100  127.2820 N.3    65  LYS65      -0.1245
     74  CA        -8.3990    8.3540  127.3140 C.3    65  LYS65       0.1561
     75  C         -8.9270    9.7690  127.2190 C.2    65  LYS65       0.2260
     76  O        -10.0330   10.0010  126.7450 O.2    65  LYS65      -0.2867
     77  CB        -7.4220    8.1000  126.1650 C.3    65  LYS65       0.0271
     78  CG        -6.8260    6.6910  126.1610 C.3    65  LYS65       0.0035
     79  CD        -5.9940    6.4250  124.9160 C.3    65  LYS65       0.0206
     80  CE        -5.3490    5.0420  124.9440 C.3    65  LYS65       0.1093
     81  NZ        -4.5500    4.7530  123.7240 N.3    65  LYS65      -0.1314
     82  N         -2.2400   12.9340  125.6180 N.3    74  LEU74      -0.1245
     83  CA        -3.3520   11.9920  125.6870 C.3    74  LEU74       0.1561
     84  C         -2.9830   10.9180  126.7100 C.2    74  LEU74       0.2260
     85  O         -1.9450   10.2610  126.5590 O.2    74  LEU74      -0.2867
     86  CB        -3.5950   11.3760  124.3030 C.3    74  LEU74       0.0270
     87  CG        -4.7230   10.3550  124.1560 C.3    74  LEU74       0.0019
     88  CD1       -6.0780   11.0450  124.2950 C.3    74  LEU74       0.0001
     89  CD2       -4.5510    9.6200  122.8000 C.3    74  LEU74       0.0001
@<TRIPOS>BOND
     1     8     6   ar
     2     7     6   ar
     3     6     5    1
     4     5     2    1
     5     1     2    1
     6     2     3    1
     7    38    35    1
     8     3     4    2
     9    34    35    1
    10    34    27   am
    11    35    36    1
    12    26    25    1
    13    26    27    1
    14    26    29    1
    15    27    28    2
    16    36    37    2
    17    36    39   am
    18    39    40    1
    19    42    41    2
    20    65    63    1
    21    29    30    1
    22    30    31    1
    23    54    52   ar
    24    41    40    1
    25    41    47   am
    26    52    51    1
    27    52    53   ar
    28    40    43    1
    29    51    48    1
    30    63    64    1
    31    63    62    2
    32    48    47    1
    33    48    49    1
    34    31    33   ar
    35    31    32   ar
    36    12    11    2
    37    62    61    1
    38     9    10    1
    39    43    44    1
    40    43    45    1
    41    11    10    1
    42    44    46    1
    43    49    50    2
    44    61    60    1
    45    10    13    1
    46    14    13    1
    47    14    16    1
    48    60    59    1
    49    13    15    1
    50    59    56    1
    51    55    56    1
    52    56    57    1
    53    57    58    2
    54    57    66   am
    55    72    70    1
    56    89    87    1
    57    17    18    1
    58    66    67    1
    59    23    22    2
    60    18    19    1
    61    18    21    1
    62    19    20    2
    63    71    70    1
    64    81    80    1
    65    70    67    1
    66    67    68    1
    67    22    21    1
    68    22    24   am
    69    87    88    1
    70    87    86    1
    71    86    83    1
    72    69    68    2
    73    79    80    1
    74    79    78    1
    75    82    83    1
    76    83    84    1
    77    78    77    1
    78    77    74    1
    79    85    84    2
    80    76    75    2
    81    75    74    1
    82    73    74    1
