@<TRIPOS>MOLECULE
tmp/3goyA00.pdb
 91 92 0 0 0
SMALL
GASTEIGER

@<TRIPOS>ATOM
      1  N         20.5650    1.6500   33.9910 N.3    69  PHE69      -0.1227
      2  CA        21.1250    0.3260   33.7880 C.3    69  PHE69       0.1736
      3  C         22.0170   -0.1030   34.9260 C.2    69  PHE69       0.2595
      4  O         22.7150    0.7160   35.5180 O.2    69  PHE69      -0.2718
      5  CB        21.9460    0.3020   32.5040 C.3    69  PHE69       0.0547
      6  CG        21.1270    0.3480   31.2830 C.ar   69  PHE69      -0.0202
      7  CD1       20.4740   -0.7830   30.8430 C.ar   69  PHE69      -0.0042
      8  CD2       20.9960    1.5290   30.5680 C.ar   69  PHE69      -0.0042
      9  CE1       19.7070   -0.7450   29.6820 C.ar   69  PHE69      -0.0003
     10  CE2       20.2310    1.5820   29.4110 C.ar   69  PHE69      -0.0003
     11  CZ        19.5840    0.4420   28.9640 C.ar   69  PHE69      -0.0000
     12  N         22.0170   -1.3990   35.2060 N.am   70  HIS70      -0.1961
     13  CA        22.8870   -1.9320   36.2410 C.3    70  HIS70       0.1787
     14  C         23.4280   -3.3090   35.8660 C.2    70  HIS70       0.2620
     15  O         22.6640   -4.2200   35.5580 O.2    70  HIS70      -0.2715
     16  CB        22.1670   -1.9840   37.6040 C.3    70  HIS70       0.0785
     17  CG        22.9990   -2.5980   38.6800 C.ar   70  HIS70       0.0821
     18  ND1       23.8380   -1.8600   39.4830 N.ar   70  HIS70      -0.2267
     19  CD2       23.1660   -3.8880   39.0470 C.ar   70  HIS70       0.1154
     20  CE1       24.4720   -2.6660   40.3090 C.ar   70  HIS70       0.1986
     21  NE2       24.0820   -3.9040   40.0650 N.ar   70  HIS70      -0.2212
     22  N         24.7450   -3.4660   35.9170 N.am   71  GLY71      -0.1954
     23  CA        25.3450   -4.7480   35.6100 C.3    71  GLY71       0.1869
     24  C         25.9900   -5.4720   36.7740 C.2    71  GLY71       0.2309
     25  O         26.8100   -4.8930   37.4850 O.2    71  GLY71      -0.2863
     26  N         25.3950    1.5440   42.2600 N.3    94  TYR94      -0.1227
     27  CA        25.6620    2.4270   41.1330 C.3    94  TYR94       0.1736
     28  C         24.7890    2.0350   39.9700 C.2    94  TYR94       0.2595
     29  O         24.7760    0.8730   39.5720 O.2    94  TYR94      -0.2718
     30  CB        27.1200    2.3300   40.7320 C.3    94  TYR94       0.0548
     31  CG        28.0580    3.1040   41.6110 C.ar   94  TYR94      -0.0200
     32  CD1       28.8390    4.1230   41.0920 C.ar   94  TYR94      -0.0009
     33  CD2       28.1630    2.8210   42.9830 C.ar   94  TYR94      -0.0009
     34  CE1       29.7070    4.8340   41.8990 C.ar   94  TYR94       0.0417
     35  CE2       29.0210    3.5280   43.7920 C.ar   94  TYR94       0.0417
     36  CZ        29.7940    4.5350   43.2520 C.ar   94  TYR94       0.1957
     37  OH        30.6630    5.2510   44.0400 O.3    94  TYR94      -0.2866
     38  N         24.0400    2.9990   39.4390 N.am   95  PHE95      -0.1962
     39  CA        23.3060    2.8110   38.1820 C.3    95  PHE95       0.1771
     40  C         23.8190    3.7450   37.1070 C.2    95  PHE95       0.2619
     41  O         24.1090    4.9050   37.3610 O.2    95  PHE95      -0.2715
     42  CB        21.8270    3.0800   38.3880 C.3    95  PHE95       0.0574
     43  CG        21.2440    2.3290   39.5290 C.ar   95  PHE95      -0.0200
     44  CD1       20.7290    1.0610   39.3410 C.ar   95  PHE95      -0.0042
     45  CD2       21.2240    2.8720   40.7910 C.ar   95  PHE95      -0.0042
     46  CE1       20.1950    0.3480   40.4010 C.ar   95  PHE95      -0.0003
     47  CE2       20.6980    2.1590   41.8520 C.ar   95  PHE95      -0.0003
     48  CZ        20.1820    0.8970   41.6490 C.ar   95  PHE95      -0.0000
     49  N         23.9090    3.2370   35.8850 N.am   96  ALA96      -0.1977
     50  CA        24.4290    4.0330   34.7720 C.3    96  ALA96       0.1597
     51  C         23.3110    4.6000   33.9230 C.2    96  ALA96       0.2287
     52  O         22.3220    3.9310   33.6460 O.2    96  ALA96      -0.2864
     53  CB        25.3660    3.2160   33.9450 C.3    96  ALA96       0.0319
     54  N         28.2970    1.6930   30.3290 N.3   101  TYR101     -0.1227
     55  CA        28.9620    1.7310   31.6330 C.3   101  TYR101      0.1736
     56  C         28.8100    0.3840   32.3060 C.2   101  TYR101      0.2596
     57  O         29.7580   -0.1680   32.8570 O.2   101  TYR101     -0.2718
     58  CB        28.3160    2.7740   32.5240 C.3   101  TYR101      0.0548
     59  CG        29.0210    4.1030   32.5770 C.ar  101  TYR101     -0.0200
     60  CD1       29.5390    4.5930   33.7770 C.ar  101  TYR101     -0.0009
     61  CD2       29.1480    4.8840   31.4350 C.ar  101  TYR101     -0.0009
     62  CE1       30.1790    5.8250   33.8220 C.ar  101  TYR101      0.0417
     63  CE2       29.7850    6.1080   31.4700 C.ar  101  TYR101      0.0417
     64  CZ        30.3000    6.5770   32.6560 C.ar  101  TYR101      0.1957
     65  OH        30.9280    7.8030   32.6570 O.3   101  TYR101     -0.2866
     66  N         27.5900   -0.1330   32.2460 N.am  102  SER102     -0.1952
     67  CA        27.2300   -1.3770   32.8990 C.3   102  SER102      0.1924
     68  C         27.8660   -2.5950   32.2340 C.2   102  SER102      0.2314
     69  O         28.1070   -3.6050   32.8890 O.2   102  SER102     -0.2863
     70  CB        25.7050   -1.5140   32.9290 C.3   102  SER102      0.2116
     71  OG        25.1100   -0.3790   33.5230 O.3   102  SER102     -0.2180
     72  N         31.8190   -5.2530   36.1950 N.3   107  TYR107     -0.1241
     73  CA        30.4750   -5.1780   36.7460 C.3   107  TYR107      0.1605
     74  C         29.6120   -6.3440   36.3000 C.2   107  TYR107      0.2264
     75  O         29.2000   -7.1690   37.1050 O.2   107  TYR107     -0.2867
     76  CB        29.8140   -3.8680   36.3490 C.3   107  TYR107      0.0534
     77  CG        30.7120   -2.6750   36.5310 C.ar  107  TYR107     -0.0201
     78  CD1       31.2250   -2.3350   37.7840 C.ar  107  TYR107     -0.0009
     79  CD2       31.0440   -1.8760   35.4560 C.ar  107  TYR107     -0.0009
     80  CE1       32.0500   -1.2340   37.9450 C.ar  107  TYR107      0.0417
     81  CE2       31.8620   -0.7780   35.6060 C.ar  107  TYR107      0.0417
     82  CZ        32.3640   -0.4620   36.8430 C.ar  107  TYR107      0.1957
     83  OH        33.1800    0.6370   36.9650 O.3   107  TYR107     -0.2866
     84  N         25.8150    8.6880   35.8780 N.3   162  LEU162     -0.1245
     85  CA        25.5750    7.6390   36.8540 C.3   162  LEU162      0.1561
     86  C         24.9030    8.1690   38.1300 C.2   162  LEU162      0.2260
     87  O         25.1480    9.2900   38.5690 O.2   162  LEU162     -0.2867
     88  CB        26.8840    6.9160   37.1980 C.3   162  LEU162      0.0270
     89  CG        27.9130    7.6390   38.0880 C.3   162  LEU162      0.0019
     90  CD1       27.4910    7.7280   39.5650 C.3   162  LEU162      0.0001
     91  CD2       29.2790    6.9840   37.9790 C.3   162  LEU162      0.0001
@<TRIPOS>BOND
     1    11    10   ar
     2    11     9   ar
     3    10     8   ar
     4     9     7   ar
     5    54    55    1
     6     8     6   ar
     7     7     6   ar
     8     6     5    1
     9    61    63   ar
    10    61    59   ar
    11    63    64   ar
    12    55    56    1
    13    55    58    1
    14    68    69    2
    15    68    67    1
    16    66    56   am
    17    66    67    1
    18    56    57    2
    19     5     2    1
    20    58    59    1
    21    59    60   ar
    22    64    65    1
    23    64    62   ar
    24    67    70    1
    25    70    71    1
    26    52    51    2
    27    60    62   ar
    28     2     1    1
    29     2     3    1
    30    51    50    1
    31    53    50    1
    32    50    49    1
    33     3    12   am
    34     3     4    2
    35    12    13    1
    36    79    81   ar
    37    79    77   ar
    38    15    14    2
    39    81    82   ar
    40    23    22    1
    41    23    24    1
    42    14    22   am
    43    14    13    1
    44    84    85    1
    45    49    40   am
    46    72    73    1
    47    13    16    1
    48    74    73    1
    49    74    75    2
    50    76    77    1
    51    76    73    1
    52    77    78   ar
    53    24    25    2
    54    82    83    1
    55    82    80   ar
    56    85    88    1
    57    85    86    1
    58    40    41    2
    59    40    39    1
    60    88    89    1
    61    16    17    1
    62    78    80   ar
    63    91    89    1
    64    89    90    1
    65    86    87    2
    66    39    42    1
    67    39    38    1
    68    42    43    1
    69    17    19   ar
    70    17    18   ar
    71    19    21   ar
    72    44    43   ar
    73    44    46   ar
    74    38    28   am
    75    18    20   ar
    76    43    45   ar
    77    29    28    2
    78    28    27    1
    79    21    20   ar
    80    46    48   ar
    81    30    27    1
    82    30    31    1
    83    45    47   ar
    84    32    31   ar
    85    32    34   ar
    86    27    26    1
    87    31    33   ar
    88    48    47   ar
    89    34    36   ar
    90    33    35   ar
    91    36    35   ar
    92    36    37    1
