@<TRIPOS>MOLECULE
tmp/3gp3C01.pdb
 98 94 0 0 0
SMALL
GASTEIGER

@<TRIPOS>ATOM
      1  N         20.9340   60.8850   30.3660 N.3   190  ILE190     -0.1245
      2  CA        20.1100   62.0470   30.5520 C.3   190  ILE190      0.1561
      3  C         20.6390   63.2500   29.7320 C.2   190  ILE190      0.2260
      4  O         19.8440   63.9210   29.0660 O.2   190  ILE190     -0.2867
      5  CB        19.9120   62.3530   32.0130 C.3   190  ILE190      0.0252
      6  CG1       19.0320   61.2500   32.6870 C.3   190  ILE190      0.0019
      7  CG2       19.2770   63.7270   32.2200 C.3   190  ILE190      0.0019
      8  CD1       19.1920   61.1840   34.2630 C.3   190  ILE190      0.0001
      9  N         17.6820   64.6830   27.0960 N.3   194  ASP194     -0.1239
     10  CA        17.1700   66.0220   27.3160 C.3   194  ASP194      0.1674
     11  C         17.9810   67.1290   26.6120 C.2   194  ASP194      0.2266
     12  O         17.6510   68.3240   26.7460 O.2   194  ASP194     -0.2867
     13  CB        17.2050   66.3490   28.7890 C.3   194  ASP194      0.1410
     14  CG        16.0230   65.8430   29.5140 C.2   194  ASP194      0.3668
     15  OD1       14.8990   65.8550   28.9080 O.co2 194  ASP194     -0.2456
     16  OD2       16.1740   65.5180   30.6050 O.co2 194  ASP194     -0.2456
     17  N         21.0290   68.3580   27.1160 N.3   196  ILE196     -0.1245
     18  CA        21.5750   69.2570   28.1080 C.3   196  ILE196      0.1561
     19  C         22.9790   69.6750   27.6760 C.2   196  ILE196      0.2260
     20  O         23.7240   68.9040   27.1230 O.2   196  ILE196     -0.2867
     21  CB        21.6400   68.6140   29.5130 C.3   196  ILE196      0.0252
     22  CG1       20.2690   67.9880   29.8780 C.3   196  ILE196      0.0019
     23  CG2       22.1220   69.5860   30.5410 C.3   196  ILE196      0.0019
     24  CD1       20.3180   67.1830   31.1970 C.3   196  ILE196      0.0001
     25  N         25.6980   72.8450   31.5960 N.3   200  ASP200     -0.1239
     26  CA        24.5980   72.6070   32.4840 C.3   200  ASP200      0.1674
     27  C         24.6400   71.1880   33.0990 C.2   200  ASP200      0.2266
     28  O         24.1060   70.9610   34.1720 O.2   200  ASP200     -0.2867
     29  CB        23.2840   72.8430   31.7130 C.3   200  ASP200      0.1410
     30  CG        23.0500   74.3620   31.3790 C.2   200  ASP200      0.3668
     31  OD1       23.7440   75.2380   31.9780 O.co2 200  ASP200     -0.2456
     32  OD2       22.1590   74.6800   30.5390 O.co2 200  ASP200     -0.2456
     33  N         25.9550   70.3990   37.0740 N.3   203  GLY203     -0.1210
     34  CA        25.1960   70.4190   38.2940 C.3   203  GLY203      0.1956
     35  C         24.1390   69.3470   38.4650 C.2   203  GLY203      0.2611
     36  O         23.3670   69.4620   39.4110 O.2   203  GLY203     -0.2717
     37  N         24.0270   68.3690   37.5300 N.am  204  LEU204     -0.1979
     38  CA        23.0060   67.3130   37.6660 C.3   204  LEU204      0.1596
     39  C         23.5670   66.2360   38.5850 C.2   204  LEU204      0.2287
     40  O         24.6560   65.7160   38.3200 O.2   204  LEU204     -0.2864
     41  CB        22.5670   66.7520   36.3180 C.3   204  LEU204      0.0297
     42  CG        21.6980   65.4730   36.4030 C.3   204  LEU204      0.0022
     43  CD1       20.3350   65.8600   36.9860 C.3   204  LEU204      0.0001
     44  CD2       21.5180   64.8580   35.0540 C.3   204  LEU204      0.0001
     45  N         13.2750   57.3580   38.4990 N.3   212  LEU212     -0.1245
     46  CA        13.1610   58.5540   37.6920 C.3   212  LEU212      0.1561
     47  C         12.4560   58.1430   36.4410 C.2   212  LEU212      0.2260
     48  O         12.9480   57.3360   35.6220 O.2   212  LEU212     -0.2867
     49  CB        14.5270   59.1730   37.4190 C.3   212  LEU212      0.0270
     50  CG        14.6610   60.2850   36.4160 C.3   212  LEU212      0.0019
     51  CD1       13.8730   61.4750   36.9160 C.3   212  LEU212      0.0001
     52  CD2       16.1670   60.6670   36.2790 C.3   212  LEU212      0.0001
     53  N         10.7620   58.9760   32.8340 N.3   214  TYR214     -0.1241
     54  CA        10.7230   59.7630   31.5670 C.3   214  TYR214      0.1605
     55  C          9.5040   59.4060   30.7330 C.2   214  TYR214      0.2264
     56  O          9.2580   58.2590   30.4680 O.2   214  TYR214     -0.2867
     57  CB        12.0010   59.6090   30.7110 C.3   214  TYR214      0.0534
     58  CG        13.0470   60.6210   31.0680 C.ar  214  TYR214     -0.0201
     59  CD1       13.1910   61.7960   30.3380 C.ar  214  TYR214     -0.0009
     60  CD2       13.8460   60.4610   32.2230 C.ar  214  TYR214     -0.0009
     61  CE1       14.1510   62.7580   30.7050 C.ar  214  TYR214      0.0417
     62  CE2       14.7680   61.3800   32.6070 C.ar  214  TYR214      0.0417
     63  CZ        14.9110   62.5330   31.8480 C.ar  214  TYR214      0.1957
     64  OH        15.8450   63.4540   32.2040 O.3   214  TYR214     -0.2866
     65  N          9.6330   64.5990   32.8700 N.3   225  HIS225     -0.1226
     66  CA        10.2410   63.6080   33.7720 C.3   225  HIS225      0.1752
     67  C         10.0160   63.9920   35.1580 C.2   225  HIS225      0.2596
     68  O          9.7680   65.1690   35.4540 O.2   225  HIS225     -0.2718
     69  CB        11.7770   63.4870   33.5900 C.3   225  HIS225      0.0759
     70  CG        12.5430   64.7400   33.9020 C.ar  225  HIS225      0.0818
     71  ND1       12.7670   65.7110   32.9540 N.ar  225  HIS225     -0.2268
     72  CD2       13.0770   65.2150   35.0540 C.ar  225  HIS225      0.1154
     73  CE1       13.4710   66.7120   33.4860 C.ar  225  HIS225      0.1986
     74  NE2       13.6790   66.4430   34.7610 N.ar  225  HIS225     -0.2212
     75  N         10.1370   63.0150   36.0620 N.am  226  TYR226     -0.1962
     76  CA         9.8180   63.1720   37.4600 C.3   226  TYR226      0.1771
     77  C         10.3200   61.9950   38.2970 C.2   226  TYR226      0.2619
     78  O         10.3430   60.8670   37.8120 O.2   226  TYR226     -0.2715
     79  CB         8.2650   63.3550   37.6980 C.3   226  TYR226      0.0574
     80  CG         7.3810   62.3780   36.9570 C.ar  226  TYR226     -0.0198
     81  CD1        7.0250   61.1740   37.4960 C.ar  226  TYR226     -0.0009
     82  CD2        6.8910   62.7220   35.6930 C.ar  226  TYR226     -0.0009
     83  CE1        6.1790   60.2640   36.7290 C.ar  226  TYR226      0.0417
     84  CE2        6.1050   61.8620   34.9530 C.ar  226  TYR226      0.0417
     85  CZ         5.7940   60.6350   35.4660 C.ar  226  TYR226      0.1957
     86  OH         4.9850   59.8570   34.7600 O.3   226  TYR226     -0.2866
     87  N         10.7620   62.2520   39.5200 N.am  227  TYR227     -0.1974
     88  CA        11.0660   61.2440   40.4690 C.3   227  TYR227      0.1639
     89  C          9.7970   60.7100   41.0860 C.2   227  TYR227      0.2290
     90  O          8.8130   61.4640   41.3630 O.2   227  TYR227     -0.2864
     91  CB        11.9920   61.7320   41.6170 C.3   227  TYR227      0.0560
     92  CG        13.4030   62.0290   41.1980 C.ar  227  TYR227     -0.0198
     93  CD1       14.2410   61.0170   40.7190 C.ar  227  TYR227     -0.0009
     94  CD2       13.9380   63.3170   41.2840 C.ar  227  TYR227     -0.0009
     95  CE1       15.5600   61.2710   40.3890 C.ar  227  TYR227      0.0417
     96  CE2       15.2540   63.5770   40.8840 C.ar  227  TYR227      0.0417
     97  CZ        16.0620   62.5540   40.4420 C.ar  227  TYR227      0.1957
     98  OH        17.3980   62.7610   40.0440 O.3   227  TYR227     -0.2866
@<TRIPOS>BOND
     1    11    12    2
     2    11    10    1
     3     9    10    1
     4    17    18    1
     5    20    19    2
     6    10    13    1
     7    19    18    1
     8    18    21    1
     9    13    14    1
    10    15    14   ar
    11     4     3    2
    12    21    22    1
    13    21    23    1
    14    14    16   ar
    15     3     2    1
    16    22    24    1
    17    59    61   ar
    18    59    58   ar
    19     1     2    1
    20    56    55    2
    21    32    30   ar
    22     2     5    1
    23    61    63   ar
    24    57    58    1
    25    57    54    1
    26    55    54    1
    27    58    60   ar
    28    30    29    1
    29    30    31   ar
    30    54    53    1
    31    25    26    1
    32    29    26    1
    33    63    64    1
    34    63    62   ar
    35     5     7    1
    36     5     6    1
    37    60    62   ar
    38    26    27    1
    39     6     8    1
    40    65    66    1
    41    71    73   ar
    42    71    70   ar
    43    27    28    2
    44    73    74   ar
    45    69    66    1
    46    69    70    1
    47    66    67    1
    48    70    72   ar
    49    86    85    1
    50    74    72   ar
    51    84    85   ar
    52    84    82   ar
    53    44    42    1
    54    67    68    2
    55    67    75   am
    56    85    83   ar
    57    48    47    2
    58    82    80   ar
    59    75    76    1
    60    52    50    1
    61    41    42    1
    62    41    38    1
    63    42    43    1
    64    50    51    1
    65    50    49    1
    66    47    46    1
    67    83    81   ar
    68    80    81   ar
    69    80    79    1
    70    33    34    1
    71    49    46    1
    72    76    79    1
    73    76    77    1
    74    37    38    1
    75    37    35   am
    76    38    39    1
    77    46    45    1
    78    78    77    2
    79    34    35    1
    80    77    87   am
    81    40    39    2
    82    35    36    2
    83    87    88    1
    84    98    97    1
    85    95    97   ar
    86    95    93   ar
    87    97    96   ar
    88    88    89    1
    89    88    91    1
    90    93    92   ar
    91    96    94   ar
    92    89    90    2
    93    92    94   ar
    94    92    91    1
