@<TRIPOS>MOLECULE
tmp/3gp3C02.pdb
 148 142 0 0 0
SMALL
GASTEIGER

@<TRIPOS>ATOM
      1  N         19.3490   54.8100   39.9020 N.3     8  ARG8       -0.1231
      2  CA        20.7460   54.6690   40.3380 C.3     8  ARG8        0.1694
      3  C         20.7970   53.5950   41.4240 C.2     8  ARG8        0.2592
      4  O         19.8690   53.5060   42.2690 O.2     8  ARG8       -0.2718
      5  CB        21.2390   55.9630   40.9140 C.3     8  ARG8        0.0321
      6  CG        22.7510   55.9680   41.2820 C.3     8  ARG8        0.0489
      7  CD        23.2790   57.3640   41.6890 C.3     8  ARG8        0.2205
      8  NE        24.5960   57.1550   42.2510 N.pl3   8  ARG8       -0.0865
      9  CZ        25.0870   57.8200   43.3230 C.cat   8  ARG8        0.5346
     10  NH1       24.3910   58.7950   43.8890 N.pl3   8  ARG8        0.1354
     11  NH2       26.2500   57.4940   43.8820 N.pl3   8  ARG8        0.1354
     12  N         21.8670   52.7960   41.4690 N.am    9  HIS9       -0.1976
     13  CA        22.0450   51.7440   42.4780 C.3     9  HIS9        0.1656
     14  C         21.9050   52.3320   43.9080 C.2     9  HIS9        0.2291
     15  O         22.1540   53.5700   44.1460 O.2     9  HIS9       -0.2864
     16  CB        23.4280   51.0640   42.3670 C.3     9  HIS9        0.0771
     17  CG        24.5790   51.9880   42.5860 C.ar    9  HIS9        0.0820
     18  ND1       24.9940   52.3740   43.8640 N.ar    9  HIS9       -0.2267
     19  CD2       25.4030   52.5970   41.7140 C.ar    9  HIS9        0.1154
     20  CE1       26.0360   53.1910   43.7310 C.ar    9  HIS9        0.1986
     21  NE2       26.2900   53.3590   42.4500 N.ar    9  HIS9       -0.2212
     22  N         30.3070   54.4270   48.5070 N.3    15  ASN15      -0.1240
     23  CA        29.5360   55.6790   48.7130 C.3    15  ASN15       0.1653
     24  C         29.6270   56.0630   50.2030 C.2    15  ASN15       0.2266
     25  O         29.8770   57.2480   50.5430 O.2    15  ASN15      -0.2867
     26  CB        28.0440   55.5320   48.3250 C.3    15  ASN15       0.1155
     27  CG        27.7760   55.2830   46.8490 C.2    15  ASN15       0.2627
     28  OD1       26.7570   54.6860   46.5010 O.2    15  ASN15      -0.2716
     29  ND2       28.6800   55.7110   45.9710 N.am   15  ASN15      -0.0877
     30  N         34.6430   57.2040   48.8140 N.3    19  ARG19      -0.1231
     31  CA        35.7450   56.7740   47.9010 C.3    19  ARG19       0.1694
     32  C         35.2690   56.7060   46.4260 C.2    19  ARG19       0.2592
     33  O         34.2490   56.0480   46.1240 O.2    19  ARG19      -0.2718
     34  CB        36.2490   55.3610   48.2590 C.3    19  ARG19       0.0321
     35  CG        37.1390   55.1780   49.4850 C.3    19  ARG19       0.0489
     36  CD        37.3770   53.6930   49.8330 C.3    19  ARG19       0.2205
     37  NE        38.6440   53.1600   49.3440 N.pl3  19  ARG19      -0.0865
     38  CZ        39.0950   51.9200   49.5550 C.cat  19  ARG19       0.5346
     39  NH1       38.3900   51.0520   50.2590 N.pl3  19  ARG19       0.1354
     40  NH2       40.2690   51.5410   49.0750 N.pl3  19  ARG19       0.1354
     41  N         36.0500   57.2910   45.5100 N.am   20  PHE20      -0.1962
     42  CA        35.7900   57.2360   44.1000 C.3    20  PHE20       0.1771
     43  C         35.7490   55.7720   43.7270 C.2    20  PHE20       0.2620
     44  O         36.6180   55.0160   44.1340 O.2    20  PHE20      -0.2715
     45  CB        36.9310   57.8460   43.3100 C.3    20  PHE20       0.0574
     46  CG        37.2050   59.2960   43.5820 C.ar   20  PHE20      -0.0200
     47  CD1       36.4230   60.2890   43.0070 C.ar   20  PHE20      -0.0042
     48  CD2       38.3610   59.6610   44.2850 C.ar   20  PHE20      -0.0042
     49  CE1       36.7200   61.6700   43.2360 C.ar   20  PHE20      -0.0003
     50  CE2       38.6250   61.0560   44.5360 C.ar   20  PHE20      -0.0003
     51  CZ        37.8470   62.0140   43.9640 C.ar   20  PHE20      -0.0000
     52  N         34.7400   55.3590   42.9530 N.am   21  THR21      -0.1937
     53  CA        34.5420   53.9440   42.6910 C.3    21  THR21       0.2028
     54  C         34.8370   53.5750   41.2340 C.2    21  THR21       0.2642
     55  O         35.5920   52.6510   40.9960 O.2    21  THR21      -0.2714
     56  CB        33.1320   53.5090   43.0370 C.3    21  THR21       0.1808
     57  OG1       32.8830   53.8150   44.4260 O.3    21  THR21      -0.2208
     58  CG2       33.0370   51.9730   42.8980 C.3    21  THR21       0.0379
     59  N         34.1660   54.1890   40.3040 N.am   22  GLY22      -0.1954
     60  CA        34.3220   53.8610   38.8950 C.3    22  GLY22       0.1869
     61  C         33.9750   52.3750   38.6310 C.2    22  GLY22       0.2309
     62  O         32.9100   51.8840   39.0360 O.2    22  GLY22      -0.2863
     63  N         26.7000   46.2620   42.3120 N.3    60  ARG60      -0.1245
     64  CA        25.8910   47.1960   43.0360 C.3    60  ARG60       0.1563
     65  C         24.6110   47.5650   42.3020 C.2    60  ARG60       0.2260
     66  O         23.5670   47.7760   42.9000 O.2    60  ARG60      -0.2867
     67  CB        26.6450   48.4870   43.4180 C.3    60  ARG60       0.0307
     68  CG        27.1000   49.3670   42.3420 C.3    60  ARG60       0.0489
     69  CD        28.2390   50.2890   42.8480 C.3    60  ARG60       0.2205
     70  NE        28.8860   51.1210   41.8620 N.pl3  60  ARG60      -0.0865
     71  CZ        30.0480   50.9220   41.2530 C.cat  60  ARG60       0.5346
     72  NH1       30.6290   49.7870   41.3170 N.pl3  60  ARG60       0.1354
     73  NH2       30.5780   51.9000   40.5590 N.pl3  60  ARG60       0.1354
     74  N         29.4120   52.5940   35.4320 N.3    87  GLU87      -0.1231
     75  CA        29.8580   53.8940   35.9260 C.3    87  GLU87       0.1699
     76  C         31.0850   54.4190   35.1510 C.2    87  GLU87       0.2592
     77  O         31.8650   53.6340   34.5370 O.2    87  GLU87      -0.2718
     78  CB        30.1380   53.7740   37.3840 C.3    87  GLU87       0.0402
     79  CG        30.4590   55.1350   38.0460 C.3    87  GLU87       0.1161
     80  CD        29.4430   56.1760   37.8720 C.2    87  GLU87       0.3649
     81  OE1       28.9870   56.6650   38.8880 O.co2  87  GLU87      -0.2457
     82  OE2       28.9910   56.4650   36.7480 O.co2  87  GLU87      -0.2457
     83  N         31.1830   55.7180   35.0280 N.am   88  ARG88      -0.1980
     84  CA        32.3810   56.3390   34.4650 C.3    88  ARG88       0.1597
     85  C         33.5860   55.7920   35.1950 C.2    88  ARG88       0.2287
     86  O         33.6680   55.8040   36.4410 O.2    88  ARG88      -0.2864
     87  CB        32.2990   57.9080   34.6310 C.3    88  ARG88       0.0334
     88  CG        33.5530   58.6440   34.2260 C.3    88  ARG88       0.0492
     89  CD        34.5200   58.7320   35.4420 C.3    88  ARG88       0.2205
     90  NE        34.0920   59.8040   36.2830 N.pl3  88  ARG88      -0.0865
     91  CZ        34.3880   61.0840   36.0590 C.cat  88  ARG88       0.5346
     92  NH1       35.1730   61.4380   35.0720 N.pl3  88  ARG88       0.1354
     93  NH2       33.8660   61.9900   36.8460 N.pl3  88  ARG88       0.1354
     94  N         37.0710   55.9500   36.8090 N.3    90  TYR90      -0.1241
     95  CA        37.7230   57.0050   37.5820 C.3    90  TYR90       0.1605
     96  C         39.2610   56.8940   37.5160 C.2    90  TYR90       0.2264
     97  O         39.9450   57.5710   38.2990 O.2    90  TYR90      -0.2867
     98  CB        37.2380   57.0050   39.0240 C.3    90  TYR90       0.0534
     99  CG        36.3580   58.2200   39.3170 C.ar   90  TYR90      -0.0201
    100  CD1       36.8100   59.5200   39.0750 C.ar   90  TYR90      -0.0009
    101  CD2       35.1150   58.0660   39.8670 C.ar   90  TYR90      -0.0009
    102  CE1       36.0020   60.6120   39.3360 C.ar   90  TYR90       0.0417
    103  CE2       34.2840   59.1940   40.1300 C.ar   90  TYR90       0.0417
    104  CZ        34.7460   60.4540   39.8300 C.ar   90  TYR90       0.1957
    105  OH        33.9650   61.6330   40.0630 O.3    90  TYR90      -0.2866
    106  N         37.5640   60.9340   48.6680 N.3    98  LYS98      -0.1245
    107  CA        37.3840   62.1670   47.8970 C.3    98  LYS98       0.1561
    108  C         37.8600   63.4190   48.6990 C.2    98  LYS98       0.2260
    109  O         38.4330   64.3360   48.1220 O.2    98  LYS98      -0.2867
    110  CB        35.9340   62.3450   47.4770 C.3    98  LYS98       0.0271
    111  CG        35.4080   61.1500   46.6330 C.3    98  LYS98       0.0035
    112  CD        33.9770   61.4320   46.2270 C.3    98  LYS98       0.0206
    113  CE        33.5740   60.5530   45.0530 C.3    98  LYS98       0.1093
    114  NZ        32.0840   60.7640   44.8500 N.3    98  LYS98      -0.1314
    115  N         35.9640   65.5470   38.7130 N.3   114  ARG114     -0.1231
    116  CA        34.6630   65.0040   38.9980 C.3   114  ARG114      0.1694
    117  C         33.6250   65.4300   37.9510 C.2   114  ARG114      0.2591
    118  O         32.7730   64.6340   37.5710 O.2   114  ARG114     -0.2718
    119  CB        34.1970   65.3970   40.3960 C.3   114  ARG114      0.0321
    120  CG        34.9890   64.7230   41.5300 C.3   114  ARG114      0.0489
    121  CD        34.3300   64.9260   42.8650 C.3   114  ARG114      0.2205
    122  NE        32.9150   64.5080   42.8430 N.pl3 114  ARG114     -0.0865
    123  CZ        31.8480   65.3220   42.9680 C.cat 114  ARG114      0.5346
    124  NH1       30.6130   64.8300   42.9330 N.pl3 114  ARG114      0.1354
    125  NH2       32.0060   66.6260   43.1210 N.pl3 114  ARG114      0.1354
    126  N         33.7550   66.6720   37.4740 N.am  115  ARG115     -0.1980
    127  CA        32.6870   67.3100   36.7390 C.3   115  ARG115      0.1597
    128  C         33.0570   68.0570   35.4680 C.2   115  ARG115      0.2287
    129  O         32.1220   68.3920   34.7450 O.2   115  ARG115     -0.2864
    130  CB        31.8080   68.1770   37.7080 C.3   115  ARG115      0.0334
    131  CG        30.9890   67.3770   38.8080 C.3   115  ARG115      0.0492
    132  CD        29.8850   66.5350   38.1650 C.3   115  ARG115      0.2205
    133  NE        28.9800   65.8730   39.1080 N.pl3 115  ARG115     -0.0865
    134  CZ        29.2050   64.6830   39.6680 C.cat 115  ARG115      0.5346
    135  NH1       30.3410   64.0150   39.4030 N.pl3 115  ARG115      0.1354
    136  NH2       28.3060   64.1680   40.5030 N.pl3 115  ARG115      0.1354
    137  N         25.4510   56.6550   38.7570 N.3   183  GLY183     -0.1210
    138  CA        25.2570   58.1460   38.7800 C.3   183  GLY183      0.1956
    139  C         25.7230   58.7820   37.4830 C.2   183  GLY183      0.2611
    140  O         24.9770   59.4840   36.7850 O.2   183  GLY183     -0.2717
    141  N         26.9780   58.5310   37.0570 N.am  184  ASN184     -0.1974
    142  CA        27.4760   59.1530   35.8560 C.3   184  ASN184      0.1688
    143  C         27.0060   58.5670   34.5560 C.2   184  ASN184      0.2292
    144  O         26.8940   59.2370   33.5340 O.2   184  ASN184     -0.2864
    145  CB        29.0570   59.3430   35.9580 C.3   184  ASN184      0.1181
    146  CG        29.4710   60.2360   37.1150 C.2   184  ASN184      0.2629
    147  OD1       28.8780   61.3390   37.3610 O.2   184  ASN184     -0.2716
    148  ND2       30.3940   59.7900   37.9180 N.am  184  ASN184     -0.0877
@<TRIPOS>BOND
     1   144   143    2
     2    88    87    1
     3    88    89    1
     4    84    87    1
     5    84    83    1
     6    84    85    1
     7    77    76    2
     8   143   142    1
     9   129   128    2
    10    83    76   am
    11    92    91    1
    12    76    75    1
    13    85    86    2
    14    74    75    1
    15    89    90    1
    16   128   127    1
    17   142   145    1
    18   142   141    1
    19    75    78    1
    20   145   146    1
    21    91    90    2
    22    91    93    1
    23   127   126    1
    24   127   130    1
    25    82    80   ar
    26   140   139    2
    27    94    95    1
    28   141   139   am
    29   146   147    2
    30   146   148   am
    31    78    79    1
    32   126   117   am
    33   139   138    1
    34    96    95    1
    35    96    97    2
    36   118   117    2
    37    95    98    1
    38   130   131    1
    39    80    79    1
    40    80    81   ar
    41   117   116    1
    42   132   131    1
    43   132   133    1
    44    61    60    1
    45    61    62    2
    46   115   116    1
    47   137   138    1
    48    60    59    1
    49   116   119    1
    50    98    99    1
    51   100    99   ar
    52   100   102   ar
    53   133   134    2
    54    99   101   ar
    55   102   104   ar
    56   135   134    1
    57   134   136    1
    58   104   105    1
    59   104   103   ar
    60   101   103   ar
    61     1     2    1
    62    59    54   am
    63     2     5    1
    64     2     3    1
    65   119   120    1
    66    73    71    1
    67     5     6    1
    68    55    54    2
    69    54    53    1
    70    71    72    1
    71    71    70    2
    72     6     7    1
    73     3    12   am
    74     3     4    2
    75    12    13    1
    76   120   121    1
    77     7     8    1
    78    19    21   ar
    79    19    17   ar
    80    70    69    1
    81     8     9    2
    82    65    66    2
    83    65    64    1
    84    63    64    1
    85    68    69    1
    86    68    67    1
    87    16    13    1
    88    16    17    1
    89    21    20   ar
    90    13    14    1
    91    17    18   ar
    92    53    52    1
    93    53    56    1
    94   122   121    1
    95   122   123    2
    96    58    56    1
    97   124   123    1
    98    52    43   am
    99   123   125    1
   100    47    49   ar
   101    47    46   ar
   102    64    67    1
   103    56    57    1
   104    49    51   ar
   105    45    46    1
   106    45    42    1
   107     9    11    1
   108     9    10    1
   109    46    48   ar
   110    43    42    1
   111    43    44    2
   112    20    18   ar
   113    14    15    2
   114    51    50   ar
   115    42    41    1
   116    48    50   ar
   117   114   113    1
   118   113   112    1
   119    41    32   am
   120    29    27   am
   121    33    32    2
   122   112   111    1
   123    32    31    1
   124    28    27    2
   125   111   110    1
   126    27    26    1
   127   110   107    1
   128   107   106    1
   129   107   108    1
   130    31    34    1
   131    31    30    1
   132   109   108    2
   133    34    35    1
   134    26    23    1
   135    22    23    1
   136    23    24    1
   137    40    38    1
   138    37    38    2
   139    37    36    1
   140    35    36    1
   141    38    39    1
   142    24    25    2
