@<TRIPOS>MOLECULE
tmp/3gp5A00.pdb
 107 102 0 0 0
SMALL
GASTEIGER

@<TRIPOS>ATOM
      1  N          9.7800  -26.9750   19.9580 N.3   190  ILE190     -0.1245
      2  CA         9.3670  -28.0790   19.0990 C.3   190  ILE190      0.1561
      3  C          9.2940  -27.6030   17.6450 C.2   190  ILE190      0.2260
      4  O          9.6720  -28.3690   16.7400 O.2   190  ILE190     -0.2867
      5  CB         7.9990  -28.7360   19.5480 C.3   190  ILE190      0.0252
      6  CG1        8.1910  -29.5210   20.8630 C.3   190  ILE190      0.0019
      7  CG2        7.4770  -29.7000   18.4770 C.3   190  ILE190      0.0019
      8  CD1        6.8770  -29.8240   21.6330 C.3   190  ILE190      0.0001
      9  N         11.4240  -29.8970   15.1950 N.3   194  ASP194     -0.1239
     10  CA        10.7390  -30.6200   14.1340 C.3   194  ASP194      0.1674
     11  C         10.5970  -29.9290   12.7650 C.2   194  ASP194      0.2266
     12  O         10.0200  -30.5230   11.8690 O.2   194  ASP194     -0.2867
     13  CB         9.3470  -31.0470   14.6240 C.3   194  ASP194      0.1410
     14  CG         9.3720  -32.4190   15.2490 C.2   194  ASP194      0.3668
     15  OD1       10.1720  -33.2940   14.7950 O.co2 194  ASP194     -0.2456
     16  OD2        8.6210  -32.6110   16.2010 O.co2 194  ASP194     -0.2456
     17  N          8.5520  -27.3410   11.9430 N.3   196  ILE196     -0.1245
     18  CA         7.1000  -27.2330   11.7410 C.3   196  ILE196      0.1561
     19  C          6.8780  -25.8780   11.1190 C.2   196  ILE196      0.2260
     20  O          7.5330  -24.9220   11.4930 O.2   196  ILE196     -0.2867
     21  CB         6.3010  -27.3100   13.1000 C.3   196  ILE196      0.0252
     22  CG1        6.5000  -28.6610   13.7620 C.3   196  ILE196      0.0019
     23  CG2        4.8170  -27.0460   12.9060 C.3   196  ILE196      0.0019
     24  CD1        6.0910  -28.7050   15.2750 C.3   196  ILE196      0.0001
     25  N          1.3820  -24.6670   10.3960 N.3   200  ASP200     -0.1239
     26  CA         1.1030  -25.9190   11.1380 C.3   200  ASP200      0.1674
     27  C          1.2840  -25.8550   12.6400 C.2   200  ASP200      0.2266
     28  O          0.6590  -26.6490   13.3610 O.2   200  ASP200     -0.2867
     29  CB         2.0110  -27.0280   10.6250 C.3   200  ASP200      0.1410
     30  CG         1.5170  -27.6580    9.3210 C.2   200  ASP200      0.3668
     31  OD1        0.4080  -27.3480    8.8510 O.co2 200  ASP200     -0.2456
     32  OD2        2.2880  -28.4570    8.7600 O.co2 200  ASP200     -0.2456
     33  N         -1.9300  -25.5280   15.4030 N.3   203  GLY203     -0.1210
     34  CA        -2.6900  -26.6060   16.0300 C.3   203  GLY203      0.1956
     35  C         -2.0220  -27.3970   17.1670 C.2   203  GLY203      0.2611
     36  O         -2.6980  -28.1910   17.7830 O.2   203  GLY203     -0.2717
     37  N         -0.7260  -27.2100   17.4420 N.am  204  LEU204     -0.1979
     38  CA        -0.0420  -28.0030   18.4720 C.3   204  LEU204      0.1596
     39  C         -0.3970  -27.4880   19.8450 C.2   204  LEU204      0.2287
     40  O         -0.0840  -26.3440   20.1780 O.2   204  LEU204     -0.2864
     41  CB         1.4760  -27.9500   18.3060 C.3   204  LEU204      0.0297
     42  CG         2.3810  -28.6880   19.3150 C.3   204  LEU204      0.0022
     43  CD1        2.2170  -30.2360   19.3070 C.3   204  LEU204      0.0001
     44  CD2        3.8330  -28.3020   19.0640 C.3   204  LEU204      0.0001
     45  N          7.2040  -35.8470   27.3260 N.3   212  LEU212     -0.1245
     46  CA         7.2320  -35.9560   25.8890 C.3   212  LEU212      0.1561
     47  C          8.6620  -36.2090   25.5570 C.2   212  LEU212      0.2260
     48  O          9.4790  -35.3610   25.8350 O.2   212  LEU212     -0.2867
     49  CB         6.7450  -34.6440   25.2860 C.3   212  LEU212      0.0270
     50  CG         6.8360  -34.4330   23.7530 C.3   212  LEU212      0.0019
     51  CD1        6.1820  -35.5560   22.9580 C.3   212  LEU212      0.0001
     52  CD2        6.1710  -33.1650   23.4360 C.3   212  LEU212      0.0001
     53  N         11.7040  -36.8600   22.9490 N.3   214  TYR214     -0.1241
     54  CA        12.3040  -36.8120   21.6180 C.3   214  TYR214      0.1605
     55  C         13.4530  -37.7850   21.5770 C.2   214  TYR214      0.2264
     56  O         14.2650  -37.8330   22.5400 O.2   214  TYR214     -0.2867
     57  CB        12.7930  -35.4040   21.1890 C.3   214  TYR214      0.0534
     58  CG        11.6580  -34.6700   20.5460 C.ar  214  TYR214     -0.0201
     59  CD1       11.5800  -34.5190   19.1740 C.ar  214  TYR214     -0.0009
     60  CD2       10.5660  -34.2710   21.3100 C.ar  214  TYR214     -0.0009
     61  CE1       10.4870  -33.8720   18.5850 C.ar  214  TYR214      0.0417
     62  CE2        9.4790  -33.6560   20.7320 C.ar  214  TYR214      0.0417
     63  CZ         9.4550  -33.4520   19.3670 C.ar  214  TYR214      0.1957
     64  OH         8.3440  -32.8720   18.7940 O.3   214  TYR214     -0.2866
     65  N          9.0110  -38.9120   18.1440 N.3   225  HIS225     -0.1226
     66  CA         8.7030  -38.4340   19.4590 C.3   225  HIS225      0.1752
     67  C          7.4400  -39.0930   19.9350 C.2   225  HIS225      0.2596
     68  O          6.6550  -39.5320   19.1230 O.2   225  HIS225     -0.2718
     69  CB         8.6060  -36.9030   19.4740 C.3   225  HIS225      0.0759
     70  CG         7.5180  -36.3700   18.6000 C.ar  225  HIS225      0.0818
     71  ND1        7.6800  -36.1510   17.2390 N.ar  225  HIS225     -0.2268
     72  CD2        6.2310  -36.0530   18.8900 C.ar  225  HIS225      0.1154
     73  CE1        6.5400  -35.6900   16.7460 C.ar  225  HIS225      0.1986
     74  NE2        5.6420  -35.6230   17.7240 N.ar  225  HIS225     -0.2212
     75  N          7.2670  -39.1680   21.2590 N.am  226  TYR226     -0.1962
     76  CA         6.0690  -39.7770   21.8680 C.3   226  TYR226      0.1771
     77  C          5.8140  -39.2700   23.2830 C.2   226  TYR226      0.2619
     78  O          6.7380  -39.0280   24.0280 O.2   226  TYR226     -0.2715
     79  CB         6.1860  -41.3160   21.8920 C.3   226  TYR226      0.0574
     80  CG         7.5860  -41.8690   22.2460 C.ar  226  TYR226     -0.0198
     81  CD1        7.9480  -42.1440   23.5540 C.ar  226  TYR226     -0.0009
     82  CD2        8.5230  -42.1340   21.2560 C.ar  226  TYR226     -0.0009
     83  CE1        9.2490  -42.6270   23.8670 C.ar  226  TYR226      0.0417
     84  CE2        9.7770  -42.6360   21.5600 C.ar  226  TYR226      0.0417
     85  CZ        10.1320  -42.8770   22.8590 C.ar  226  TYR226      0.1957
     86  OH        11.3860  -43.4040   23.1360 O.3   226  TYR226     -0.2866
     87  N          4.5590  -39.1000   23.6360 N.am  227  TYR227     -0.1974
     88  CA         4.1600  -38.9410   25.0430 C.3   227  TYR227      0.1639
     89  C          4.2960  -40.2400   25.8270 C.2   227  TYR227      0.2290
     90  O          4.2200  -41.3240   25.2800 O.2   227  TYR227     -0.2864
     91  CB         2.7040  -38.4630   25.1520 C.3   227  TYR227      0.0560
     92  CG         2.5040  -37.0230   24.7060 C.ar  227  TYR227     -0.0198
     93  CD1        3.1360  -35.9800   25.3770 C.ar  227  TYR227     -0.0009
     94  CD2        1.6760  -36.7020   23.6380 C.ar  227  TYR227     -0.0009
     95  CE1        2.9550  -34.6930   25.0170 C.ar  227  TYR227      0.0417
     96  CE2        1.5030  -35.3850   23.2480 C.ar  227  TYR227      0.0417
     97  CZ         2.1640  -34.3970   23.9450 C.ar  227  TYR227      0.1957
     98  OH         2.0500  -33.1010   23.5800 O.3   227  TYR227     -0.2866
     99  N         -5.6530  -32.3640   26.0190 N.3   238  GLN238     -0.1245
    100  CA        -5.5480  -31.4610   24.8690 C.3   238  GLN238      0.1566
    101  C         -6.9280  -30.8920   24.4490 C.2   238  GLN238      0.2260
    102  O         -7.0100  -29.7750   23.9350 O.2   238  GLN238     -0.2867
    103  CB        -4.8890  -32.1840   23.6720 C.3   238  GLN238      0.0367
    104  CG        -3.4380  -32.6380   23.8860 C.3   238  GLN238      0.0905
    105  CD        -3.0130  -33.7600   22.9240 C.2   238  GLN238      0.2608
    106  OE1       -3.6920  -34.7770   22.7740 O.2   238  GLN238     -0.2717
    107  NE2       -1.8780  -33.5690   22.2800 N.am  238  GLN238     -0.0878
@<TRIPOS>BOND
     1    32    30   ar
     2    31    30   ar
     3    30    29    1
     4    25    26    1
     5    29    26    1
     6    19    20    2
     7    19    18    1
     8    26    27    1
     9    18    17    1
    10    18    21    1
    11    12    11    2
    12    27    28    2
    13    11    10    1
    14    23    21    1
    15    21    22    1
    16    22    24    1
    17    10    13    1
    18    10     9    1
    19    13    14    1
    20    15    14   ar
    21    14    16   ar
    22    33    34    1
    23    34    35    1
    24     4     3    2
    25    73    71   ar
    26    73    74   ar
    27    35    37   am
    28    35    36    2
    29    71    70   ar
    30    37    38    1
    31     3     2    1
    32    74    72   ar
    33    65    66    1
    34    41    38    1
    35    41    42    1
    36    38    39    1
    37     7     5    1
    38    61    59   ar
    39    61    63   ar
    40    70    72   ar
    41    70    69    1
    42    64    63    1
    43    44    42    1
    44     2     5    1
    45     2     1    1
    46    68    67    2
    47    59    58   ar
    48    43    42    1
    49    63    62   ar
    50    66    69    1
    51    66    67    1
    52     5     6    1
    53    39    40    2
    54    67    75   am
    55    58    57    1
    56    58    60   ar
    57    62    60   ar
    58     6     8    1
    59    57    54    1
    60    82    84   ar
    61    82    80   ar
    62    75    76    1
    63    84    85   ar
    64    55    54    1
    65    55    56    2
    66    54    53    1
    67    76    79    1
    68    76    77    1
    69    79    80    1
    70    80    81   ar
    71   107   105   am
    72   106   105    2
    73    85    86    1
    74    85    83   ar
    75   105   104    1
    76    51    50    1
    77    96    94   ar
    78    96    97   ar
    79    77    87   am
    80    77    78    2
    81    52    50    1
    82    81    83   ar
    83    98    97    1
    84    87    88    1
    85    94    92   ar
    86   103   104    1
    87   103   100    1
    88    50    49    1
    89   102   101    2
    90    97    95   ar
    91   101   100    1
    92    92    91    1
    93    92    93   ar
    94   100    99    1
    95    95    93   ar
    96    88    91    1
    97    88    89    1
    98    90    89    2
    99    49    46    1
   100    47    48    2
   101    47    46    1
   102    46    45    1
