@<TRIPOS>MOLECULE
tmp/3gp5A01.pdb
 144 137 0 0 0
SMALL
GASTEIGER

@<TRIPOS>ATOM
      1  N          5.5520  -30.0880   29.9930 N.3     8  ARG8       -0.1231
      2  CA         4.8630  -28.8520   30.4070 C.3     8  ARG8        0.1694
      3  C          4.5760  -28.9300   31.9440 C.2     8  ARG8        0.2592
      4  O          4.3510  -30.0070   32.4970 O.2     8  ARG8       -0.2718
      5  CB         3.5920  -28.6110   29.5930 C.3     8  ARG8        0.0321
      6  CG         2.7710  -27.4080   30.0640 C.3     8  ARG8        0.0489
      7  CD         1.5130  -27.2210   29.2510 C.3     8  ARG8        0.2205
      8  NE         0.6840  -26.1410   29.7620 N.pl3   8  ARG8       -0.0865
      9  CZ        -0.5930  -25.8980   29.4080 C.cat   8  ARG8        0.5346
     10  NH1       -1.2450  -26.6410   28.4820 N.pl3   8  ARG8        0.1354
     11  NH2       -1.2090  -24.8530   29.9380 N.pl3   8  ARG8        0.1354
     12  N          4.6510  -27.7870   32.6250 N.am    9  HIS9       -0.1976
     13  CA         4.3250  -27.7480   34.0220 C.3     9  HIS9        0.1656
     14  C          2.9430  -28.3470   34.2570 C.2     9  HIS9        0.2291
     15  O          2.0860  -28.3430   33.3900 O.2     9  HIS9       -0.2864
     16  CB         4.3500  -26.3040   34.5650 C.3     9  HIS9        0.0771
     17  CG         3.3460  -25.3930   33.9210 C.ar    9  HIS9        0.0820
     18  ND1        2.0540  -25.2880   34.3700 N.ar    9  HIS9       -0.2267
     19  CD2        3.4460  -24.5610   32.8490 C.ar    9  HIS9        0.1154
     20  CE1        1.4030  -24.4190   33.6180 C.ar    9  HIS9        0.1986
     21  NE2        2.2170  -23.9750   32.6750 N.ar    9  HIS9       -0.2212
     22  N         -4.4120  -21.8910   34.9490 N.3    15  ASN15      -0.1240
     23  CA        -4.9960  -22.8980   34.0540 C.3    15  ASN15       0.1653
     24  C         -6.3860  -23.2730   34.5620 C.2    15  ASN15       0.2266
     25  O         -7.3020  -23.4330   33.7830 O.2    15  ASN15      -0.2867
     26  CB        -4.1760  -24.1970   33.9380 C.3    15  ASN15       0.1155
     27  CG        -2.7230  -23.9650   33.4280 C.2    15  ASN15       0.2627
     28  OD1       -1.8360  -24.7680   33.7150 O.2    15  ASN15      -0.2716
     29  ND2       -2.4800  -22.8560   32.7330 N.am   15  ASN15      -0.0877
     30  N         -7.1790  -18.2350   32.9710 N.3    19  ARG19      -0.1231
     31  CA        -6.5810  -16.9090   32.7630 C.3    19  ARG19       0.1694
     32  C         -5.2100  -16.9710   32.0380 C.2    19  ARG19       0.2592
     33  O         -4.3840  -17.8670   32.3020 O.2    19  ARG19      -0.2718
     34  CB        -6.4240  -16.1900   34.1120 C.3    19  ARG19       0.0321
     35  CG        -7.7320  -16.1980   34.9420 C.3    19  ARG19       0.0489
     36  CD        -7.5450  -15.7340   36.3480 C.3    19  ARG19       0.2205
     37  NE        -7.1560  -14.3300   36.4020 N.pl3  19  ARG19      -0.0865
     38  CZ        -6.8150  -13.6770   37.5250 C.cat  19  ARG19       0.5346
     39  NH1       -6.8300  -14.3070   38.7110 N.pl3  19  ARG19       0.1354
     40  NH2       -6.4810  -12.3740   37.4740 N.pl3  19  ARG19       0.1354
     41  N         -4.9660  -16.0080   31.1300 N.am   20  PHE20      -0.1962
     42  CA        -3.7380  -16.0180   30.3570 C.3    20  PHE20       0.1771
     43  C         -2.6770  -15.6790   31.3900 C.2    20  PHE20       0.2620
     44  O         -2.8560  -14.7450   32.1650 O.2    20  PHE20      -0.2715
     45  CB        -3.6700  -14.9560   29.2540 C.3    20  PHE20       0.0574
     46  CG        -4.7870  -14.9590   28.2560 C.ar   20  PHE20      -0.0200
     47  CD1       -4.6670  -15.6440   27.0510 C.ar   20  PHE20      -0.0042
     48  CD2       -5.9120  -14.1410   28.4510 C.ar   20  PHE20      -0.0042
     49  CE1       -5.6840  -15.5840   26.1100 C.ar   20  PHE20      -0.0003
     50  CE2       -6.9360  -14.0950   27.5200 C.ar   20  PHE20      -0.0003
     51  CZ        -6.8160  -14.7980   26.3350 C.ar   20  PHE20      -0.0000
     52  N         -1.5750  -16.4150   31.3930 N.am   21  THR21      -0.1937
     53  CA        -0.5420  -16.2470   32.4080 C.3    21  THR21       0.2028
     54  C          0.7200  -15.5330   31.9190 C.2    21  THR21       0.2642
     55  O          1.1070  -14.5180   32.4730 O.2    21  THR21      -0.2714
     56  CB        -0.1540  -17.6150   33.0190 C.3    21  THR21       0.1808
     57  OG1       -1.3370  -18.2870   33.4880 O.3    21  THR21      -0.2208
     58  CG2        0.8170  -17.4180   34.1840 C.3    21  THR21       0.0379
     59  N          1.3710  -16.0540   30.9010 N.am   22  GLY22      -0.1954
     60  CA         2.6510  -15.5270   30.4620 C.3    22  GLY22       0.1869
     61  C          3.7150  -15.5180   31.5650 C.2    22  GLY22       0.2309
     62  O          4.0370  -16.5470   32.0940 O.2    22  GLY22      -0.2863
     63  N          5.9780  -22.4490   38.6820 N.3    60  ARG60      -0.1245
     64  CA         5.1320  -23.5250   38.2620 C.3    60  ARG60       0.1563
     65  C          5.8940  -24.5630   37.4800 C.2    60  ARG60       0.2260
     66  O          5.6490  -25.7600   37.6840 O.2    60  ARG60      -0.2867
     67  CB         3.9280  -23.0530   37.4810 C.3    60  ARG60       0.0307
     68  CG         4.1980  -22.3700   36.1670 C.3    60  ARG60       0.0489
     69  CD         2.9030  -21.6070   35.7470 C.3    60  ARG60       0.2205
     70  NE         2.9950  -20.9360   34.4490 N.pl3  60  ARG60      -0.0865
     71  CZ         3.3860  -19.6740   34.2700 C.cat  60  ARG60       0.5346
     72  NH1        3.7660  -18.9250   35.3110 N.pl3  60  ARG60       0.1354
     73  NH2        3.3850  -19.1610   33.0300 N.pl3  60  ARG60       0.1354
     74  N          7.5230  -18.9110   29.8210 N.3    87  GLU87      -0.1245
     75  CA         6.3570  -18.9910   28.9780 C.3    87  GLU87       0.1567
     76  C          6.3700  -17.7570   28.0680 C.2    87  GLU87       0.2260
     77  O          6.8390  -16.6840   28.4660 O.2    87  GLU87      -0.2867
     78  CB         5.0460  -19.0220   29.7890 C.3    87  GLU87       0.0388
     79  CG         3.7490  -19.0740   28.8940 C.3    87  GLU87       0.1160
     80  CD         3.7020  -20.2890   27.9810 C.2    87  GLU87       0.3649
     81  OE1        2.7600  -21.0720   28.0720 O.co2  87  GLU87      -0.2457
     82  OE2        4.6230  -20.5110   27.1760 O.co2  87  GLU87      -0.2457
     83  N          2.5100  -12.7460   27.6090 N.3    90  TYR90      -0.1241
     84  CA         1.1000  -12.4900   27.1550 C.3    90  TYR90       0.1605
     85  C          0.6450  -11.0550   27.2070 C.2    90  TYR90       0.2264
     86  O         -0.5520  -10.8160   27.0810 O.2    90  TYR90      -0.2867
     87  CB         0.0470  -13.3130   27.9480 C.3    90  TYR90       0.0534
     88  CG        -0.5180  -14.4470   27.1310 C.ar   90  TYR90      -0.0201
     89  CD1       -0.9970  -14.2120   25.8590 C.ar   90  TYR90      -0.0009
     90  CD2       -0.5770  -15.7710   27.6420 C.ar   90  TYR90      -0.0009
     91  CE1       -1.4980  -15.2450   25.0730 C.ar   90  TYR90       0.0417
     92  CE2       -1.0670  -16.8110   26.8540 C.ar   90  TYR90       0.0417
     93  CZ        -1.5170  -16.5350   25.5500 C.ar   90  TYR90       0.1957
     94  OH        -2.0280  -17.5240   24.7050 O.3    90  TYR90      -0.2866
     95  N         -9.7980  -16.0250   29.7500 N.3    98  LYS98      -0.1245
     96  CA        -9.7570  -16.3730   28.3230 C.3    98  LYS98       0.1561
     97  C        -11.1610  -16.4490   27.6680 C.2    98  LYS98       0.2260
     98  O        -11.3440  -16.0860   26.4780 O.2    98  LYS98      -0.2867
     99  CB        -9.0130  -17.7160   28.1420 C.3    98  LYS98       0.0271
    100  CG        -7.6510  -17.7960   28.8790 C.3    98  LYS98       0.0035
    101  CD        -6.7210  -18.8860   28.2850 C.3    98  LYS98       0.0206
    102  CE        -5.6530  -19.3450   29.3090 C.3    98  LYS98       0.1093
    103  NZ        -4.8480  -20.4870   28.8060 N.3    98  LYS98      -0.1314
    104  N         -3.6530  -16.6740   20.9830 N.3   114  ARG114     -0.1231
    105  CA        -3.1260  -17.8580   21.6490 C.3   114  ARG114      0.1694
    106  C         -2.2050  -18.6960   20.7800 C.2   114  ARG114      0.2591
    107  O         -1.2200  -19.2570   21.2730 O.2   114  ARG114     -0.2718
    108  CB        -4.2450  -18.7390   22.1620 C.3   114  ARG114      0.0321
    109  CG        -5.1270  -18.0710   23.1800 C.3   114  ARG114      0.0489
    110  CD        -6.2440  -18.9860   23.5500 C.3   114  ARG114      0.2205
    111  NE        -5.8020  -20.0780   24.4020 N.pl3 114  ARG114     -0.0865
    112  CZ        -6.0160  -21.3880   24.1730 C.cat 114  ARG114      0.5346
    113  NH1       -5.5900  -22.3170   25.0470 N.pl3 114  ARG114      0.1354
    114  NH2       -6.6940  -21.7890   23.1090 N.pl3 114  ARG114      0.1354
    115  N         -2.5100  -18.7810   19.5010 N.am  115  ARG115     -0.1980
    116  CA        -1.8910  -19.8120   18.6840 C.3   115  ARG115      0.1597
    117  C         -1.1490  -19.3850   17.4160 C.2   115  ARG115      0.2287
    118  O         -0.2660  -20.1300   16.9710 O.2   115  ARG115     -0.2864
    119  CB        -2.9170  -20.9080   18.3930 C.3   115  ARG115      0.0334
    120  CG        -3.3150  -21.7310   19.6320 C.3   115  ARG115      0.0492
    121  CD        -2.1220  -22.6260   20.0670 C.3   115  ARG115      0.2205
    122  NE        -2.3760  -23.3530   21.3090 N.pl3 115  ARG115     -0.0865
    123  CZ        -2.2950  -22.8310   22.5230 C.cat 115  ARG115      0.5346
    124  NH1       -1.9600  -21.5530   22.6970 N.pl3 115  ARG115      0.1354
    125  NH2       -2.5460  -23.5960   23.5690 N.pl3 115  ARG115      0.1354
    126  N          3.8020  -24.5330   28.0510 N.3   183  GLY183     -0.1210
    127  CA         3.0900  -24.8160   26.7980 C.3   183  GLY183      0.1956
    128  C          3.6600  -24.1280   25.5890 C.2   183  GLY183      0.2611
    129  O          4.1400  -24.7930   24.6690 O.2   183  GLY183     -0.2717
    130  N          3.6710  -22.7930   25.5950 N.am  184  ASN184     -0.1974
    131  CA         4.1010  -22.0700   24.3960 C.3   184  ASN184      0.1688
    132  C          5.6150  -22.0010   24.1910 C.2   184  ASN184      0.2292
    133  O          6.0750  -22.0050   23.0240 O.2   184  ASN184     -0.2864
    134  CB         3.4210  -20.7030   24.2820 C.3   184  ASN184      0.1181
    135  CG         1.8760  -20.7970   24.1650 C.2   184  ASN184      0.2629
    136  OD1        1.3110  -21.6790   23.4890 O.2   184  ASN184     -0.2716
    137  ND2        1.2020  -19.8820   24.8290 N.am  184  ASN184     -0.0877
    138  N         -7.5360  -28.0990   26.9320 N.3   241  VAL241     -0.1245
    139  CA        -6.6710  -26.9580   26.5070 C.3   241  VAL241      0.1561
    140  C         -7.3920  -26.0520   25.4780 C.2   241  VAL241      0.2260
    141  O         -7.3380  -24.8230   25.5950 O.2   241  VAL241     -0.2867
    142  CB        -5.2690  -27.4180   25.9940 C.3   241  VAL241      0.0252
    143  CG1       -4.4920  -26.2380   25.3500 C.3   241  VAL241      0.0019
    144  CG2       -4.4530  -28.0700   27.1500 C.3   241  VAL241      0.0019
@<TRIPOS>BOND
     1   118   117    2
     2   117   116    1
     3   119   116    1
     4   119   120    1
     5   116   115    1
     6   115   106   am
     7   120   121    1
     8   121   122    1
     9   106   107    2
    10   106   105    1
    11   104   105    1
    12   122   123    2
    13   105   108    1
    14   108   109    1
    15   123   124    1
    16   123   125    1
    17   133   132    2
    18   114   112    1
    19   109   110    1
    20   136   135    2
    21   110   111    1
    22   135   134    1
    23   135   137   am
    24   112   111    2
    25   112   113    1
    26   132   131    1
    27   134   131    1
    28   131   130    1
    29   129   128    2
    30    94    93    1
    31    91    93   ar
    32    91    89   ar
    33   143   142    1
    34   140   141    2
    35   140   139    1
    36    93    92   ar
    37   128   130   am
    38   128   127    1
    39    89    88   ar
    40   142   139    1
    41   142   144    1
    42    49    51   ar
    43    49    47   ar
    44    51    50   ar
    45    98    97    2
    46   139   138    1
    47   127   126    1
    48    92    90   ar
    49    47    46   ar
    50    86    85    2
    51    88    90   ar
    52    88    87    1
    53    84    85    1
    54    84    83    1
    55    84    87    1
    56    82    80   ar
    57    50    48   ar
    58    97    96    1
    59    80    81   ar
    60    80    79    1
    61    76    77    2
    62    76    75    1
    63    99    96    1
    64    99   100    1
    65    46    48   ar
    66    46    45    1
    67   101   100    1
    68   101   102    1
    69    96    95    1
    70    10     9    1
    71   103   102    1
    72    79    78    1
    73    75    78    1
    74    75    74    1
    75     7     8    1
    76     7     6    1
    77    45    42    1
    78     9     8    2
    79     9    11    1
    80     5     6    1
    81     5     2    1
    82     1     2    1
    83    42    41    1
    84    42    43    1
    85     2     3    1
    86    60    59    1
    87    60    61    1
    88    59    54   am
    89    41    32   am
    90    43    52   am
    91    43    44    2
    92    52    53    1
    93    61    62    2
    94    54    53    1
    95    54    55    2
    96     3     4    2
    97     3    12   am
    98    32    33    2
    99    32    31    1
   100    53    56    1
   101    12    13    1
   102    21    19   ar
   103    21    20   ar
   104    29    27   am
   105    31    30    1
   106    31    34    1
   107    19    17   ar
   108    56    57    1
   109    56    58    1
   110    73    71    1
   111    15    14    2
   112    27    28    2
   113    27    26    1
   114    20    18   ar
   115    25    24    2
   116    17    18   ar
   117    17    16    1
   118    26    23    1
   119    13    14    1
   120    13    16    1
   121    23    24    1
   122    23    22    1
   123    34    35    1
   124    71    70    2
   125    71    72    1
   126    70    69    1
   127    35    36    1
   128    69    68    1
   129    68    67    1
   130    36    37    1
   131    37    38    2
   132    40    38    1
   133    65    66    2
   134    65    64    1
   135    67    64    1
   136    38    39    1
   137    64    63    1
