@<TRIPOS>MOLECULE
tmp/3gp6A01.pdb
 205 193 0 0 0
SMALL
GASTEIGER

@<TRIPOS>ATOM
      1  N         12.1010   49.4290   44.6970 N.3    27  TYR27      -0.1241
      2  CA        12.7340   48.6060   43.6600 C.3    27  TYR27       0.1605
      3  C         13.9970   49.3780   43.2000 C.2    27  TYR27       0.2264
      4  O         13.8760   50.5390   42.8500 O.2    27  TYR27      -0.2867
      5  CB        11.7850   48.4160   42.4400 C.3    27  TYR27       0.0534
      6  CG        10.5730   47.5480   42.6870 C.ar   27  TYR27      -0.0201
      7  CD1        9.4540   47.9970   43.4060 C.ar   27  TYR27      -0.0009
      8  CD2       10.5380   46.2470   42.2410 C.ar   27  TYR27      -0.0009
      9  CE1        8.3290   47.1620   43.5660 C.ar   27  TYR27       0.0417
     10  CE2        9.4300   45.4470   42.4410 C.ar   27  TYR27       0.0417
     11  CZ         8.3890   45.8730   43.1540 C.ar   27  TYR27       0.1957
     12  OH         7.2810   45.0490   43.3250 O.3    27  TYR27      -0.2866
     13  N          3.5970   35.4730   46.6410 N.3    59  TRP59      -0.1241
     14  CA         3.7700   36.9280   46.5270 C.3    59  TRP59       0.1605
     15  C          2.9070   37.5720   45.4340 C.2    59  TRP59       0.2264
     16  O          2.8660   37.0490   44.3170 O.2    59  TRP59      -0.2867
     17  CB         5.2340   37.2140   46.2000 C.3    59  TRP59       0.0550
     18  CG         5.6240   38.6680   46.2700 C.ar   59  TRP59       0.0003
     19  CD1        5.8070   39.3590   47.3960 C.ar   59  TRP59       0.0946
     20  CD2        5.8790   39.5710   45.1690 C.ar   59  TRP59       0.0152
     21  NE1        6.1330   40.6750   47.0950 N.ar   59  TRP59      -0.2442
     22  CE2        6.0870   40.8400   45.7300 C.ar   59  TRP59       0.0810
     23  CE3        5.8360   39.4490   43.7940 C.ar   59  TRP59       0.0012
     24  CZ2        6.3830   41.9240   44.9340 C.ar   59  TRP59       0.0191
     25  CZ3        6.0690   40.5640   42.9820 C.ar   59  TRP59       0.0001
     26  CH2        6.3740   41.7990   43.5840 C.ar   59  TRP59       0.0015
     27  N          3.4160   47.4690   40.8220 N.3    63  TYR63      -0.1241
     28  CA         4.6280   48.3000   40.8250 C.3    63  TYR63       0.1605
     29  C          4.6300   49.3260   39.6930 C.2    63  TYR63       0.2264
     30  O          4.0400   49.1190   38.6430 O.2    63  TYR63      -0.2867
     31  CB         5.9260   47.3990   40.7220 C.3    63  TYR63       0.0534
     32  CG         6.0140   46.6350   39.4160 C.ar   63  TYR63      -0.0201
     33  CD1        6.5280   47.1990   38.2590 C.ar   63  TYR63      -0.0009
     34  CD2        5.3130   45.4400   39.2580 C.ar   63  TYR63      -0.0009
     35  CE1        6.4630   46.5600   37.0470 C.ar   63  TYR63       0.0417
     36  CE2        5.3350   44.7640   38.0500 C.ar   63  TYR63       0.0417
     37  CZ         5.9000   45.2930   36.9330 C.ar   63  TYR63       0.1957
     38  OH         5.8860   44.7450   35.7000 O.3    63  TYR63      -0.2866
     39  N          7.9760   51.4870   37.9060 N.3    65  MET65      -0.1245
     40  CA         9.4520   51.6450   37.8800 C.3    65  MET65       0.1570
     41  C          9.9000   52.4090   36.6360 C.2    65  MET65       0.2261
     42  O          9.2490   52.3600   35.6190 O.2    65  MET65      -0.2867
     43  CB        10.0360   50.2070   37.8160 C.3    65  MET65       0.0387
     44  CG        11.5540   50.1240   37.9520 C.3    65  MET65       0.0595
     45  SD        12.1230   48.5540   38.5890 S.3    65  MET65      -0.1393
     46  CE        11.6930   47.3860   37.2730 C.3    65  MET65       0.0692
     47  N         13.7480   52.9170   34.4410 N.3    67  PHE67      -0.1241
     48  CA        15.1810   52.6220   34.3620 C.3    67  PHE67       0.1605
     49  C         15.6970   53.0960   33.0210 C.2    67  PHE67       0.2264
     50  O         14.9820   53.2660   32.0770 O.2    67  PHE67      -0.2867
     51  CB        15.4450   51.1300   34.6310 C.3    67  PHE67       0.0534
     52  CG        14.6730   50.2020   33.7740 C.ar   67  PHE67      -0.0203
     53  CD1       15.0830   49.8860   32.5140 C.ar   67  PHE67      -0.0042
     54  CD2       13.4080   49.7470   34.1630 C.ar   67  PHE67      -0.0042
     55  CE1       14.3670   49.0530   31.6750 C.ar   67  PHE67      -0.0003
     56  CE2       12.6630   48.9110   33.2810 C.ar   67  PHE67      -0.0003
     57  CZ        13.1480   48.5810   32.0540 C.ar   67  PHE67      -0.0000
     58  N         13.0050   54.3100   30.4580 N.3    75  GLU75      -0.1245
     59  CA        11.9840   53.2510   30.1320 C.3    75  GLU75       0.1567
     60  C         11.0900   53.0880   31.3640 C.2    75  GLU75       0.2260
     61  O         11.5190   52.5850   32.3680 O.2    75  GLU75      -0.2867
     62  CB        12.5180   51.8370   29.6970 C.3    75  GLU75       0.0388
     63  CG        11.3820   50.8880   29.5010 C.3    75  GLU75       0.1160
     64  CD        11.8230   49.6410   28.8380 C.2    75  GLU75       0.3649
     65  OE1       10.9530   48.7360   28.7600 O.co2  75  GLU75      -0.2457
     66  OE2       12.9890   49.5010   28.4660 O.co2  75  GLU75      -0.2457
     67  N          7.8030   51.4260   33.3860 N.3    77  ILE77      -0.1245
     68  CA         6.9650   50.2400   33.3250 C.3    77  ILE77       0.1561
     69  C          6.1050   50.2090   34.5620 C.2    77  ILE77       0.2260
     70  O          6.5020   50.6010   35.6360 O.2    77  ILE77      -0.2867
     71  CB         7.7630   48.9160   33.2440 C.3    77  ILE77       0.0252
     72  CG1        6.8950   47.6150   33.1140 C.3    77  ILE77       0.0019
     73  CG2        8.7770   48.7790   34.4120 C.3    77  ILE77       0.0019
     74  CD1        7.6230   46.3490   32.7940 C.3    77  ILE77       0.0001
     75  N          2.8810   41.6130   39.4940 N.3    81  GLY81      -0.1225
     76  CA         3.7490   40.4740   39.5880 C.3    81  GLY81       0.1811
     77  C          3.1950   39.4510   40.5690 C.2    81  GLY81       0.2280
     78  O          2.5940   39.8030   41.5790 O.2    81  GLY81      -0.2866
     79  N          5.1220   38.4100   35.5140 N.3   101  THR101     -0.1218
     80  CA         4.5990   39.7740   35.5920 C.3   101  THR101      0.1862
     81  C          3.8130   40.0590   34.2770 C.2   101  THR101      0.2287
     82  O          4.2410   39.6450   33.2010 O.2   101  THR101     -0.2866
     83  CB         5.7050   40.8230   35.8390 C.3   101  THR101      0.1770
     84  OG1        5.0590   42.0850   35.8900 O.3   101  THR101     -0.2211
     85  CG2        6.6970   40.8190   34.7560 C.3   101  THR101      0.0375
     86  N          4.8450   48.7930   29.2620 N.3   105  THR105     -0.1218
     87  CA         6.0900   49.5870   29.2260 C.3   105  THR105      0.1862
     88  C          6.0700   50.4590   27.9970 C.2   105  THR105      0.2287
     89  O          5.1600   50.3840   27.1600 O.2   105  THR105     -0.2866
     90  CB         7.3830   48.7030   29.2960 C.3   105  THR105      0.1770
     91  OG1        8.5490   49.4830   29.5770 O.3   105  THR105     -0.2211
     92  CG2        7.5990   47.9000   28.0460 C.3   105  THR105      0.0375
     93  N          9.0420   52.6000   25.2680 N.3   107  ARG107     -0.1245
     94  CA        10.4530   52.9120   24.9790 C.3   107  ARG107      0.1563
     95  C         10.5950   53.9610   23.9120 C.2   107  ARG107      0.2260
     96  O          9.7690   54.0860   23.0060 O.2   107  ARG107     -0.2867
     97  CB        11.1670   51.6760   24.5220 C.3   107  ARG107      0.0307
     98  CG        11.2950   50.6500   25.6200 C.3   107  ARG107      0.0489
     99  CD        12.1780   49.4870   25.2450 C.3   107  ARG107      0.2205
    100  NE        13.5250   49.9720   24.9550 N.pl3 107  ARG107     -0.0865
    101  CZ        14.3810   49.2990   24.2090 C.cat 107  ARG107      0.5346
    102  NH1       14.0540   48.1270   23.6530 N.pl3 107  ARG107      0.1354
    103  NH2       15.5870   49.8090   24.0000 N.pl3 107  ARG107      0.1354
    104  N         10.3600   53.2870   19.9570 N.3   110  TRP110     -0.1241
    105  CA         9.0700   53.3330   19.2720 C.3   110  TRP110      0.1605
    106  C          8.2490   54.4970   19.7860 C.2   110  TRP110      0.2264
    107  O          7.0280   54.3920   19.9710 O.2   110  TRP110     -0.2867
    108  CB         8.3340   51.9690   19.3860 C.3   110  TRP110      0.0550
    109  CG         9.1670   50.8370   18.9090 C.ar  110  TRP110      0.0003
    110  CD1        9.5000   50.5350   17.6090 C.ar  110  TRP110      0.0946
    111  CD2        9.8350   49.8770   19.7200 C.ar  110  TRP110      0.0152
    112  NE1       10.3070   49.4390   17.5730 N.ar  110  TRP110     -0.2442
    113  CE2       10.5420   49.0140   18.8530 C.ar  110  TRP110      0.0810
    114  CE3        9.8800   49.6400   21.0890 C.ar  110  TRP110      0.0012
    115  CZ2       11.3000   47.9310   19.3240 C.ar  110  TRP110      0.0191
    116  CZ3       10.6450   48.5940   21.5570 C.ar  110  TRP110      0.0001
    117  CH2       11.3430   47.7360   20.6740 C.ar  110  TRP110      0.0015
    118  N          3.4900   49.3390   25.2430 N.3   115  LEU115     -0.1245
    119  CA         3.7380   47.9750   24.8250 C.3   115  LEU115      0.1561
    120  C          3.3150   47.0430   25.9440 C.2   115  LEU115      0.2260
    121  O          3.6200   47.2870   27.0900 O.2   115  LEU115     -0.2867
    122  CB         5.2820   47.8450   24.6710 C.3   115  LEU115      0.0270
    123  CG         6.0250   48.8330   23.7700 C.3   115  LEU115      0.0019
    124  CD1        7.4850   48.7110   23.9370 C.3   115  LEU115      0.0001
    125  CD2        5.6030   48.6620   22.3440 C.3   115  LEU115      0.0001
    126  N          3.4440   43.7370   28.2680 N.3   117  VAL117     -0.1245
    127  CA         4.5320   42.9760   28.8370 C.3   117  VAL117      0.1561
    128  C          3.9650   41.7330   29.5460 C.2   117  VAL117      0.2260
    129  O          3.0520   41.8270   30.3370 O.2   117  VAL117     -0.2867
    130  CB         5.2800   43.8300   29.9270 C.3   117  VAL117      0.0252
    131  CG1        6.2870   42.9910   30.5970 C.3   117  VAL117      0.0019
    132  CG2        5.9270   45.0900   29.2980 C.3   117  VAL117      0.0019
    133  N          6.1560   38.4940   31.1750 N.3   119  LEU119     -0.1245
    134  CA         7.4880   37.9210   31.3660 C.3   119  LEU119      0.1561
    135  C          7.5630   37.0960   32.6100 C.2   119  LEU119      0.2260
    136  O          6.8100   37.2780   33.5510 O.2   119  LEU119     -0.2867
    137  CB         8.4450   39.0930   31.5350 C.3   119  LEU119      0.0270
    138  CG         8.7120   40.0210   30.3680 C.3   119  LEU119      0.0019
    139  CD1        9.4960   41.3070   30.7790 C.3   119  LEU119      0.0001
    140  CD2        9.3520   39.2280   29.1800 C.3   119  LEU119      0.0001
    141  N          9.2070   35.6510   36.2120 N.3   121  LEU121     -0.1245
    142  CA         9.8760   36.2340   37.4050 C.3   121  LEU121      0.1561
    143  C         10.4870   35.1410   38.2300 C.2   121  LEU121      0.2260
    144  O          9.9610   34.0370   38.2680 O.2   121  LEU121     -0.2867
    145  CB         8.8420   36.9670   38.2880 C.3   121  LEU121      0.0270
    146  CG         8.2400   38.2730   37.9320 C.3   121  LEU121      0.0019
    147  CD1        7.3220   38.6760   39.0470 C.3   121  LEU121      0.0001
    148  CD2        9.2740   39.3090   37.6270 C.3   121  LEU121      0.0001
    149  N         15.2800   39.9210   42.8910 N.3   132  GLN132     -0.1245
    150  CA        14.2450   39.4680   42.0160 C.3   132  GLN132      0.1566
    151  C         14.6120   39.8330   40.5790 C.2   132  GLN132      0.2260
    152  O         15.3720   40.8130   40.3270 O.2   132  GLN132     -0.2867
    153  CB        12.9280   40.1120   42.4560 C.3   132  GLN132      0.0367
    154  CG        11.7170   39.8440   41.6040 C.3   132  GLN132      0.0905
    155  CD        10.4550   40.3840   42.1920 C.2   132  GLN132      0.2608
    156  OE1       10.4060   41.5500   42.5670 O.2   132  GLN132     -0.2717
    157  NE2        9.3850   39.5190   42.2530 N.am  132  GLN132     -0.0878
    158  N         13.7450   39.1070   36.0420 N.3   134  THR134     -0.1218
    159  CA        13.0420   38.6180   34.8890 C.3   134  THR134      0.1862
    160  C         14.0170   38.1620   33.8120 C.2   134  THR134      0.2287
    161  O         15.2190   38.3910   33.8970 O.2   134  THR134     -0.2866
    162  CB        12.0680   39.7050   34.3630 C.3   134  THR134      0.1770
    163  OG1       11.1440   39.1450   33.4140 O.3   134  THR134     -0.2211
    164  CG2       12.7970   40.9340   33.7650 C.3   134  THR134      0.0375
    165  N         14.1190   38.2190   29.5160 N.3   136  ILE136     -0.1242
    166  CA        13.5070   38.6950   28.2750 C.3   136  ILE136      0.1601
    167  C         13.8190   37.7550   27.1230 C.2   136  ILE136      0.2264
    168  O         14.9860   37.6870   26.7250 O.2   136  ILE136     -0.2867
    169  CB        13.9690   40.1150   27.9040 C.3   136  ILE136      0.0472
    170  CG1       13.8990   41.1000   29.0750 C.2   136  ILE136     -0.0246
    171  CG2       13.2390   40.6060   26.6460 C.3   136  ILE136      0.0066
    172  CD1       13.0590   40.8540   30.0850 C.2   136  ILE136     -0.0049
    173  N         17.2200   40.5340   20.3180 N.3   142  ASN142     -0.1240
    174  CA        15.8940   40.7540   20.9120 C.3   142  ASN142      0.1653
    175  C         15.9100   40.6590   22.4300 C.2   142  ASN142      0.2266
    176  O         15.2420   41.4510   23.1390 O.2   142  ASN142     -0.2867
    177  CB        14.9010   39.6670   20.4550 C.3   142  ASN142      0.1155
    178  CG        14.8530   39.4640   18.9510 C.2   142  ASN142      0.2627
    179  OD1       14.4180   40.3440   18.2040 O.2   142  ASN142     -0.2716
    180  ND2       15.2530   38.2670   18.5040 N.am  142  ASN142     -0.0877
    181  N         17.3590   40.5490   33.7850 N.3   147  PHE147     -0.1241
    182  CA        17.4100   41.8240   34.4100 C.3   147  PHE147      0.1605
    183  C         16.9740   41.6290   35.8560 C.2   147  PHE147      0.2264
    184  O         15.8810   41.0930   36.0740 O.2   147  PHE147     -0.2867
    185  CB        16.4620   42.7810   33.6720 C.3   147  PHE147      0.0534
    186  CG        16.2300   44.1160   34.3440 C.ar  147  PHE147     -0.0203
    187  CD1       14.9990   44.7000   34.3280 C.ar  147  PHE147     -0.0042
    188  CD2       17.2480   44.8240   34.9830 C.ar  147  PHE147     -0.0042
    189  CE1       14.7850   45.9850   34.8690 C.ar  147  PHE147     -0.0003
    190  CE2       16.9230   46.0790   35.6320 C.ar  147  PHE147     -0.0003
    191  CZ        15.7150   46.6590   35.4980 C.ar  147  PHE147     -0.0000
    192  N         16.7890   43.2620   40.0560 N.3   149  TRP149     -0.1241
    193  CA        16.6100   44.3970   40.9540 C.3   149  TRP149      0.1605
    194  C         16.6630   43.9280   42.4020 C.2   149  TRP149      0.2264
    195  O         16.3190   42.7540   42.6690 O.2   149  TRP149     -0.2867
    196  CB        15.3600   45.2380   40.7090 C.3   149  TRP149      0.0550
    197  CG        14.1780   44.4130   40.6080 C.ar  149  TRP149      0.0003
    198  CD1       13.3510   44.1090   41.6350 C.ar  149  TRP149      0.0946
    199  CD2       13.6880   43.7200   39.4490 C.ar  149  TRP149      0.0152
    200  NE1       12.3270   43.2560   41.1770 N.ar  149  TRP149     -0.2442
    201  CE2       12.4920   43.0400   39.8440 C.ar  149  TRP149      0.0810
    202  CE3       14.0280   43.6590   38.0860 C.ar  149  TRP149      0.0012
    203  CZ2       11.7890   42.2220   39.0020 C.ar  149  TRP149      0.0191
    204  CZ3       13.3280   42.7720   37.2700 C.ar  149  TRP149      0.0001
    205  CH2       12.1720   42.1280   37.7250 C.ar  149  TRP149      0.0015
@<TRIPOS>BOND
     1   112   110   ar
     2   112   113   ar
     3   110   109   ar
     4   179   178    2
     5   180   178   am
     6   113   115   ar
     7   113   111   ar
     8   109   108    1
     9   109   111   ar
    10   178   177    1
    11   105   108    1
    12   105   106    1
    13   105   104    1
    14   115   117   ar
    15   111   114   ar
    16   106   107    2
    17   173   174    1
    18   177   174    1
    19   117   116   ar
    20   174   175    1
    21   114   116   ar
    22   125   123    1
    23   175   176    2
    24    96    95    2
    25   102   101    1
    26   123   124    1
    27   123   122    1
    28    95    94    1
    29   103   101    1
    30   101   100    2
    31    97    94    1
    32    97    98    1
    33   122   119    1
    34   119   118    1
    35   119   120    1
    36   100    99    1
    37    94    93    1
    38    99    98    1
    39   120   121    2
    40   171   169    1
    41   168   167    2
    42   167   166    1
    43    89    88    2
    44   169   166    1
    45   169   170    1
    46    88    87    1
    47    92    90    1
    48   126   127    1
    49   166   165    1
    50    66    64   ar
    51    65    64   ar
    52   127   128    1
    53   127   130    1
    54    64    63    1
    55   170   172    2
    56   140   138    1
    57    87    86    1
    58    87    90    1
    59    90    91    1
    60   132   130    1
    61    63    62    1
    62   128   129    2
    63    62    59    1
    64   130   131    1
    65    59    58    1
    66    59    60    1
    67   138   139    1
    68   138   137    1
    69   133   134    1
    70    60    61    2
    71   134   137    1
    72   134   135    1
    73    55    57   ar
    74    55    53   ar
    75    57    56   ar
    76    50    49    2
    77    53    52   ar
    78   135   136    2
    79    74    72    1
    80    49    48    1
    81    72    71    1
    82    82    81    2
    83    71    68    1
    84    71    73    1
    85    56    54   ar
    86    68    67    1
    87    68    69    1
    88   163   162    1
    89   185   186    1
    90   185   182    1
    91   164   162    1
    92    52    54   ar
    93    52    51    1
    94   181   182    1
    95   160   161    2
    96   160   159    1
    97    81    80    1
    98   187   186   ar
    99   187   189   ar
   100   186   188   ar
   101    48    47    1
   102    48    51    1
   103   162   159    1
   104   182   183    1
   105    69    70    2
   106    85    83    1
   107   189   191   ar
   108   159   158    1
   109   188   190   ar
   110   191   190   ar
   111    79    80    1
   112    80    83    1
   113    42    41    2
   114    38    37    1
   115    83    84    1
   116   183   184    2
   117   141   142    1
   118    41    40    1
   119    37    35   ar
   120    37    36   ar
   121    35    33   ar
   122   204   205   ar
   123   204   202   ar
   124    46    45    1
   125   142   143    1
   126   142   145    1
   127   148   146    1
   128   205   203   ar
   129    43    40    1
   130    43    44    1
   131    40    39    1
   132   146   145    1
   133   146   147    1
   134    44    45    1
   135    36    34   ar
   136   202   199   ar
   137   143   144    2
   138    33    32   ar
   139    30    29    2
   140   203   201   ar
   141    34    32   ar
   142    32    31    1
   143   199   201   ar
   144   199   197   ar
   145    75    76    1
   146    76    77    1
   147    29    28    1
   148   201   200   ar
   149   192   193    1
   150   152   151    2
   151    77    78    2
   152   151   150    1
   153   197   196    1
   154   197   198   ar
   155   196   193    1
   156    31    28    1
   157    27    28    1
   158   193   194    1
   159   200   198   ar
   160   154   155    1
   161   154   153    1
   162   150   153    1
   163   150   149    1
   164   155   157   am
   165   155   156    2
   166     8    10   ar
   167     8     6   ar
   168   194   195    2
   169     5     6    1
   170     5     2    1
   171    10    11   ar
   172     6     7   ar
   173     4     3    2
   174    25    26   ar
   175    25    23   ar
   176    11    12    1
   177    11     9   ar
   178     3     2    1
   179     7     9   ar
   180    26    24   ar
   181     2     1    1
   182    23    20   ar
   183    16    15    2
   184    24    22   ar
   185    20    22   ar
   186    20    18   ar
   187    15    14    1
   188    22    21   ar
   189    17    18    1
   190    17    14    1
   191    18    19   ar
   192    14    13    1
   193    21    19   ar
