@<TRIPOS>MOLECULE
tmp/3gp6A02.pdb
 93 92 0 0 0
SMALL
GASTEIGER

@<TRIPOS>ATOM
      1  N         -5.2340   40.9060   41.5020 N.3    14  ILE14      -0.1231
      2  CA        -4.8410   42.3000   41.2620 C.3    14  ILE14       0.1692
      3  C         -5.6180   43.2650   42.1510 C.2    14  ILE14       0.2591
      4  O         -4.9560   44.1910   42.8160 O.2    14  ILE14      -0.2718
      5  CB        -4.9490   42.6870   39.8110 C.3    14  ILE14       0.0266
      6  CG1       -4.0900   41.7590   38.9290 C.3    14  ILE14       0.0019
      7  CG2       -4.7520   44.1490   39.5660 C.3    14  ILE14       0.0020
      8  CD1       -4.3310   41.9310   37.4460 C.3    14  ILE14       0.0001
      9  N         -6.9800   43.1230   42.1440 N.am   15  ALA15      -0.1980
     10  CA        -7.7810   44.0680   42.9270 C.3    15  ALA15       0.1597
     11  C         -7.4790   43.9850   44.4270 C.2    15  ALA15       0.2287
     12  O         -7.4390   44.9740   45.0820 O.2    15  ALA15      -0.2864
     13  CB        -9.2740   43.8140   42.6960 C.3    15  ALA15       0.0319
     14  N         -4.3550   46.0070   45.2820 N.3    18  TRP18      -0.1227
     15  CA        -4.5060   47.4280   45.2360 C.3    18  TRP18       0.1737
     16  C         -5.3110   47.9040   46.4640 C.2    18  TRP18       0.2595
     17  O         -5.0060   48.9450   47.0660 O.2    18  TRP18      -0.2718
     18  CB        -5.2640   47.8410   43.9300 C.3    18  TRP18       0.0564
     19  CG        -5.4580   49.2730   43.7930 C.ar   18  TRP18       0.0003
     20  CD1       -6.6950   49.9240   43.8470 C.ar   18  TRP18       0.0946
     21  CD2       -4.4920   50.3030   43.5420 C.ar   18  TRP18       0.0152
     22  NE1       -6.5170   51.2580   43.7090 N.ar   18  TRP18      -0.2442
     23  CE2       -5.2020   51.5330   43.4820 C.ar   18  TRP18       0.0810
     24  CE3       -3.1190   50.3180   43.3430 C.ar   18  TRP18       0.0012
     25  CZ2       -4.5740   52.7420   43.2530 C.ar   18  TRP18       0.0191
     26  CZ3       -2.5120   51.5150   43.1210 C.ar   18  TRP18       0.0001
     27  CH2       -3.2210   52.7020   43.0840 C.ar   18  TRP18       0.0015
     28  N         -6.3240   47.1180   46.7960 N.am   19  GLN19      -0.1979
     29  CA        -7.2800   47.5220   47.8170 C.3    19  GLN19       0.1601
     30  C         -6.8890   47.1530   49.2280 C.2    19  GLN19       0.2287
     31  O         -7.2750   47.8530   50.1750 O.2    19  GLN19      -0.2864
     32  CB        -8.6580   46.9210   47.5050 C.3    19  GLN19       0.0394
     33  CG        -9.2150   47.4200   46.2210 C.3    19  GLN19       0.0908
     34  CD       -10.6400   46.9010   45.9750 C.2    19  GLN19       0.2608
     35  OE1      -11.3980   46.7020   46.9190 O.2    19  GLN19      -0.2717
     36  NE2      -10.9810   46.6570   44.7260 N.am   19  GLN19      -0.0878
     37  N          8.6230   51.8940   42.8740 N.3    48  PHE48      -0.1227
     38  CA         7.9060   51.7110   44.1190 C.3    48  PHE48       0.1736
     39  C          6.7180   50.8260   43.8250 C.2    48  PHE48       0.2596
     40  O          6.2490   50.7810   42.6820 O.2    48  PHE48      -0.2718
     41  CB         7.4460   53.1040   44.6420 C.3    48  PHE48       0.0547
     42  CG         6.3650   53.0890   45.6580 C.ar   48  PHE48      -0.0202
     43  CD1        6.6630   53.2230   47.0000 C.ar   48  PHE48      -0.0042
     44  CD2        5.0100   53.0770   45.2670 C.ar   48  PHE48      -0.0042
     45  CE1        5.6650   53.2630   47.9560 C.ar   48  PHE48      -0.0003
     46  CE2        4.0100   53.1110   46.2240 C.ar   48  PHE48      -0.0003
     47  CZ         4.3460   53.2170   47.5650 C.ar   48  PHE48      -0.0000
     48  N          6.3070   50.1310   44.8620 N.am   49  GLY49      -0.1942
     49  CA         5.0990   49.2810   44.7040 C.3    49  GLY49       0.2014
     50  C          4.4180   48.9490   46.0070 C.2    49  GLY49       0.2638
     51  O          4.8350   49.3130   47.0810 O.2    49  GLY49      -0.2714
     52  N          3.2590   48.2630   45.8170 N.am   50  LEU50      -0.1977
     53  CA         2.4530   47.6670   46.8550 C.3    50  LEU50       0.1596
     54  C          2.6160   46.1680   46.7820 C.2    50  LEU50       0.2287
     55  O          2.7350   45.6380   45.6550 O.2    50  LEU50      -0.2864
     56  CB         0.9630   48.0210   46.6870 C.3    50  LEU50       0.0297
     57  CG         0.6020   49.4720   46.6910 C.3    50  LEU50       0.0022
     58  CD1       -0.8580   49.5930   46.2840 C.3    50  LEU50       0.0001
     59  CD2        0.7970   50.0000   48.0940 C.3    50  LEU50       0.0001
     60  N          2.0880   45.1230   42.9110 N.3    62  LEU62      -0.1231
     61  CA         1.7600   46.1220   41.8920 C.3    62  LEU62       0.1693
     62  C          2.8790   47.1600   41.9650 C.2    62  LEU62       0.2592
     63  O          3.2300   47.6480   43.0400 O.2    62  LEU62      -0.2718
     64  CB         0.4340   46.8170   42.1870 C.3    62  LEU62       0.0284
     65  CG        -0.7240   45.8540   41.9590 C.3    62  LEU62       0.0019
     66  CD1       -1.9760   46.4990   42.5480 C.3    62  LEU62       0.0001
     67  CD2       -1.0000   45.6320   40.4820 C.3    62  LEU62       0.0001
     68  N          3.4160   47.4690   40.8220 N.am   63  TYR63      -0.1962
     69  CA         4.6280   48.3000   40.8250 C.3    63  TYR63       0.1771
     70  C          4.6300   49.3260   39.6930 C.2    63  TYR63       0.2619
     71  O          4.0400   49.1190   38.6430 O.2    63  TYR63      -0.2715
     72  CB         5.9260   47.3990   40.7220 C.3    63  TYR63       0.0574
     73  CG         6.0140   46.6350   39.4160 C.ar   63  TYR63      -0.0198
     74  CD1        6.5280   47.1990   38.2590 C.ar   63  TYR63      -0.0009
     75  CD2        5.3130   45.4400   39.2580 C.ar   63  TYR63      -0.0009
     76  CE1        6.4630   46.5600   37.0470 C.ar   63  TYR63       0.0417
     77  CE2        5.3350   44.7640   38.0500 C.ar   63  TYR63       0.0417
     78  CZ         5.9000   45.2930   36.9330 C.ar   63  TYR63       0.1957
     79  OH         5.8860   44.7450   35.7000 O.3    63  TYR63      -0.2866
     80  N          5.4830   50.3410   39.8940 N.am   64  ALA64      -0.1977
     81  CA         5.8120   51.3370   38.8590 C.3    64  ALA64       0.1597
     82  C          7.2880   51.6500   39.0110 C.2    64  ALA64       0.2287
     83  O          7.7170   51.9670   40.0960 O.2    64  ALA64      -0.2864
     84  CB         4.9860   52.6470   39.0060 C.3    64  ALA64       0.0319
     85  N          4.8620   49.7340   34.3850 N.3    78  ALA78      -0.1231
     86  CA         3.9890   49.4580   35.5510 C.3    78  ALA78       0.1694
     87  C          3.2960   48.1260   35.3240 C.2    78  ALA78       0.2592
     88  O          3.0560   47.7410   34.1880 O.2    78  ALA78      -0.2718
     89  CB         2.9930   50.5610   35.7470 C.3    78  ALA78       0.0304
     90  N          3.0210   47.4100   36.4040 N.am   79  GLY79      -0.1957
     91  CA         2.3420   46.1570   36.2330 C.3    79  GLY79       0.1869
     92  C          2.0450   45.4680   37.5220 C.2    79  GLY79       0.2309
     93  O          2.1200   46.0330   38.6320 O.2    79  GLY79      -0.2863
@<TRIPOS>BOND
     1    88    87    2
     2    85    86    1
     3    87    86    1
     4    87    90   am
     5    86    89    1
     6    79    78    1
     7    91    90    1
     8    91    92    1
     9    78    76   ar
    10    78    77   ar
    11    76    74   ar
    12     8     6    1
    13    92    93    2
    14    77    75   ar
    15    74    73   ar
    16    71    70    2
    17    81    84    1
    18    81    82    1
    19    81    80    1
    20     6     5    1
    21    82    83    2
    22    75    73   ar
    23    73    72    1
    24     7     5    1
    25    70    80   am
    26    70    69    1
    27     5     2    1
    28    67    65    1
    29    72    69    1
    30    68    69    1
    31    68    62   am
    32     2     1    1
    33     2     3    1
    34    61    62    1
    35    61    64    1
    36    61    60    1
    37    65    64    1
    38    65    66    1
    39    62    63    2
    40     9     3   am
    41     9    10    1
    42     3     4    2
    43    40    39    2
    44    13    10    1
    45    37    38    1
    46    10    11    1
    47    27    26   ar
    48    27    25   ar
    49    26    24   ar
    50    25    23   ar
    51    24    21   ar
    52    23    21   ar
    53    23    22   ar
    54    21    19   ar
    55    22    20   ar
    56    19    20   ar
    57    19    18    1
    58    39    38    1
    59    39    48   am
    60    18    15    1
    61    38    41    1
    62    11    12    2
    63    41    42    1
    64    49    48    1
    65    49    50    1
    66    36    34   am
    67    15    14    1
    68    15    16    1
    69    44    42   ar
    70    44    46   ar
    71    55    54    2
    72    42    43   ar
    73    52    50   am
    74    52    53    1
    75    34    33    1
    76    34    35    2
    77    50    51    2
    78    33    32    1
    79    46    47   ar
    80    58    57    1
    81    16    28   am
    82    16    17    2
    83    56    57    1
    84    56    53    1
    85    57    59    1
    86    54    53    1
    87    28    29    1
    88    43    45   ar
    89    32    29    1
    90    47    45   ar
    91    29    30    1
    92    30    31    2
