@<TRIPOS>MOLECULE
tmp/3gp6A04.pdb
 79 79 0 0 0
SMALL
GASTEIGER

@<TRIPOS>ATOM
      1  N         12.4270   32.7240   57.1830 N.3    93  ASN93      -0.1225
      2  CA        12.6070   34.0530   56.5310 C.3    93  ASN93       0.1785
      3  C         13.1950   33.9080   55.1280 C.2    93  ASN93       0.2597
      4  O         13.0540   34.7820   54.2920 O.2    93  ASN93      -0.2718
      5  CB        13.4710   35.0060   57.3710 C.3    93  ASN93       0.1169
      6  CG        12.7250   35.5070   58.5510 C.2    93  ASN93       0.2627
      7  OD1       11.6190   36.0030   58.4180 O.2    93  ASN93      -0.2716
      8  ND2       13.2870   35.3150   59.7320 N.am   93  ASN93      -0.0877
      9  N         13.8860   32.8110   54.8290 N.am   94  PHE94      -0.1976
     10  CA        14.3910   32.5880   53.4940 C.3    94  PHE94       0.1639
     11  C         13.2400   32.2320   52.5860 C.2    94  PHE94       0.2290
     12  O         12.4950   31.2770   52.8810 O.2    94  PHE94      -0.2864
     13  CB        15.4150   31.4580   53.4060 C.3    94  PHE94       0.0560
     14  CG        16.7970   31.8180   53.9630 C.ar   94  PHE94      -0.0200
     15  CD1       17.0970   31.4810   55.2900 C.ar   94  PHE94      -0.0042
     16  CD2       17.7350   32.4320   53.1760 C.ar   94  PHE94      -0.0042
     17  CE1       18.3310   31.7170   55.8310 C.ar   94  PHE94      -0.0003
     18  CE2       19.0160   32.7020   53.6880 C.ar   94  PHE94      -0.0003
     19  CZ        19.3100   32.3880   55.0490 C.ar   94  PHE94      -0.0000
     20  N         14.9500   35.3750   45.1040 N.3   124  VAL124     -0.1231
     21  CA        15.4660   34.8250   46.3290 C.3   124  VAL124      0.1692
     22  C         15.6250   35.9310   47.3340 C.2   124  VAL124      0.2593
     23  O         16.0960   37.0210   46.9870 O.2   124  VAL124     -0.2718
     24  CB        16.7710   34.0610   46.0840 C.3   124  VAL124      0.0266
     25  CG1       17.8500   34.9530   45.4500 C.3   124  VAL124      0.0020
     26  CG2       17.2910   33.4290   47.3990 C.3   124  VAL124      0.0020
     27  N         15.2540   35.6980   48.5660 N.am  125  GLY125     -0.1942
     28  CA        15.3210   36.7570   49.5720 C.3   125  GLY125      0.2014
     29  C         15.3440   36.2290   51.0040 C.2   125  GLY125      0.2639
     30  O         15.1740   35.0230   51.2640 O.2   125  GLY125     -0.2714
     31  N         15.6000   37.1450   51.9390 N.am  126  TYR126     -0.1959
     32  CA        15.5330   36.9210   53.3610 C.3   126  TYR126      0.1771
     33  C         14.6460   37.9870   53.9310 C.2   126  TYR126      0.2620
     34  O         14.9710   39.1220   53.8920 O.2   126  TYR126     -0.2715
     35  CB        16.9420   36.9410   53.9940 C.3   126  TYR126      0.0574
     36  CG        16.8840   36.5550   55.4580 C.ar  126  TYR126     -0.0198
     37  CD1       17.0560   35.2280   55.8410 C.ar  126  TYR126     -0.0009
     38  CD2       16.5040   37.4730   56.4260 C.ar  126  TYR126     -0.0009
     39  CE1       16.9990   34.8610   57.1610 C.ar  126  TYR126      0.0417
     40  CE2       16.3570   37.0820   57.8040 C.ar  126  TYR126      0.0417
     41  CZ        16.6470   35.7610   58.1430 C.ar  126  TYR126      0.1957
     42  OH        16.5190   35.3440   59.4630 O.3   126  TYR126     -0.2866
     43  N         13.4640   37.6370   54.4280 N.am  127  GLY127     -0.1940
     44  CA        12.6320   38.6280   55.0240 C.3   127  GLY127      0.1998
     45  C         12.2690   39.7070   54.0070 C.2   127  GLY127      0.2481
     46  O         11.8960   39.4100   52.8540 O.2   127  GLY127     -0.2729
     47  N         12.5040   40.9600   54.3750 N.am  128  PRO128     -0.2715
     48  CA        12.1590   42.1070   53.5410 C.3   128  PRO128      0.1536
     49  C         13.1440   42.4700   52.4430 C.2   128  PRO128      0.2598
     50  O         12.9480   43.4390   51.7180 O.2   128  PRO128     -0.2715
     51  CB        12.0220   43.2270   54.5380 C.3   128  PRO128      0.0310
     52  CG        13.0530   42.9390   55.5270 C.3   128  PRO128      0.0237
     53  CD        13.1100   41.3910   55.6340 C.3   128  PRO128      0.0939
     54  N         14.2020   41.6700   52.3210 N.am  129  VAL129     -0.1978
     55  CA        15.2050   41.9520   51.3080 C.3   129  VAL129      0.1596
     56  C         15.2060   40.8510   50.2750 C.2   129  VAL129      0.2287
     57  O         15.6020   39.6850   50.5790 O.2   129  VAL129     -0.2864
     58  CB        16.6250   42.0870   51.9230 C.3   129  VAL129      0.0276
     59  CG1       17.6630   42.4020   50.8650 C.3   129  VAL129      0.0022
     60  CG2       16.5270   43.1540   53.0170 C.3   129  VAL129      0.0022
     61  N         16.2950   39.7020   46.0910 N.3   131  PHE131     -0.1241
     62  CA        16.8410   39.8190   44.7500 C.3   131  PHE131      0.1605
     63  C         15.8790   39.1210   43.7790 C.2   131  PHE131      0.2264
     64  O         15.6250   37.9120   43.8820 O.2   131  PHE131     -0.2867
     65  CB        18.2140   39.1350   44.7730 C.3   131  PHE131      0.0534
     66  CG        18.9620   39.1620   43.4810 C.ar  131  PHE131     -0.0203
     67  CD1       19.6980   40.3130   43.1390 C.ar  131  PHE131     -0.0042
     68  CD2       18.8890   38.1480   42.5900 C.ar  131  PHE131     -0.0042
     69  CE1       20.4510   40.3730   41.9390 C.ar  131  PHE131     -0.0003
     70  CE2       19.5800   38.2060   41.3580 C.ar  131  PHE131     -0.0003
     71  CZ        20.3450   39.3620   41.0430 C.ar  131  PHE131     -0.0000
     72  N         17.0260   44.7690   43.3350 N.3   150  MET150     -0.1245
     73  CA        16.7570   44.5400   44.7100 C.3   150  MET150      0.1570
     74  C         15.3500   45.0940   44.9710 C.2   150  MET150      0.2261
     75  O         14.9630   46.0760   44.3970 O.2   150  MET150     -0.2867
     76  CB        17.7310   45.2370   45.6360 C.3   150  MET150      0.0387
     77  CG        19.1000   44.7030   45.4940 C.3   150  MET150      0.0595
     78  SD        19.3240   42.9550   45.8440 S.3   150  MET150     -0.1393
     79  CE        18.7670   42.9270   47.5270 C.3   150  MET150      0.0692
@<TRIPOS>BOND
     1    71    70   ar
     2    71    69   ar
     3    70    68   ar
     4    69    67   ar
     5    68    66   ar
     6    67    66   ar
     7    72    73    1
     8    66    65    1
     9    63    64    2
    10    63    62    1
    11    75    74    2
    12    73    74    1
    13    73    76    1
    14    62    65    1
    15    62    61    1
    16    20    21    1
    17    25    24    1
    18    77    76    1
    19    77    78    1
    20    78    79    1
    21    24    21    1
    22    24    26    1
    23    21    22    1
    24    23    22    2
    25    22    27   am
    26    27    28    1
    27    28    29    1
    28    56    57    2
    29    56    55    1
    30    59    58    1
    31    29    30    2
    32    29    31   am
    33    55    58    1
    34    55    54    1
    35    50    49    2
    36    58    60    1
    37    31    32    1
    38    54    49   am
    39    49    48    1
    40    11    12    2
    41    11    10    1
    42    46    45    2
    43    16    18   ar
    44    16    14   ar
    45    32    33    1
    46    32    35    1
    47    13    10    1
    48    13    14    1
    49    10     9    1
    50    48    47    1
    51    48    51    1
    52    18    19   ar
    53    34    33    2
    54    33    43   am
    55    14    15   ar
    56    35    36    1
    57    45    47   am
    58    45    44    1
    59     4     3    2
    60    47    53    1
    61    43    44    1
    62    51    52    1
    63     9     3   am
    64    19    17   ar
    65     3     2    1
    66    15    17   ar
    67    36    37   ar
    68    36    38   ar
    69    52    53    1
    70    37    39   ar
    71    38    40   ar
    72     2     1    1
    73     2     5    1
    74    39    41   ar
    75     5     6    1
    76    40    41   ar
    77    41    42    1
    78     7     6    2
    79     6     8   am
