@<TRIPOS>MOLECULE
tmp/3gp6A03.pdb
 89 88 0 0 0
SMALL
GASTEIGER

@<TRIPOS>ATOM
      1  N          8.3930   29.3690   47.9590 N.3    86  TRP86      -0.1227
      2  CA         8.7590   28.3070   48.8610 C.3    86  TRP86       0.1737
      3  C          9.6560   28.8620   49.9830 C.2    86  TRP86       0.2595
      4  O         10.4890   29.7800   49.7720 O.2    86  TRP86      -0.2718
      5  CB         9.5460   27.2500   48.1220 C.3    86  TRP86       0.0564
      6  CG         8.8260   26.5900   47.0240 C.ar   86  TRP86       0.0003
      7  CD1        8.1430   25.4040   47.1130 C.ar   86  TRP86       0.0946
      8  CD2        8.7310   27.0020   45.6610 C.ar   86  TRP86       0.0152
      9  NE1        7.5890   25.0870   45.9100 N.ar   86  TRP86      -0.2442
     10  CE2        7.9060   26.0700   45.0010 C.ar   86  TRP86       0.0810
     11  CE3        9.1780   28.1150   44.9450 C.ar   86  TRP86       0.0012
     12  CZ2        7.5930   26.1800   43.6610 C.ar   86  TRP86       0.0191
     13  CZ3        8.8710   28.2170   43.6260 C.ar   86  TRP86       0.0001
     14  CH2        8.0700   27.2580   42.9880 C.ar   86  TRP86       0.0015
     15  N          9.4660   28.3160   51.1940 N.am   87  ARG87      -0.1966
     16  CA        10.3330   28.6060   52.3270 C.3    87  ARG87       0.1714
     17  C         10.8670   27.3040   52.8860 C.2    87  ARG87       0.2458
     18  O         10.3140   26.7470   53.8310 O.2    87  ARG87      -0.2730
     19  CB         9.5870   29.4220   53.3440 C.3    87  ARG87       0.0347
     20  CG         9.2030   30.7840   52.8330 C.3    87  ARG87       0.0492
     21  CD         8.1210   31.2990   53.6440 C.3    87  ARG87       0.2205
     22  NE         7.4660   32.5170   53.1780 N.pl3  87  ARG87      -0.0865
     23  CZ         6.4950   32.5770   52.2580 C.cat  87  ARG87       0.5346
     24  NH1        6.0830   31.4960   51.6240 N.pl3  87  ARG87       0.1354
     25  NH2        5.9320   33.7390   51.9760 N.pl3  87  ARG87       0.1354
     26  N         11.9730   26.8090   52.2700 N.am   88  PRO88      -0.2727
     27  CA        12.4600   25.4450   52.4990 C.3    88  PRO88       0.1402
     28  C         13.3980   25.2100   53.6740 C.2    88  PRO88       0.2269
     29  O         13.6580   24.0600   54.0210 O.2    88  PRO88      -0.2865
     30  CB        13.1670   25.1440   51.2100 C.3    88  PRO88       0.0296
     31  CG        13.7080   26.4550   50.8020 C.3    88  PRO88       0.0237
     32  CD        12.7180   27.4490   51.1720 C.3    88  PRO88       0.0939
     33  N         12.0920   31.6790   48.2240 N.3    96  LEU96      -0.1231
     34  CA        12.4960   31.4530   46.8380 C.3    96  LEU96       0.1693
     35  C         11.1840   31.5390   46.0560 C.2    96  LEU96       0.2593
     36  O         10.1490   31.0980   46.5690 O.2    96  LEU96      -0.2718
     37  CB        13.1370   30.0740   46.6230 C.3    96  LEU96       0.0284
     38  CG        14.4090   29.8310   47.3840 C.3    96  LEU96       0.0019
     39  CD1       14.6980   28.3140   47.2830 C.3    96  LEU96       0.0001
     40  CD2       15.5030   30.4490   46.7860 C.3    96  LEU96       0.0001
     41  N         11.1940   32.1400   44.8660 N.am   97  GLY97      -0.1942
     42  CA         9.9440   32.2180   44.1000 C.3    97  GLY97       0.2014
     43  C         10.1170   32.1760   42.6000 C.2    97  GLY97       0.2638
     44  O         11.2290   32.4460   42.0700 O.2    97  GLY97      -0.2714
     45  N          8.9890   31.7950   41.9560 N.am   98  LEU98      -0.1977
     46  CA         8.9290   31.7140   40.5530 C.3    98  LEU98       0.1596
     47  C          7.5050   32.0950   40.1120 C.2    98  LEU98       0.2287
     48  O          6.5260   31.6090   40.6940 O.2    98  LEU98      -0.2864
     49  CB         9.3970   30.2870   40.2140 C.3    98  LEU98       0.0297
     50  CG         9.4070   29.9760   38.7450 C.3    98  LEU98       0.0022
     51  CD1       10.4430   30.7750   37.9960 C.3    98  LEU98       0.0001
     52  CD2        9.5450   28.4430   38.5670 C.3    98  LEU98       0.0001
     53  N         11.5970   35.4370   38.8910 N.3   122  ALA122     -0.1231
     54  CA        12.1780   34.5610   39.8840 C.3   122  ALA122      0.1694
     55  C         12.7670   35.4180   40.9800 C.2   122  ALA122      0.2593
     56  O         13.1160   36.6040   40.7290 O.2   122  ALA122     -0.2718
     57  CB        13.2450   33.6050   39.3160 C.3   122  ALA122      0.0304
     58  N         12.8430   34.9050   42.1840 N.am  123  SER123     -0.1938
     59  CA        13.4230   35.6410   43.2860 C.3   123  SER123      0.2055
     60  C         13.9920   34.7730   44.3780 C.2   123  SER123      0.2642
     61  O         13.6010   33.6170   44.5340 O.2   123  SER123     -0.2714
     62  CB        12.4530   36.6500   43.8930 C.3   123  SER123      0.2130
     63  OG        11.4800   36.0790   44.6850 O.3   123  SER123     -0.2179
     64  N         14.9500   35.3750   45.1040 N.am  124  VAL124     -0.1977
     65  CA        15.4660   34.8250   46.3290 C.3   124  VAL124      0.1596
     66  C         15.6250   35.9310   47.3340 C.2   124  VAL124      0.2287
     67  O         16.0960   37.0210   46.9870 O.2   124  VAL124     -0.2864
     68  CB        16.7710   34.0610   46.0840 C.3   124  VAL124      0.0276
     69  CG1       17.8500   34.9530   45.4500 C.3   124  VAL124      0.0022
     70  CG2       17.2910   33.4290   47.3990 C.3   124  VAL124      0.0022
     71  N         16.2950   39.7020   46.0910 N.3   131  PHE131     -0.1241
     72  CA        16.8410   39.8190   44.7500 C.3   131  PHE131      0.1605
     73  C         15.8790   39.1210   43.7790 C.2   131  PHE131      0.2264
     74  O         15.6250   37.9120   43.8820 O.2   131  PHE131     -0.2867
     75  CB        18.2140   39.1350   44.7730 C.3   131  PHE131      0.0534
     76  CG        18.9620   39.1620   43.4810 C.ar  131  PHE131     -0.0203
     77  CD1       19.6980   40.3130   43.1390 C.ar  131  PHE131     -0.0042
     78  CD2       18.8890   38.1480   42.5900 C.ar  131  PHE131     -0.0042
     79  CE1       20.4510   40.3730   41.9390 C.ar  131  PHE131     -0.0003
     80  CE2       19.5800   38.2060   41.3580 C.ar  131  PHE131     -0.0003
     81  CZ        20.3450   39.3620   41.0430 C.ar  131  PHE131     -0.0000
     82  N         14.1880   39.0080   39.6410 N.3   133  MET133     -0.1245
     83  CA        14.6010   39.0930   38.2620 C.3   133  MET133      0.1570
     84  C         13.5710   38.6650   37.2650 C.2   133  MET133      0.2261
     85  O         12.6690   37.9180   37.6040 O.2   133  MET133     -0.2867
     86  CB        15.8900   38.2830   38.0660 C.3   133  MET133      0.0387
     87  CG        15.7170   36.8250   38.0500 C.3   133  MET133      0.0595
     88  SD        17.0990   35.9230   38.6540 S.3   133  MET133     -0.1393
     89  CE        16.8480   36.3080   40.4140 C.3   133  MET133      0.0692
@<TRIPOS>BOND
     1    84    85    2
     2    84    83    1
     3    51    50    1
     4    87    86    1
     5    87    88    1
     6    86    83    1
     7    83    82    1
     8    52    50    1
     9    88    89    1
    10    50    49    1
    11    53    54    1
    12    57    54    1
    13    54    55    1
    14    47    46    1
    15    47    48    2
    16    49    46    1
    17    46    45    1
    18    56    55    2
    19    55    58   am
    20    81    80   ar
    21    81    79   ar
    22    80    78   ar
    23    79    77   ar
    24    45    43   am
    25    44    43    2
    26    58    59    1
    27    78    76   ar
    28    43    42    1
    29    14    13   ar
    30    14    12   ar
    31    77    76   ar
    32    59    62    1
    33    59    60    1
    34    76    75    1
    35    13    11   ar
    36    12    10   ar
    37    73    74    2
    38    73    72    1
    39    62    63    1
    40    42    41    1
    41    60    61    2
    42    60    64   am
    43    72    75    1
    44    72    71    1
    45    41    35   am
    46    11     8   ar
    47    10     8   ar
    48    10     9   ar
    49    64    65    1
    50    69    68    1
    51     8     6   ar
    52     9     7   ar
    53    35    36    2
    54    35    34    1
    55    68    65    1
    56    68    70    1
    57    65    66    1
    58    37    34    1
    59    37    38    1
    60    40    38    1
    61    34    33    1
    62    67    66    2
    63     6     7   ar
    64     6     5    1
    65    39    38    1
    66     1     2    1
    67     5     2    1
    68     2     3    1
    69     4     3    2
    70     3    15   am
    71    31    32    1
    72    31    30    1
    73    32    26    1
    74    15    16    1
    75    30    27    1
    76    24    23    1
    77    25    23    1
    78    23    22    2
    79    26    27    1
    80    26    17   am
    81    16    17    1
    82    16    19    1
    83    27    28    1
    84    20    19    1
    85    20    21    1
    86    17    18    2
    87    22    21    1
    88    28    29    2
