@<TRIPOS>MOLECULE
tmp/3gpbA01.pdb
 115 111 0 0 0
SMALL
GASTEIGER

@<TRIPOS>ATOM
      1  N         19.1500    2.2250   46.7930 N.3    58  TRP58      -0.1227
      2  CA        20.4710    2.7770   47.0730 C.3    58  TRP58       0.1737
      3  C         21.2700    1.8780   48.0080 C.2    58  TRP58       0.2595
      4  O         22.4450    1.5800   47.7540 O.2    58  TRP58      -0.2718
      5  CB        20.2230    4.1640   47.6480 C.3    58  TRP58       0.0564
      6  CG        21.4130    5.1160   47.7480 C.ar   58  TRP58       0.0003
      7  CD1       22.6270    4.8640   47.1690 C.ar   58  TRP58       0.0946
      8  CD2       21.3950    6.3040   48.4530 C.ar   58  TRP58       0.0152
      9  NE1       23.3730    5.8940   47.5060 N.ar   58  TRP58      -0.2442
     10  CE2       22.6800    6.7610   48.2730 C.ar   58  TRP58       0.0810
     11  CE3       20.4770    7.0300   49.1930 C.ar   58  TRP58       0.0012
     12  CZ2       23.0530    7.9550   48.8400 C.ar   58  TRP58       0.0191
     13  CZ3       20.8500    8.2210   49.7570 C.ar   58  TRP58       0.0001
     14  CH2       22.1340    8.6790   49.5810 C.ar   58  TRP58       0.0015
     15  N         20.6030    1.4130   49.0760 N.am   59  ILE59      -0.1980
     16  CA        21.1440    0.5040   50.0870 C.3    59  ILE59       0.1595
     17  C         21.4890   -0.8340   49.4460 C.2    59  ILE59       0.2287
     18  O         22.5440   -1.4150   49.7410 O.2    59  ILE59      -0.2864
     19  CB        20.0770    0.3290   51.2310 C.3    59  ILE59       0.0276
     20  CG1       20.3100    1.4000   52.2460 C.3    59  ILE59       0.0022
     21  CG2       20.1220   -1.0660   51.9090 C.3    59  ILE59       0.0022
     22  CD1       19.2960    1.1850   53.4030 C.3    59  ILE59       0.0001
     23  N         24.5120   -0.2600   46.8850 N.3    62  GLN62      -0.1231
     24  CA        25.7290   -0.2430   47.6790 C.3    62  GLN62       0.1698
     25  C         26.0980   -1.5750   48.3390 C.2    62  GLN62       0.2592
     26  O         27.2650   -1.9610   48.1820 O.2    62  GLN62      -0.2718
     27  CB        25.6370    0.8630   48.7450 C.3    62  GLN62       0.0381
     28  CG        25.5160    2.3000   48.1620 C.3    62  GLN62       0.0905
     29  CD        26.1650    2.5110   46.7810 C.2    62  GLN62       0.2608
     30  OE1       27.3350    2.2200   46.5100 O.2    62  GLN62      -0.2717
     31  NE2       25.4070    2.9950   45.8190 N.am   62  GLN62      -0.0878
     32  N         25.2490   -2.3540   49.0580 N.am   63  GLN63      -0.1979
     33  CA        25.6700   -3.6750   49.5810 C.3    63  GLN63       0.1601
     34  C         25.9740   -4.6420   48.4200 C.2    63  GLN63       0.2287
     35  O         26.9280   -5.4260   48.4720 O.2    63  GLN63      -0.2864
     36  CB        24.5790   -4.2860   50.5050 C.3    63  GLN63       0.0394
     37  CG        24.7560   -5.7490   51.0630 C.3    63  GLN63       0.0908
     38  CD        25.5520   -6.0560   52.3540 C.2    63  GLN63       0.2608
     39  OE1       26.4390   -6.9140   52.4070 O.2    63  GLN63      -0.2717
     40  NE2       25.2320   -5.4300   53.4910 N.am   63  GLN63      -0.0878
     41  N         31.2230    6.3800   40.9730 N.3   146  TYR146     -0.1241
     42  CA        30.9850    7.3570   42.0440 C.3   146  TYR146      0.1605
     43  C         31.4850    8.6670   41.5490 C.2   146  TYR146      0.2264
     44  O         32.6200    8.7420   41.0870 O.2   146  TYR146     -0.2867
     45  CB        31.7720    7.1370   43.3650 C.3   146  TYR146      0.0534
     46  CG        31.6570    5.7610   44.0010 C.ar  146  TYR146     -0.0201
     47  CD1       32.3120    4.7220   43.3980 C.ar  146  TYR146     -0.0009
     48  CD2       30.8550    5.5270   45.0790 C.ar  146  TYR146     -0.0009
     49  CE1       32.1740    3.4370   43.8330 C.ar  146  TYR146      0.0417
     50  CE2       30.7050    4.2380   45.5200 C.ar  146  TYR146      0.0417
     51  CZ        31.3510    3.1970   44.8920 C.ar  146  TYR146      0.1957
     52  OH        31.1510    1.8770   45.2810 O.3   146  TYR146     -0.2866
     53  N         26.9540   12.6670   55.9670 N.3   184  ARG184     -0.1245
     54  CA        27.5910   11.5230   56.6000 C.3   184  ARG184      0.1563
     55  C         28.7390   11.9430   57.5260 C.2   184  ARG184      0.2260
     56  O         29.9050   11.6560   57.2390 O.2   184  ARG184     -0.2867
     57  CB        28.0790   10.5770   55.4980 C.3   184  ARG184      0.0307
     58  CG        27.0460    9.9770   54.5260 C.3   184  ARG184      0.0489
     59  CD        26.2060    8.8470   55.1600 C.3   184  ARG184      0.2205
     60  NE        25.4590    8.0240   54.1960 N.pl3 184  ARG184     -0.0865
     61  CZ        24.4370    7.2100   54.5350 C.cat 184  ARG184      0.5346
     62  NH1       24.0090    7.1610   55.7770 N.pl3 184  ARG184      0.1354
     63  NH2       23.8150    6.4270   53.6500 N.pl3 184  ARG184      0.1354
     64  N         31.8550    9.6180   58.5930 N.3   187  PHE187     -0.1241
     65  CA        32.9080    9.3920   57.5940 C.3   187  PHE187      0.1605
     66  C         33.8270   10.6030   57.2900 C.2   187  PHE187      0.2264
     67  O         34.4090   10.6970   56.2110 O.2   187  PHE187     -0.2867
     68  CB        32.2410    8.9540   56.3020 C.3   187  PHE187      0.0534
     69  CG        31.5580    7.6180   56.3390 C.ar  187  PHE187     -0.0203
     70  CD1       30.2700    7.5020   56.8440 C.ar  187  PHE187     -0.0042
     71  CD2       32.2470    6.5050   55.8860 C.ar  187  PHE187     -0.0042
     72  CE1       29.6530    6.2690   56.9120 C.ar  187  PHE187     -0.0003
     73  CE2       31.6300    5.2610   55.9480 C.ar  187  PHE187     -0.0003
     74  CZ        30.3370    5.1510   56.4650 C.ar  187  PHE187     -0.0000
     75  N         26.2860   12.5270   50.5290 N.3   218  ASP218     -0.1239
     76  CA        25.9770   11.6850   49.4020 C.3   218  ASP218      0.1674
     77  C         24.5620   11.9850   48.9180 C.2   218  ASP218      0.2266
     78  O         23.6140   12.1670   49.6840 O.2   218  ASP218     -0.2867
     79  CB        26.0350   10.1960   49.7830 C.3   218  ASP218      0.1410
     80  CG        27.2700    9.6200   50.4840 C.2   218  ASP218      0.3668
     81  OD1       28.2740   10.3050   50.5480 O.co2 218  ASP218     -0.2456
     82  OD2       27.2660    8.5070   51.0270 O.co2 218  ASP218     -0.2456
     83  N         29.2090   11.7310   45.9400 N.3   233  ARG233     -0.1245
     84  CA        29.7860   12.1450   47.2260 C.3   233  ARG233      0.1563
     85  C         30.4430   13.5290   47.1100 C.2   233  ARG233      0.2260
     86  O         31.5170   13.7350   46.5280 O.2   233  ARG233     -0.2867
     87  CB        30.8590   11.1420   47.7090 C.3   233  ARG233      0.0307
     88  CG        31.6660   11.4590   48.9820 C.3   233  ARG233      0.0489
     89  CD        31.0490   10.6250   50.0640 C.3   233  ARG233      0.2205
     90  NE        31.8730    9.5790   50.6780 N.pl3 233  ARG233     -0.0865
     91  CZ        31.3640    8.5630   51.3830 C.cat 233  ARG233      0.5346
     92  NH1       30.0450    8.4360   51.6300 N.pl3 233  ARG233      0.1354
     93  NH2       32.2610    7.6680   51.8090 N.pl3 233  ARG233      0.1354
     94  N         40.4930    3.2180   51.1700 N.3   300  ARG300     -0.1231
     95  CA        39.7100    2.5640   52.1920 C.3   300  ARG300      0.1694
     96  C         38.9410    1.4030   51.5950 C.2   300  ARG300      0.2591
     97  O         39.0950    0.2430   51.9640 O.2   300  ARG300     -0.2718
     98  CB        38.7750    3.6020   52.7870 C.3   300  ARG300      0.0321
     99  CG        38.0980    3.4360   54.1670 C.3   300  ARG300      0.0489
    100  CD        36.6090    3.1310   54.1640 C.3   300  ARG300      0.2205
    101  NE        35.8100    4.1800   53.6010 N.pl3 300  ARG300     -0.0865
    102  CZ        34.5270    4.0130   53.2620 C.cat 300  ARG300      0.5346
    103  NH1       33.8550    2.8710   53.3690 N.pl3 300  ARG300      0.1354
    104  NH2       33.8960    5.0630   52.7740 N.pl3 300  ARG300      0.1354
    105  N         38.1290    1.6640   50.6020 N.am  301  ARG301     -0.1980
    106  CA        37.2970    0.6830   49.9320 C.3   301  ARG301      0.1597
    107  C         38.1380    0.1990   48.7540 C.2   301  ARG301      0.2287
    108  O         38.0190    0.6060   47.5990 O.2   301  ARG301     -0.2864
    109  CB        36.0710    1.4830   49.5920 C.3   301  ARG301      0.0334
    110  CG        35.0840    1.0350   48.5590 C.3   301  ARG301      0.0492
    111  CD        33.9660    2.0640   48.5800 C.3   301  ARG301      0.2205
    112  NE        34.4720    3.3420   48.1140 N.pl3 301  ARG301     -0.0865
    113  CZ        33.8250    4.4560   48.4090 C.cat 301  ARG301      0.5346
    114  NH1       32.6970    4.4690   49.1460 N.pl3 301  ARG301      0.1354
    115  NH2       34.3960    5.5530   47.9460 N.pl3 301  ARG301      0.1354
@<TRIPOS>BOND
     1    41    42    1
     2    44    43    2
     3    43    42    1
     4    42    45    1
     5    45    46    1
     6    47    49   ar
     7    47    46   ar
     8    49    51   ar
     9    46    48   ar
    10    51    52    1
    11    51    50   ar
    12    48    50   ar
    13    31    29   am
    14    83    84    1
    15    30    29    2
    16    86    85    2
    17    29    28    1
    18     1     2    1
    19    23    24    1
    20     2     5    1
    21     2     3    1
    22    85    84    1
    23     7     9   ar
    24     7     6   ar
    25    84    87    1
    26     9    10   ar
    27   108   107    2
    28     5     6    1
    29    24    25    1
    30    24    27    1
    31    87    88    1
    32     6     8   ar
    33     4     3    2
    34   115   113    1
    35     3    15   am
    36   112   113    2
    37   112   111    1
    38    28    27    1
    39    26    25    2
    40    10     8   ar
    41    10    12   ar
    42    25    32   am
    43   113   114    1
    44    34    35    2
    45    34    33    1
    46     8    11   ar
    47   110   111    1
    48   110   109    1
    49   107   106    1
    50    12    14   ar
    51    77    76    1
    52    77    78    2
    53    88    89    1
    54    32    33    1
    55    15    16    1
    56    11    13   ar
    57    76    79    1
    58    76    75    1
    59    17    18    2
    60    17    16    1
    61    33    36    1
    62    14    13   ar
    63   109   106    1
    64    79    80    1
    65   106   105    1
    66    89    90    1
    67    16    19    1
    68    80    81   ar
    69    80    82   ar
    70    36    37    1
    71   105    96   am
    72    90    91    2
    73    37    38    1
    74    94    95    1
    75    19    21    1
    76    19    20    1
    77    91    92    1
    78    91    93    1
    79    96    97    2
    80    96    95    1
    81    95    98    1
    82    20    22    1
    83    38    39    2
    84    38    40   am
    85   104   102    1
    86    98    99    1
    87   102   103    1
    88   102   101    2
    89   101   100    1
    90    63    61    1
    91   100    99    1
    92    60    61    2
    93    60    59    1
    94    58    59    1
    95    58    57    1
    96    61    62    1
    97    57    54    1
    98    71    73   ar
    99    71    69   ar
   100    73    74   ar
   101    53    54    1
   102    67    66    2
   103    68    69    1
   104    68    65    1
   105    69    70   ar
   106    74    72   ar
   107    54    55    1
   108    70    72   ar
   109    56    55    2
   110    66    65    1
   111    65    64    1
