@<TRIPOS>MOLECULE
tmp/3gpcB00.pdb
 176 169 0 0 0
SMALL
GASTEIGER

@<TRIPOS>ATOM
      1  N        -10.6120  -48.2730   39.6210 N.3   187  THR187     -0.1203
      2  CA        -9.2420  -48.7540   39.7750 C.3   187  THR187      0.1994
      3  C         -8.4510  -48.0780   38.6640 C.2   187  THR187      0.2618
      4  O         -8.9280  -47.1090   38.0490 O.2   187  THR187     -0.2717
      5  CB        -9.1950  -50.2720   39.5530 C.3   187  THR187      0.1784
      6  OG1       -9.6180  -50.5610   38.2070 O.3   187  THR187     -0.2211
      7  CG2      -10.1120  -50.9790   40.5540 C.3   187  THR187      0.0376
      8  N         -7.2490  -48.5970   38.3950 N.am  188  SER188     -0.1951
      9  CA        -6.9810  -49.0090   36.9910 C.3   188  SER188      0.1924
     10  C         -6.8440  -50.5660   36.7970 C.2   188  SER188      0.2314
     11  O         -5.7850  -51.2100   36.9790 O.2   188  SER188     -0.2863
     12  CB        -5.8480  -48.2330   36.3580 C.3   188  SER188      0.2116
     13  OG        -5.9500  -48.4060   34.9690 O.3   188  SER188     -0.2180
     14  N         -7.9810  -40.4630   45.5060 N.3   228  TRP228     -0.1227
     15  CA        -7.4230  -41.7630   45.8150 C.3   228  TRP228      0.1737
     16  C         -8.0640  -42.3260   47.0490 C.2   228  TRP228      0.2595
     17  O         -8.3560  -41.6030   47.9990 O.2   228  TRP228     -0.2718
     18  CB        -5.9180  -41.6560   46.0980 C.3   228  TRP228      0.0564
     19  CG        -5.1530  -41.1320   44.9570 C.ar  228  TRP228      0.0003
     20  CD1       -5.5400  -41.1070   43.6320 C.ar  228  TRP228      0.0946
     21  CD2       -3.8380  -40.5550   45.0020 C.ar  228  TRP228      0.0152
     22  NE1       -4.5500  -40.5420   42.8690 N.ar  228  TRP228     -0.2442
     23  CE2       -3.4920  -40.2020   43.6770 C.ar  228  TRP228      0.0810
     24  CE3       -2.9210  -40.2930   46.0350 C.ar  228  TRP228      0.0012
     25  CZ2       -2.2640  -39.5850   43.3600 C.ar  228  TRP228      0.0191
     26  CZ3       -1.7110  -39.6660   45.7180 C.ar  228  TRP228      0.0001
     27  CH2       -1.3920  -39.3380   44.3970 C.ar  228  TRP228      0.0015
     28  N         -8.2410  -43.6400   47.0810 N.am  229  ILE229     -0.1980
     29  CA        -8.8450  -44.2260   48.2700 C.3   229  ILE229      0.1595
     30  C         -8.0210  -43.9020   49.5380 C.2   229  ILE229      0.2287
     31  O         -8.5520  -43.8280   50.6460 O.2   229  ILE229     -0.2864
     32  CB        -9.0680  -45.7270   48.1120 C.3   229  ILE229      0.0276
     33  CG1      -10.1480  -46.1760   49.1150 C.3   229  ILE229      0.0022
     34  CG2       -7.7880  -46.4490   48.3110 C.3   229  ILE229      0.0022
     35  CD1      -10.7720  -47.6200   48.8330 C.3   229  ILE229      0.0001
     36  N          2.9060  -40.9200   49.8890 N.3   274  ALA274     -0.1245
     37  CA         3.5730  -41.8680   49.0260 C.3   274  ALA274      0.1562
     38  C          5.0630  -41.7360   49.2430 C.2   274  ALA274      0.2260
     39  O          5.5840  -40.6660   49.6790 O.2   274  ALA274     -0.2867
     40  CB         3.1730  -41.6530   47.4830 C.3   274  ALA274      0.0290
     41  N          2.3970  -45.3930   51.9080 N.3   300  VAL300     -0.1231
     42  CA         1.7460  -46.4540   51.1620 C.3   300  VAL300      0.1692
     43  C          1.9390  -46.1710   49.7010 C.2   300  VAL300      0.2593
     44  O          2.1970  -45.0580   49.3380 O.2   300  VAL300     -0.2718
     45  CB         0.2600  -46.5750   51.4760 C.3   300  VAL300      0.0266
     46  CG1       -0.5410  -45.3600   50.9840 C.3   300  VAL300      0.0020
     47  CG2       -0.3320  -47.9150   50.9390 C.3   300  VAL300      0.0020
     48  N          1.7720  -47.1780   48.8720 N.am  301  GLY301     -0.1942
     49  CA         1.4530  -46.9440   47.4750 C.3   301  GLY301      0.2014
     50  C          2.4990  -47.3300   46.4800 C.2   301  GLY301      0.2639
     51  O          2.2250  -47.3560   45.2830 O.2   301  GLY301     -0.2714
     52  N          3.6680  -47.6820   46.9640 N.am  302  GLU302     -0.1963
     53  CA         4.7970  -48.1300   46.1350 C.3   302  GLU302      0.1733
     54  C          5.7780  -48.5980   47.1840 C.2   302  GLU302      0.2617
     55  O          5.6220  -48.2210   48.3360 O.2   302  GLU302     -0.2715
     56  CB         5.2950  -46.9640   45.2520 C.3   302  GLU302      0.0429
     57  CG         6.7320  -46.5940   45.3860 C.3   302  GLU302      0.1163
     58  CD         7.2120  -45.5930   44.3390 C.2   302  GLU302      0.3649
     59  OE1        7.5270  -44.4340   44.6880 O.co2 302  GLU302     -0.2457
     60  OE2        7.3140  -45.9760   43.1680 O.co2 302  GLU302     -0.2457
     61  N          6.7390  -49.4560   46.8540 N.am  303  SER303     -0.1950
     62  CA         7.6550  -49.9790   47.9010 C.3   303  SER303      0.1924
     63  C          8.5340  -48.8840   48.4200 C.2   303  SER303      0.2314
     64  O          9.0360  -48.0710   47.6480 O.2   303  SER303     -0.2863
     65  CB         8.5530  -51.1440   47.4070 C.3   303  SER303      0.2116
     66  OG         7.7680  -52.2610   47.1050 O.3   303  SER303     -0.2180
     67  N          5.7870  -48.5060   56.7540 N.3   322  GLU322     -0.1231
     68  CA         5.1470  -48.7840   55.5230 C.3   322  GLU322      0.1699
     69  C          3.8310  -49.5400   55.7400 C.2   322  GLU322      0.2593
     70  O          3.5930  -50.1560   56.7750 O.2   322  GLU322     -0.2718
     71  CB         6.1090  -49.5890   54.6480 C.3   322  GLU322      0.0402
     72  CG         5.6820  -49.8560   53.2260 C.3   322  GLU322      0.1161
     73  CD         6.8230  -50.4610   52.4330 C.2   322  GLU322      0.3649
     74  OE1        7.8370  -50.8080   53.0660 O.co2 322  GLU322     -0.2457
     75  OE2        6.7220  -50.5390   51.1970 O.co2 322  GLU322     -0.2457
     76  N          2.9670  -49.3990   54.7490 N.am  323  SER323     -0.1938
     77  CA         1.6950  -50.0850   54.6740 C.3   323  SER323      0.2055
     78  C          1.5080  -50.3960   53.2140 C.2   323  SER323      0.2643
     79  O          2.1930  -49.8590   52.3490 O.2   323  SER323     -0.2714
     80  CB         0.5900  -49.1470   55.1740 C.3   323  SER323      0.2130
     81  OG         0.5060  -48.0080   54.3170 O.3   323  SER323     -0.2179
     82  N          0.5550  -51.2660   52.9380 N.am  324  TYR324     -0.1959
     83  CA         0.3210  -51.7280   51.6310 C.3   324  TYR324      0.1771
     84  C         -1.1510  -51.9920   51.4730 C.2   324  TYR324      0.2620
     85  O         -1.8210  -52.4490   52.4000 O.2   324  TYR324     -0.2715
     86  CB         1.0690  -53.0570   51.4980 C.3   324  TYR324      0.0574
     87  CG         0.6020  -54.0310   50.4510 C.ar  324  TYR324     -0.0198
     88  CD1        0.9550  -53.8690   49.1100 C.ar  324  TYR324     -0.0009
     89  CD2       -0.1500  -55.1500   50.7950 C.ar  324  TYR324     -0.0009
     90  CE1        0.5760  -54.7810   48.1330 C.ar  324  TYR324      0.0417
     91  CE2       -0.5440  -56.0450   49.8270 C.ar  324  TYR324      0.0417
     92  CZ        -0.1620  -55.8850   48.4980 C.ar  324  TYR324      0.1957
     93  OH        -0.5520  -56.8070   47.5280 O.3   324  TYR324     -0.2866
     94  N         -1.6450  -51.7790   50.2850 N.am  325  GLY325     -0.1940
     95  CA        -2.9800  -52.2130   50.0090 C.3   325  GLY325      0.2014
     96  C         -3.3480  -51.8330   48.6050 C.2   325  GLY325      0.2639
     97  O         -2.5040  -51.4290   47.8370 O.2   325  GLY325     -0.2714
     98  N         -4.6310  -51.9380   48.3030 N.am  326  GLN326     -0.1963
     99  CA        -5.1100  -51.5950   46.9720 C.3   326  GLN326      0.1733
    100  C         -6.5120  -51.1150   47.1130 C.2   326  GLN326      0.2617
    101  O         -7.1160  -51.2460   48.1930 O.2   326  GLN326     -0.2715
    102  CB        -5.0000  -52.8200   46.0050 C.3   326  GLN326      0.0408
    103  CG        -5.9840  -53.9700   46.2860 C.3   326  GLN326      0.0908
    104  CD        -5.8450  -55.1650   45.3350 C.2   326  GLN326      0.2608
    105  OE1       -4.8210  -55.3160   44.6590 O.2   326  GLN326     -0.2717
    106  NE2       -6.8720  -56.0220   45.2930 N.am  326  GLN326     -0.0878
    107  N         -7.0400  -50.5950   46.0060 N.am  327  THR327     -0.1937
    108  CA        -8.3800  -50.0130   45.9840 C.3   327  THR327      0.2028
    109  C         -9.3790  -50.9870   46.5100 C.2   327  THR327      0.2642
    110  O        -10.1820  -50.6180   47.3470 O.2   327  THR327     -0.2714
    111  CB        -8.7600  -49.4920   44.5810 C.3   327  THR327      0.1808
    112  OG1       -7.8470  -48.4720   44.2310 O.3   327  THR327     -0.2208
    113  CG2      -10.2490  -48.9370   44.5220 C.3   327  THR327      0.0379
    114  N         -9.2810  -52.2580   46.0980 N.am  328  GLU328     -0.1976
    115  CA       -10.2920  -53.2780   46.4620 C.3   328  GLU328      0.1602
    116  C        -10.2540  -53.7470   47.9380 C.2   328  GLU328      0.2287
    117  O        -11.2340  -54.2920   48.4930 O.2   328  GLU328     -0.2864
    118  CB       -10.1530  -54.4690   45.5130 C.3   328  GLU328      0.0415
    119  CG       -10.3440  -54.0770   44.0380 C.3   328  GLU328      0.1163
    120  CD        -9.0440  -53.7890   43.2770 C.2   328  GLU328      0.3649
    121  OE1       -8.0740  -53.3170   43.9070 O.co2 328  GLU328     -0.2457
    122  OE2       -8.9930  -53.9910   42.0300 O.co2 328  GLU328     -0.2457
    123  N          6.7810  -54.6500   54.2330 N.3   346  MET346     -0.1245
    124  CA         5.6700  -53.7710   54.3330 C.3   346  MET346      0.1570
    125  C          4.7520  -54.1500   55.5120 C.2   346  MET346      0.2261
    126  O          3.6540  -53.6440   55.6410 O.2   346  MET346     -0.2867
    127  CB         4.9630  -53.6810   52.9700 C.3   346  MET346      0.0387
    128  CG         4.2860  -54.9000   52.5010 C.3   346  MET346      0.0595
    129  SD         3.9050  -54.8370   50.7400 S.3   346  MET346     -0.1393
    130  CE         3.5020  -56.5390   50.6150 C.3   346  MET346      0.0692
    131  N         -0.4900  -59.2800   43.3630 N.3   409  ASP409     -0.1239
    132  CA         0.8890  -59.0740   43.6890 C.3   409  ASP409      0.1674
    133  C          1.5110  -60.3550   44.2440 C.2   409  ASP409      0.2266
    134  O          0.8940  -61.1040   45.0060 O.2   409  ASP409     -0.2867
    135  CB         0.9960  -58.0320   44.7660 C.3   409  ASP409      0.1410
    136  CG         0.4260  -56.6760   44.3440 C.2   409  ASP409      0.3668
    137  OD1        0.6260  -56.2580   43.2250 O.co2 409  ASP409     -0.2456
    138  OD2       -0.1890  -56.0240   45.1870 O.co2 409  ASP409     -0.2456
    139  N          7.0370  -57.3900   49.2890 N.3   421  PHE421     -0.1241
    140  CA         6.3670  -57.2060   48.0120 C.3   421  PHE421      0.1605
    141  C          7.3330  -57.6130   46.9310 C.2   421  PHE421      0.2264
    142  O          8.4930  -57.2620   46.9900 O.2   421  PHE421     -0.2867
    143  CB         6.0080  -55.7500   47.8610 C.3   421  PHE421      0.0534
    144  CG         5.3750  -55.3870   46.5440 C.ar  421  PHE421     -0.0203
    145  CD1        4.0170  -55.5700   46.3160 C.ar  421  PHE421     -0.0042
    146  CD2        6.1430  -54.8210   45.5300 C.ar  421  PHE421     -0.0042
    147  CE1        3.4390  -55.1770   45.0590 C.ar  421  PHE421     -0.0003
    148  CE2        5.5670  -54.4560   44.2800 C.ar  421  PHE421     -0.0003
    149  CZ         4.2290  -54.6430   44.0530 C.ar  421  PHE421     -0.0000
    150  N          4.0070  -57.0430   40.6770 N.3   424  ARG424     -0.1245
    151  CA         2.7690  -57.4880   40.0390 C.3   424  ARG424      0.1563
    152  C          2.9690  -58.8090   39.3810 C.2   424  ARG424      0.2260
    153  O          3.8300  -58.9450   38.4940 O.2   424  ARG424     -0.2867
    154  CB         2.2910  -56.4910   38.9710 C.3   424  ARG424      0.0307
    155  CG         1.8800  -55.1760   39.5480 C.3   424  ARG424      0.0489
    156  CD         0.6690  -55.3400   40.4050 C.3   424  ARG424      0.2205
    157  NE        -0.5010  -55.8350   39.6900 N.pl3 424  ARG424     -0.0865
    158  CZ        -1.6680  -56.0910   40.2880 C.cat 424  ARG424      0.5346
    159  NH1       -1.8140  -55.9290   41.6230 N.pl3 424  ARG424      0.1354
    160  NH2       -2.7030  -56.4850   39.5680 N.pl3 424  ARG424      0.1354
    161  N         -2.9350  -40.8180   36.5080 N.3   518  THR518     -0.1218
    162  CA        -1.9600  -40.3930   37.5120 C.3   518  THR518      0.1862
    163  C         -0.4910  -40.7330   37.1780 C.2   518  THR518      0.2287
    164  O          0.3860  -40.6860   38.0620 O.2   518  THR518     -0.2866
    165  CB        -2.3020  -41.0040   38.8890 C.3   518  THR518      0.1770
    166  OG1       -2.1220  -42.4180   38.8400 O.3   518  THR518     -0.2211
    167  CG2       -3.7500  -40.6730   39.2930 C.3   518  THR518      0.0375
    168  N          1.0990  -43.5400   35.9910 N.3   520  LYS520     -0.1245
    169  CA         1.7040  -44.8640   36.1270 C.3   520  LYS520      0.1561
    170  C          1.8140  -45.5040   34.7310 C.2   520  LYS520      0.2260
    171  O          0.9790  -45.2390   33.8860 O.2   520  LYS520     -0.2867
    172  CB         0.8850  -45.7380   37.0790 C.3   520  LYS520      0.0271
    173  CG         1.3500  -47.0510   37.6660 C.3   520  LYS520      0.0035
    174  CD         2.7310  -47.0840   38.2640 C.3   520  LYS520      0.0206
    175  CE         3.2070  -48.5210   38.4140 C.3   520  LYS520      0.1093
    176  NZ         4.6790  -48.6770   38.2340 N.3   520  LYS520     -0.1314
@<TRIPOS>BOND
     1   171   170    2
     2   170   169    1
     3    13    12    1
     4   168   169    1
     5   169   172    1
     6    12     9    1
     7   161   162    1
     8    10    11    2
     9    10     9    1
    10     9     8    1
    11   172   173    1
    12   163   162    1
    13   163   164    2
    14   162   165    1
    15   173   174    1
    16     4     3    2
    17     6     5    1
    18   176   175    1
    19   174   175    1
    20     8     3   am
    21   153   152    2
    22     3     2    1
    23   166   165    1
    24   165   167    1
    25   154   155    1
    26   154   151    1
    27   152   151    1
    28   155   156    1
    29     5     2    1
    30     5     7    1
    31   160   158    1
    32     1     2    1
    33   157   158    2
    34   157   156    1
    35   151   150    1
    36   158   159    1
    37   122   120   ar
    38    22    20   ar
    39    22    23   ar
    40    60    58   ar
    41   137   136   ar
    42   120   121   ar
    43   120   119    1
    44    25    23   ar
    45    25    27   ar
    46   131   132    1
    47    20    19   ar
    48    23    21   ar
    49   132   133    1
    50   132   135    1
    51   119   118    1
    52   149   148   ar
    53   149   147   ar
    54   112   111    1
    55   133   134    2
    56   148   146   ar
    57    58    59   ar
    58    58    57    1
    59   136   135    1
    60   136   138   ar
    61    27    26   ar
    62   113   111    1
    63   111   108    1
    64   105   104    2
    65    19    21   ar
    66    19    18    1
    67    21    24   ar
    68   147   145   ar
    69    56    57    1
    70    56    53    1
    71    51    50    2
    72   106   104   am
    73   104   103    1
    74    14    15    1
    75   118   115    1
    76   146   144   ar
    77    26    24   ar
    78    15    18    1
    79    15    16    1
    80   108   107    1
    81   108   109    1
    82   102   103    1
    83   102    99    1
    84   107   100   am
    85   114   115    1
    86   114   109   am
    87    53    52    1
    88    53    54    1
    89   145   144   ar
    90   115   116    1
    91    50    52   am
    92    50    49    1
    93   109   110    2
    94   144   143    1
    95    61    54   am
    96    61    62    1
    97   141   142    2
    98   141   140    1
    99    99   100    1
   100    99    98    1
   101    16    28   am
   102    16    17    2
   103    28    29    1
   104    66    65    1
   105   100   101    2
   106    54    55    2
   107    65    62    1
   108    49    48    1
   109    40    37    1
   110    93    92    1
   111    64    63    2
   112    97    96    2
   113   143   140    1
   114    62    63    1
   115   116   117    2
   116   140   139    1
   117    32    29    1
   118    32    34    1
   119    32    33    1
   120    90    92   ar
   121    90    88   ar
   122    29    30    1
   123    98    96   am
   124    92    91   ar
   125    96    95    1
   126    35    33    1
   127    48    43   am
   128    37    38    1
   129    37    36    1
   130    88    87   ar
   131    38    39    2
   132    44    43    2
   133    30    31    2
   134    43    42    1
   135    91    89   ar
   136    95    94    1
   137    94    84   am
   138    87    89   ar
   139    87    86    1
   140   130   129    1
   141   129   128    1
   142    47    45    1
   143    46    45    1
   144    42    45    1
   145    42    41    1
   146    75    73   ar
   147    84    83    1
   148    84    85    2
   149    86    83    1
   150    83    82    1
   151    79    78    2
   152    73    74   ar
   153    73    72    1
   154   128   127    1
   155    82    78   am
   156   127   124    1
   157    78    77    1
   158    72    71    1
   159   123   124    1
   160    81    80    1
   161   124   125    1
   162    71    68    1
   163    77    76    1
   164    77    80    1
   165    76    69   am
   166   125   126    2
   167    68    69    1
   168    68    67    1
   169    69    70    2
