@<TRIPOS>MOLECULE
tmp/3gphB01.pdb
 172 165 0 0 0
SMALL
GASTEIGER

@<TRIPOS>ATOM
      1  N         25.6140   20.7630   27.9090 N.3    76  PHE76      -0.1241
      2  CA        24.5600   21.4370   27.2280 C.3    76  PHE76       0.1605
      3  C         23.4210   20.5080   26.8540 C.2    76  PHE76       0.2264
      4  O         22.7820   20.7060   25.8410 O.2    76  PHE76      -0.2867
      5  CB        25.1300   22.1710   26.0250 C.3    76  PHE76       0.0534
      6  CG        25.7650   23.4710   26.3650 C.ar   76  PHE76      -0.0203
      7  CD1       27.1320   23.6020   26.3850 C.ar   76  PHE76      -0.0042
      8  CD2       25.0010   24.5690   26.6540 C.ar   76  PHE76      -0.0042
      9  CE1       27.7200   24.8180   26.6750 C.ar   76  PHE76      -0.0003
     10  CE2       25.6080   25.8110   26.9590 C.ar   76  PHE76      -0.0003
     11  CZ        26.9620   25.9240   26.9670 C.ar   76  PHE76      -0.0000
     12  N         20.0330   21.9240   25.9730 N.3    79  HIS79      -0.1241
     13  CA        20.0190   22.4660   24.5840 C.3    79  HIS79       0.1621
     14  C         20.0330   21.4010   23.4740 C.2    79  HIS79       0.2264
     15  O         19.6000   21.6810   22.3730 O.2    79  HIS79      -0.2867
     16  CB        21.2570   23.3270   24.3320 C.3    79  HIS79       0.0745
     17  CG        21.2160   24.6770   24.9670 C.ar   79  HIS79       0.0817
     18  ND1       21.2750   25.8410   24.2320 N.ar   79  HIS79      -0.2268
     19  CD2       21.1620   25.0540   26.2680 C.ar   79  HIS79       0.1154
     20  CE1       21.2520   26.8750   25.0540 C.ar   79  HIS79       0.1986
     21  NE2       21.1960   26.4260   26.2940 N.ar   79  HIS79      -0.2212
     22  N         23.1270   25.8760   18.0600 N.3    85  ILE85      -0.1231
     23  CA        24.5210   25.5350   18.3360 C.3    85  ILE85       0.1692
     24  C         24.6850   24.0580   18.6940 C.2    85  ILE85       0.2592
     25  O         25.6350   23.4070   18.2740 O.2    85  ILE85      -0.2718
     26  CB        25.0880   26.4070   19.4970 C.3    85  ILE85       0.0266
     27  CG1       24.9490   27.9020   19.1740 C.3    85  ILE85       0.0019
     28  CG2       26.5420   25.9810   19.8680 C.3    85  ILE85       0.0020
     29  CD1       25.0980   28.8670   20.3570 C.3    85  ILE85       0.0001
     30  N         23.7360   23.5540   19.4840 N.am   86  PHE86      -0.1976
     31  CA        23.8420   22.2390   20.1180 C.3    86  PHE86       0.1639
     32  C         22.9080   21.2500   19.5100 C.2    86  PHE86       0.2290
     33  O         22.6540   20.1950   20.1070 O.2    86  PHE86      -0.2864
     34  CB        23.6190   22.3550   21.6210 C.3    86  PHE86       0.0560
     35  CG        24.5990   23.2370   22.2510 C.ar   86  PHE86      -0.0200
     36  CD1       24.2320   24.4920   22.6890 C.ar   86  PHE86      -0.0042
     37  CD2       25.9260   22.8720   22.2840 C.ar   86  PHE86      -0.0042
     38  CE1       25.1590   25.3290   23.2190 C.ar   86  PHE86      -0.0003
     39  CE2       26.8690   23.7190   22.8050 C.ar   86  PHE86      -0.0003
     40  CZ        26.4900   24.9440   23.2860 C.ar   86  PHE86      -0.0000
     41  N         26.4730   34.7150   34.5880 N.3   170  LEU170     -0.1231
     42  CA        26.2560   33.3350   34.2130 C.3   170  LEU170      0.1693
     43  C         26.9950   33.0240   32.9230 C.2   170  LEU170      0.2592
     44  O         27.7660   32.0810   32.8880 O.2   170  LEU170     -0.2718
     45  CB        24.7600   33.0230   34.0960 C.3   170  LEU170      0.0284
     46  CG        23.9040   32.9270   35.3800 C.3   170  LEU170      0.0019
     47  CD1       22.4140   32.7830   35.0920 C.3   170  LEU170      0.0001
     48  CD2       24.3710   31.8790   36.4100 C.3   170  LEU170      0.0001
     49  N         26.7770   33.8350   31.8840 N.am  171  PHE171     -0.1976
     50  CA        27.5460   33.7400   30.6340 C.3   171  PHE171      0.1639
     51  C         29.0440   33.6730   30.8910 C.2   171  PHE171      0.2290
     52  O         29.7620   32.8620   30.3030 O.2   171  PHE171     -0.2864
     53  CB        27.3230   34.9420   29.6830 C.3   171  PHE171      0.0560
     54  CG        25.8780   35.2070   29.2820 C.ar  171  PHE171     -0.0200
     55  CD1       24.8670   34.2650   29.4800 C.ar  171  PHE171     -0.0042
     56  CD2       25.5530   36.4340   28.6590 C.ar  171  PHE171     -0.0042
     57  CE1       23.5440   34.5510   29.0930 C.ar  171  PHE171     -0.0003
     58  CE2       24.2210   36.7320   28.2470 C.ar  171  PHE171     -0.0003
     59  CZ        23.2180   35.7790   28.4600 C.ar  171  PHE171     -0.0000
     60  N         30.1720   30.4030   33.0020 N.3   174  ASN174     -0.1225
     61  CA        30.0830   29.1460   32.2070 C.3   174  ASN174      0.1785
     62  C         31.2010   29.0760   31.1620 C.2   174  ASN174      0.2597
     63  O         31.8160   28.0030   30.9660 O.2   174  ASN174     -0.2718
     64  CB        28.7110   28.9700   31.5060 C.3   174  ASN174      0.1169
     65  CG        27.7030   28.1780   32.3340 C.2   174  ASN174      0.2627
     66  OD1       27.9460   27.8680   33.4930 O.2   174  ASN174     -0.2716
     67  ND2       26.5660   27.8570   31.7310 N.am  174  ASN174     -0.0877
     68  N         31.4600   30.2240   30.5150 N.am  175  PHE175     -0.1976
     69  CA        32.5510   30.3160   29.5430 C.3   175  PHE175      0.1639
     70  C         33.8790   30.0150   30.2020 C.2   175  PHE175      0.2290
     71  O         34.6500   29.2080   29.7060 O.2   175  PHE175     -0.2864
     72  CB        32.6030   31.6600   28.8000 C.3   175  PHE175      0.0560
     73  CG        33.3800   31.6080   27.5200 C.ar  175  PHE175     -0.0200
     74  CD1       33.5990   30.3860   26.8580 C.ar  175  PHE175     -0.0042
     75  CD2       33.8700   32.7560   26.9580 C.ar  175  PHE175     -0.0042
     76  CE1       34.3150   30.3300   25.6820 C.ar  175  PHE175     -0.0003
     77  CE2       34.5790   32.7280   25.7500 C.ar  175  PHE175     -0.0003
     78  CZ        34.8130   31.5110   25.1160 C.ar  175  PHE175     -0.0000
     79  N         34.0610   26.0480   31.1580 N.3   178  LEU178     -0.1245
     80  CA        34.0810   25.1230   30.0040 C.3   178  LEU178      0.1561
     81  C         35.4780   25.0380   29.4180 C.2   178  LEU178      0.2260
     82  O         35.7520   24.2350   28.5300 O.2   178  LEU178     -0.2867
     83  CB        33.0720   25.5330   28.9190 C.3   178  LEU178      0.0270
     84  CG        31.6060   25.6320   29.3180 C.3   178  LEU178      0.0019
     85  CD1       30.8640   26.5850   28.4240 C.3   178  LEU178      0.0001
     86  CD2       30.9970   24.2910   29.2400 C.3   178  LEU178      0.0001
     87  N         23.3760   26.8400   33.0420 N.3   207  VAL207     -0.1245
     88  CA        22.6990   26.6390   31.7500 C.3   207  VAL207      0.1561
     89  C         21.1780   26.7160   31.9260 C.2   207  VAL207      0.2260
     90  O         20.4690   27.3380   31.1440 O.2   207  VAL207     -0.2867
     91  CB        23.1150   25.2650   31.0620 C.3   207  VAL207      0.0252
     92  CG1       22.2600   24.9550   29.8000 C.3   207  VAL207      0.0019
     93  CG2       24.6530   25.2080   30.7440 C.3   207  VAL207      0.0019
     94  N         19.8810   30.3920   32.8020 N.3   210  VAL210     -0.1245
     95  CA        19.8100   31.1350   31.5390 C.3   210  VAL210      0.1561
     96  C         18.5850   30.6730   30.7470 C.2   210  VAL210      0.2260
     97  O         17.8490   31.4870   30.2000 O.2   210  VAL210     -0.2867
     98  CB        21.1500   31.0520   30.6990 C.3   210  VAL210      0.0252
     99  CG1       21.0740   31.8440   29.3950 C.3   210  VAL210      0.0019
    100  CG2       22.3200   31.5520   31.5080 C.3   210  VAL210      0.0019
    101  N         23.3480   34.2600   24.5760 N.3   266  PHE266     -0.1227
    102  CA        24.6740   34.1800   25.1630 C.3   266  PHE266      0.1736
    103  C         25.7760   34.2310   24.1360 C.2   266  PHE266      0.2595
    104  O         26.8580   34.7260   24.4270 O.2   266  PHE266     -0.2718
    105  CB        24.8280   32.9670   26.1070 C.3   266  PHE266      0.0547
    106  CG        24.9920   31.6360   25.4270 C.ar  266  PHE266     -0.0202
    107  CD1       26.2110   31.2860   24.8150 C.ar  266  PHE266     -0.0042
    108  CD2       23.9500   30.6970   25.4700 C.ar  266  PHE266     -0.0042
    109  CE1       26.3880   30.0440   24.2010 C.ar  266  PHE266     -0.0003
    110  CE2       24.1050   29.4400   24.8610 C.ar  266  PHE266     -0.0003
    111  CZ        25.3350   29.1020   24.2300 C.ar  266  PHE266     -0.0000
    112  N         25.5150   33.7190   22.9430 N.am  267  ALA267     -0.1980
    113  CA        26.5220   33.8150   21.9410 C.3   267  ALA267      0.1597
    114  C         26.6420   35.2530   21.4720 C.2   267  ALA267      0.2287
    115  O         27.7300   35.7040   21.1530 O.2   267  ALA267     -0.2864
    116  CB        26.2500   32.8820   20.8130 C.3   267  ALA267      0.0319
    117  N         28.5560   36.9460   24.6860 N.3   270  GLU270     -0.1231
    118  CA        29.6890   36.4720   25.4250 C.3   270  GLU270      0.1699
    119  C         30.9720   36.4670   24.5930 C.2   270  GLU270      0.2592
    120  O         32.0950   36.7520   25.1010 O.2   270  GLU270     -0.2718
    121  CB        29.3740   35.1110   26.0520 C.3   270  GLU270      0.0402
    122  CG        30.3580   34.6850   27.1150 C.3   270  GLU270      0.1161
    123  CD        30.6210   35.7770   28.1250 C.2   270  GLU270      0.3649
    124  OE1       31.7410   35.8590   28.6680 O.co2 270  GLU270     -0.2457
    125  OE2       29.6940   36.5620   28.3640 O.co2 270  GLU270     -0.2457
    126  N         30.7720   36.1650   23.3190 N.am  271  THR271     -0.1953
    127  CA        31.8200   36.2400   22.3330 C.3   271  THR271      0.1897
    128  C         32.3990   37.6730   22.1330 C.2   271  THR271      0.2313
    129  O         33.6060   37.8680   22.2880 O.2   271  THR271     -0.2863
    130  CB        31.3590   35.5700   21.0050 C.3   271  THR271      0.1794
    131  OG1       30.2100   36.2250   20.4870 O.3   271  THR271     -0.2208
    132  CG2       30.9700   34.1520   21.2630 C.3   271  THR271      0.0378
    133  N         39.5920   32.7760   19.9910 N.3   331  LEU331     -0.1231
    134  CA        38.5500   32.6560   21.0250 C.3   331  LEU331      0.1693
    135  C         38.0850   31.1970   21.1710 C.2   331  LEU331      0.2591
    136  O         38.0340   30.6500   22.2700 O.2   331  LEU331     -0.2718
    137  CB        37.3780   33.6110   20.7130 C.3   331  LEU331      0.0284
    138  CG        36.2330   33.8230   21.6920 C.3   331  LEU331      0.0019
    139  CD1       36.6460   34.6210   22.8940 C.3   331  LEU331      0.0001
    140  CD2       35.1640   34.5470   21.0120 C.3   331  LEU331      0.0001
    141  N         37.7820   30.5900   20.0270 N.am  332  VAL332     -0.1980
    142  CA        37.2600   29.2430   19.9070 C.3   332  VAL332      0.1595
    143  C         38.2800   28.3750   19.1430 C.2   332  VAL332      0.2287
    144  O         38.0760   28.1000   17.9460 O.2   332  VAL332     -0.2864
    145  CB        35.8970   29.2710   19.1780 C.3   332  VAL332      0.0276
    146  CG1       35.1910   27.9200   19.2550 C.3   332  VAL332      0.0022
    147  CG2       35.0090   30.3840   19.7470 C.3   332  VAL332      0.0022
    148  N         33.8700   24.4460   17.1240 N.3   336  LEU336     -0.1245
    149  CA        32.7740   23.7070   17.7090 C.3   336  LEU336      0.1561
    150  C         32.7430   22.3660   17.0160 C.2   336  LEU336      0.2260
    151  O         32.9920   22.3130   15.8000 O.2   336  LEU336     -0.2867
    152  CB        31.4590   24.4540   17.5690 C.3   336  LEU336      0.0270
    153  CG        30.9470   25.1450   18.8340 C.3   336  LEU336      0.0019
    154  CD1       32.0640   25.7000   19.7380 C.3   336  LEU336      0.0001
    155  CD2       29.9470   26.2110   18.4560 C.3   336  LEU336      0.0001
    156  N         29.5300   30.5900   12.0090 N.3   405  CYS405     -0.1235
    157  CA        28.9480   31.3530   13.0750 C.3   405  CYS405      0.1677
    158  C         27.7860   32.1290   12.5290 C.2   405  CYS405      0.2270
    159  O         27.9250   32.8860   11.5790 O.2   405  CYS405     -0.2867
    160  CB        29.9980   32.2760   13.6610 C.3   405  CYS405      0.0956
    161  SG        29.3650   33.3380   14.8950 S.3   405  CYS405     -0.0801
    162  N         36.9910   25.0960   25.8710 N.3   446  PHE446     -0.1241
    163  CA        35.9700   25.6870   25.0100 C.3   446  PHE446      0.1605
    164  C         36.4060   27.0220   24.3120 C.2   446  PHE446      0.2264
    165  O         36.1660   27.2200   23.1090 O.2   446  PHE446     -0.2867
    166  CB        34.7200   25.9010   25.8470 C.3   446  PHE446      0.0534
    167  CG        33.4690   25.7410   25.0850 C.ar  446  PHE446     -0.0203
    168  CD1       33.0970   24.4790   24.6000 C.ar  446  PHE446     -0.0042
    169  CD2       32.6470   26.8330   24.8480 C.ar  446  PHE446     -0.0042
    170  CE1       31.9350   24.2990   23.9060 C.ar  446  PHE446     -0.0003
    171  CE2       31.4680   26.6690   24.1540 C.ar  446  PHE446     -0.0003
    172  CZ        31.1140   25.4020   23.6720 C.ar  446  PHE446     -0.0000
@<TRIPOS>BOND
     1   159   158    2
     2   156   157    1
     3   158   157    1
     4   157   160    1
     5   160   161    1
     6   151   150    2
     7   150   149    1
     8   148   149    1
     9   152   149    1
    10   152   153    1
    11   144   143    2
    12    22    23    1
    13    25    24    2
    14    23    24    1
    15    23    26    1
    16   155   153    1
    17    24    30   am
    18   153   154    1
    19   143   142    1
    20    27    26    1
    21    27    29    1
    22   145   146    1
    23   145   147    1
    24   145   142    1
    25    30    31    1
    26    26    28    1
    27    32    33    2
    28    32    31    1
    29   142   141    1
    30   133   134    1
    31   141   135   am
    32    31    34    1
    33   131   130    1
    34   137   134    1
    35   137   138    1
    36   116   113    1
    37   130   132    1
    38   130   127    1
    39   140   138    1
    40   134   135    1
    41   115   114    2
    42   135   136    2
    43   114   113    1
    44    34    35    1
    45   138   139    1
    46   113   112    1
    47   128   129    2
    48   128   127    1
    49    35    37   ar
    50    35    36   ar
    51    37    39   ar
    52   127   126    1
    53    15    14    2
    54    36    38   ar
    55    39    40   ar
    56   112   103   am
    57   165   164    2
    58    38    40   ar
    59   126   119   am
    60    14    13    1
    61   172   170   ar
    62   172   171   ar
    63   170   168   ar
    64   103   104    2
    65   103   102    1
    66   171   169   ar
    67   109   111   ar
    68   109   107   ar
    69   111   110   ar
    70    18    17   ar
    71    18    20   ar
    72   164   163    1
    73    16    13    1
    74    16    17    1
    75   101   102    1
    76    13    12    1
    77   119   120    2
    78   119   118    1
    79   168   167   ar
    80   117   118    1
    81   107   106   ar
    82   169   167   ar
    83   110   108   ar
    84    17    19   ar
    85   163   166    1
    86   163   162    1
    87    20    21   ar
    88   167   166    1
    89    78    76   ar
    90    78    77   ar
    91   102   105    1
    92   118   121    1
    93   106   108   ar
    94   106   105    1
    95    76    74   ar
    96    77    75   ar
    97     4     3    2
    98     5     6    1
    99     5     2    1
   100   121   122    1
   101    19    21   ar
   102     6     7   ar
   103     6     8   ar
   104     7     9   ar
   105     8    10   ar
   106     9    11   ar
   107     3     2    1
   108    74    73   ar
   109    75    73   ar
   110    10    11   ar
   111   122   123    1
   112     2     1    1
   113    73    72    1
   114   123   125   ar
   115   123   124   ar
   116    58    59   ar
   117    58    56   ar
   118    85    84    1
   119    59    57   ar
   120    82    81    2
   121    56    54   ar
   122    72    69    1
   123    83    84    1
   124    83    80    1
   125    57    55   ar
   126    86    84    1
   127    54    55   ar
   128    54    53    1
   129    99    98    1
   130    81    80    1
   131    69    70    1
   132    69    68    1
   133    53    50    1
   134    71    70    2
   135    92    91    1
   136    80    79    1
   137    97    96    2
   138    52    51    2
   139    68    62   am
   140    50    51    1
   141    50    49    1
   142    98   100    1
   143    98    95    1
   144    93    91    1
   145    96    95    1
   146    63    62    2
   147    91    88    1
   148    90    89    2
   149    62    61    1
   150    64    61    1
   151    64    65    1
   152    95    94    1
   153    67    65   am
   154    88    89    1
   155    88    87    1
   156    49    43   am
   157    61    60    1
   158    65    66    2
   159    44    43    2
   160    43    42    1
   161    45    42    1
   162    45    46    1
   163    42    41    1
   164    47    46    1
   165    46    48    1
