@<TRIPOS>MOLECULE
tmp/3gpjH00.pdb
 115 106 0 0 0
SMALL
GASTEIGER

@<TRIPOS>ATOM
      1  N         64.4570 -139.7910   44.7690 N.3     1  THR1       -0.1218
      2  CA        64.8470 -138.6130   45.5700 C.3     1  THR1        0.1862
      3  C         64.8250 -138.9230   47.0490 C.2     1  THR1        0.2287
      4  O         63.8750 -139.5300   47.5620 O.2     1  THR1       -0.2866
      5  CB        63.8970 -137.4100   45.3490 C.3     1  THR1        0.1770
      6  OG1       64.0480 -136.8980   44.0230 O.3     1  THR1       -0.2211
      7  CG2       64.2010 -136.3120   46.3350 C.3     1  THR1        0.0375
      8  N         69.9480 -136.8390   42.1000 N.3    19  ARG19      -0.1231
      9  CA        69.4270 -137.5230   40.9030 C.3    19  ARG19       0.1694
     10  C         68.0150 -137.0920   40.5110 C.2    19  ARG19       0.2593
     11  O         67.0950 -137.0630   41.3380 O.2    19  ARG19      -0.2718
     12  CB        69.4460 -139.0490   41.0920 C.3    19  ARG19       0.0321
     13  CG        68.7130 -139.8300   40.0010 C.3    19  ARG19       0.0489
     14  CD        68.7110 -141.3360   40.2680 C.3    19  ARG19       0.2205
     15  NE        70.0210 -141.9450   40.0350 N.pl3  19  ARG19      -0.0865
     16  CZ        70.2560 -143.2550   40.0600 C.cat  19  ARG19       0.5346
     17  NH1       69.2670 -144.1080   40.3130 N.pl3  19  ARG19       0.1354
     18  NH2       71.4790 -143.7150   39.8180 N.pl3  19  ARG19       0.1354
     19  N         67.8610 -136.7670   39.2310 N.am   20  SER20      -0.1938
     20  CA        66.5910 -136.3350   38.6600 C.3    20  SER20       0.2055
     21  C         66.1850 -137.3750   37.6280 C.2    20  SER20       0.2644
     22  O         67.0350 -137.8540   36.8750 O.2    20  SER20      -0.2714
     23  CB        66.7790 -134.9850   37.9890 C.3    20  SER20       0.2130
     24  OG        65.7450 -134.7470   37.0650 O.3    20  SER20      -0.2179
     25  N         64.8990 -137.7170   37.5690 N.am   21  THR21      -0.1936
     26  CA        64.4500 -138.7470   36.6250 C.3    21  THR21       0.2028
     27  C         63.0990 -138.5690   35.9610 C.2    21  THR21       0.2642
     28  O         62.1780 -137.9830   36.5220 O.2    21  THR21      -0.2714
     29  CB        64.3470 -140.1290   37.2990 C.3    21  THR21       0.1808
     30  OG1       63.4390 -140.0390   38.4110 O.3    21  THR21      -0.2208
     31  CG2       65.6990 -140.6200   37.7590 C.3    21  THR21       0.0379
     32  N         62.9920 -139.1310   34.7640 N.am   22  GLN22      -0.1963
     33  CA        61.7590 -139.1450   33.9870 C.3    22  GLN22       0.1733
     34  C         61.6480 -140.6030   33.5750 C.2    22  GLN22       0.2616
     35  O         62.2530 -141.0450   32.5880 O.2    22  GLN22      -0.2715
     36  CB        61.8460 -138.2350   32.7540 C.3    22  GLN22       0.0408
     37  CG        63.2590 -138.0210   32.2170 C.3    22  GLN22       0.0908
     38  CD        63.3050 -137.0670   31.0170 C.2    22  GLN22       0.2608
     39  OE1       62.5160 -136.1000   30.9340 O.2    22  GLN22      -0.2717
     40  NE2       64.2410 -137.3230   30.0860 N.am   22  GLN22      -0.0878
     41  N         60.8970 -141.3560   34.3700 N.am   23  GLY23      -0.1955
     42  CA        60.7330 -142.7700   34.1050 C.3    23  GLY23       0.1869
     43  C         61.9250 -143.5180   34.6650 C.2    23  GLY23       0.2309
     44  O         62.2590 -143.3490   35.8340 O.2    23  GLY23      -0.2863
     45  N         67.5250 -137.9580   34.1480 N.3    27  ALA27      -0.1245
     46  CA        67.5260 -136.6860   33.4300 C.3    27  ALA27       0.1562
     47  C         68.7270 -135.8410   33.8500 C.2    27  ALA27       0.2260
     48  O         69.5230 -135.3990   33.0090 O.2    27  ALA27      -0.2867
     49  CB        66.2290 -135.9330   33.7020 C.3    27  ALA27       0.0290
     50  N         71.3770 -132.5710   39.9790 N.3    31  CYS31      -0.1235
     51  CA        70.6040 -131.3510   40.1220 C.3    31  CYS31       0.1677
     52  C         70.6340 -130.9930   41.6030 C.2    31  CYS31       0.2270
     53  O         71.0480 -131.7990   42.4310 O.2    31  CYS31      -0.2867
     54  CB        69.1630 -131.5850   39.6810 C.3    31  CYS31       0.0956
     55  SG        68.3600 -132.9030   40.6130 S.3    31  CYS31      -0.0801
     56  N         68.5480 -130.2210   44.9250 N.3    33  LYS33      -0.1245
     57  CA        67.2030 -130.3510   45.4570 C.3    33  LYS33       0.1561
     58  C         67.0080 -129.4810   46.6960 C.2    33  LYS33       0.2260
     59  O         65.9650 -129.5400   47.3600 O.2    33  LYS33      -0.2867
     60  CB        66.9160 -131.8320   45.7570 C.3    33  LYS33       0.0271
     61  CG        67.2570 -132.7660   44.5780 C.3    33  LYS33       0.0035
     62  CD        66.7510 -134.2000   44.7670 C.3    33  LYS33       0.0206
     63  CE        67.2020 -135.1280   43.6250 C.3    33  LYS33       0.1093
     64  NZ        66.5640 -136.4780   43.7190 N.3    33  LYS33      -0.1314
     65  N         63.2610 -130.3150   48.4680 N.3    45  GLY45      -0.1210
     66  CA        62.0420 -130.8170   47.8590 C.3    45  GLY45       0.1956
     67  C         62.0710 -132.0220   46.9440 C.2    45  GLY45       0.2612
     68  O         62.9830 -132.2140   46.1240 O.2    45  GLY45      -0.2717
     69  N         61.0190 -132.8220   47.0940 N.am   46  ALA46      -0.1965
     70  CA        60.8150 -134.0340   46.3190 C.3    46  ALA46       0.1728
     71  C         59.4640 -133.9330   45.6250 C.2    46  ALA46       0.2617
     72  O         58.6000 -133.1510   46.0370 O.2    46  ALA46      -0.2715
     73  CB        60.8330 -135.2440   47.2330 C.3    46  ALA46       0.0334
     74  N         59.2880 -134.7400   44.5800 N.am   47  GLY47      -0.1940
     75  CA        58.0480 -134.7300   43.8290 C.3    47  GLY47       0.2014
     76  C         58.3330 -134.1890   42.4460 C.2    47  GLY47       0.2640
     77  O         59.4470 -134.3680   41.9170 O.2    47  GLY47      -0.2714
     78  N         57.3350 -133.5270   41.8610 N.am   48  THR48      -0.1936
     79  CA        57.4860 -132.9440   40.5310 C.3    48  THR48       0.2028
     80  C         58.5400 -131.8410   40.5700 C.2    48  THR48       0.2642
     81  O         58.2880 -130.7480   41.0640 O.2    48  THR48      -0.2714
     82  CB        56.1640 -132.3220   40.0180 C.3    48  THR48       0.1808
     83  OG1       55.1400 -133.3220   39.9420 O.3    48  THR48      -0.2208
     84  CG2       56.3760 -131.7200   38.6380 C.3    48  THR48       0.0379
     85  N         59.7170 -132.1270   40.0380 N.am   49  ALA49      -0.1963
     86  CA        60.8050 -131.1530   40.0330 C.3    49  ALA49       0.1728
     87  C         60.3930 -129.6880   39.7870 C.2    49  ALA49       0.2616
     88  O         60.5860 -128.8200   40.6500 O.2    49  ALA49      -0.2715
     89  CB        61.8550 -131.5720   39.0220 C.3    49  ALA49       0.0334
     90  N         59.8520 -129.4030   38.6080 N.am   50  ALA50      -0.1977
     91  CA        59.4250 -128.0460   38.2890 C.3    50  ALA50       0.1597
     92  C         58.6290 -127.4340   39.4460 C.2    50  ALA50       0.2287
     93  O         58.8600 -126.2850   39.8150 O.2    50  ALA50      -0.2864
     94  CB        58.5790 -128.0470   37.0210 C.3    50  ALA50       0.0319
     95  N         58.5480 -128.2430   42.8210 N.3    52  THR52      -0.1218
     96  CA        59.3220 -127.9160   44.0110 C.3    52  THR52       0.1862
     97  C         60.0620 -126.5950   43.7960 C.2    52  THR52       0.2287
     98  O         60.1560 -125.7770   44.7060 O.2    52  THR52      -0.2866
     99  CB        60.3270 -129.0400   44.3900 C.3    52  THR52       0.1770
    100  OG1       61.2620 -129.2610   43.3250 O.3    52  THR52      -0.2211
    101  CG2       59.5800 -130.3110   44.6830 C.3    52  THR52       0.0375
    102  N         60.5020 -138.4890   49.9140 N.3   128  GLY128     -0.1210
    103  CA        60.9700 -138.9720   48.6270 C.3   128  GLY128      0.1956
    104  C         60.9210 -140.4830   48.5230 C.2   128  GLY128      0.2612
    105  O         60.5210 -141.1690   49.4740 O.2   128  GLY128     -0.2717
    106  N         61.3310 -141.0140   47.3720 N.am  129  SER129     -0.1952
    107  CA        61.3180 -142.4600   47.1700 C.3   129  SER129      0.1924
    108  C         62.3610 -143.1740   48.0300 C.2   129  SER129      0.2314
    109  O         62.3280 -144.4020   48.1670 O.2   129  SER129     -0.2863
    110  CB        61.5140 -142.8010   45.6840 C.3   129  SER129      0.2116
    111  OG        62.6310 -142.1390   45.1240 O.3   129  SER129     -0.2180
    112  N         65.4450 -144.5110   42.6010 N.3   168  GLY168     -0.1225
    113  CA        64.9960 -143.1820   42.2380 C.3   168  GLY168      0.1811
    114  C         65.9500 -142.1300   42.7620 C.2   168  GLY168      0.2280
    115  O         65.8070 -140.9360   42.4780 O.2   168  GLY168     -0.2866
@<TRIPOS>BOND
     1    40    38   am
     2    39    38    2
     3    38    37    1
     4    37    36    1
     5    35    34    2
     6    36    33    1
     7    48    47    2
     8    46    49    1
     9    46    47    1
    10    46    45    1
    11    34    33    1
    12    34    41   am
    13    33    32    1
    14    42    41    1
    15    42    43    1
    16    43    44    2
    17    32    27   am
    18    27    28    2
    19    27    26    1
    20    26    29    1
    21    26    25    1
    22    22    21    2
    23    94    91    1
    24    24    23    1
    25    29    31    1
    26    29    30    1
    27    25    21   am
    28    21    20    1
    29    23    20    1
    30    91    90    1
    31    91    92    1
    32    90    87   am
    33    84    82    1
    34    20    19    1
    35    89    86    1
    36    19    10   am
    37    92    93    2
    38    54    51    1
    39    54    55    1
    40    87    86    1
    41    87    88    2
    42    18    16    1
    43    83    82    1
    44    50    51    1
    45    13    14    1
    46    13    12    1
    47    82    79    1
    48    86    85    1
    49    15    16    2
    50    15    14    1
    51    85    80   am
    52    16    17    1
    53    51    52    1
    54    10     9    1
    55    10    11    2
    56    79    80    1
    57    79    78    1
    58    80    81    2
    59     9    12    1
    60     9     8    1
    61    52    53    2
    62    78    76   am
    63    77    76    2
    64   113   112    1
    65   113   114    1
    66    76    75    1
    67   115   114    2
    68    95    96    1
    69   100    99    1
    70    63    64    1
    71    63    62    1
    72    97    96    1
    73    97    98    2
    74    75    74    1
    75    96    99    1
    76     6     5    1
    77    99   101    1
    78    61    62    1
    79    61    60    1
    80    74    71   am
    81     1     2    1
    82    56    57    1
    83   111   110    1
    84     5     2    1
    85     5     7    1
    86    57    60    1
    87    57    58    1
    88     2     3    1
    89    71    72    2
    90    71    70    1
    91   110   107    1
    92    68    67    2
    93    70    69    1
    94    70    73    1
    95    58    59    2
    96    67    69   am
    97    67    66    1
    98     3     4    2
    99   107   106    1
   100   107   108    1
   101   106   104   am
   102    66    65    1
   103   108   109    2
   104   104   103    1
   105   104   105    2
   106   103   102    1
