@<TRIPOS>MOLECULE
tmp/3gplB00.pdb
 162 153 0 0 0
SMALL
GASTEIGER

@<TRIPOS>ATOM
      1  N         -2.8160   39.0160   57.8290 N.3   140  GLY140     -0.1210
      2  CA        -1.5080   38.3970   57.9330 C.3   140  GLY140      0.1956
      3  C         -1.3510   37.1930   57.0240 C.2   140  GLY140      0.2612
      4  O         -0.2400   36.7970   56.6920 O.2   140  GLY140     -0.2717
      5  N         -2.4690   36.6070   56.6220 N.am  141  LEU141     -0.1965
      6  CA        -2.4400   35.4440   55.7500 C.3   141  LEU141      0.1728
      7  C         -2.2280   35.8590   54.3040 C.2   141  LEU141      0.2616
      8  O         -2.4630   37.0040   53.9390 O.2   141  LEU141     -0.2715
      9  CB        -3.7580   34.6680   55.8670 C.3   141  LEU141      0.0311
     10  CG        -3.9690   33.7130   57.0460 C.3   141  LEU141      0.0022
     11  CD1       -3.3290   34.2500   58.3000 C.3   141  LEU141      0.0001
     12  CD2       -5.4580   33.4910   57.2400 C.3   141  LEU141      0.0001
     13  N         -1.7700   34.9230   53.4870 N.am  142  SER142     -0.1950
     14  CA        -1.5650   35.1780   52.0700 C.3   142  SER142      0.1924
     15  C         -2.9010   34.8450   51.4250 C.2   142  SER142      0.2314
     16  O         -3.8190   34.3890   52.1010 O.2   142  SER142     -0.2863
     17  CB        -0.4950   34.2470   51.5030 C.3   142  SER142      0.2116
     18  OG        -1.0260   32.9510   51.2910 O.3   142  SER142     -0.2180
     19  N         -3.3040   31.0360   51.7540 N.3   145  GLN145     -0.1245
     20  CA        -3.5310   30.6850   53.1510 C.3   145  GLN145      0.1566
     21  C         -4.9310   31.0480   53.6040 C.2   145  GLN145      0.2260
     22  O         -5.5910   30.2640   54.2850 O.2   145  GLN145     -0.2867
     23  CB        -2.5240   31.3940   54.0650 C.3   145  GLN145      0.0367
     24  CG        -1.0790   31.0150   53.8310 C.3   145  GLN145      0.0905
     25  CD        -0.1420   31.7270   54.7820 C.2   145  GLN145      0.2608
     26  OE1       -0.1450   32.9550   54.8750 O.2   145  GLN145     -0.2717
     27  NE2        0.6750   30.9580   55.4900 N.am  145  GLN145     -0.0878
     28  N          7.6400   22.2880   52.5760 N.3   164  PRO164     -0.2102
     29  CA         8.0400   22.8110   53.8740 C.3   164  PRO164      0.1504
     30  C          8.2450   24.3110   53.8190 C.2   164  PRO164      0.2576
     31  O          8.6530   24.8450   52.7870 O.2   164  PRO164     -0.2718
     32  CB         9.3330   22.0630   54.1530 C.3   164  PRO164      0.0282
     33  CG         9.9040   21.8560   52.7820 C.3   164  PRO164      0.0208
     34  CD         8.7000   21.4430   51.9950 C.3   164  PRO164      0.0893
     35  N          7.9460   24.9800   54.9310 N.am  165  GLY165     -0.1943
     36  CA         8.1360   26.4190   55.0260 C.3   165  GLY165      0.2014
     37  C          7.1800   27.3220   54.2670 C.2   165  GLY165      0.2640
     38  O          7.4760   28.4970   54.0500 O.2   165  GLY165     -0.2714
     39  N          6.0340   26.7880   53.8630 N.am  166  THR166     -0.1936
     40  CA         5.0640   27.5850   53.1300 C.3   166  THR166      0.2028
     41  C          3.9930   28.1530   54.0580 C.2   166  THR166      0.2643
     42  O          3.0300   28.7870   53.6060 O.2   166  THR166     -0.2714
     43  CB         4.4140   26.7640   52.0190 C.3   166  THR166      0.1808
     44  OG1        3.8420   25.5770   52.5750 O.3   166  THR166     -0.2208
     45  CG2        5.4480   26.3750   50.9840 C.3   166  THR166      0.0379
     46  N          4.1750   27.9250   55.3580 N.am  167  GLY167     -0.1939
     47  CA         3.2530   28.4520   56.3480 C.3   167  GLY167      0.2014
     48  C          1.9310   27.7270   56.5350 C.2   167  GLY167      0.2639
     49  O          0.9210   28.3650   56.8400 O.2   167  GLY167     -0.2714
     50  N          1.9200   26.4070   56.3580 N.am  168  LYS168     -0.1963
     51  CA         0.6880   25.6480   56.5450 C.3   168  LYS168      0.1728
     52  C          0.3000   25.6670   58.0250 C.2   168  LYS168      0.2617
     53  O         -0.8080   26.0900   58.3850 O.2   168  LYS168     -0.2715
     54  CB         0.8720   24.2050   56.0800 C.3   168  LYS168      0.0311
     55  CG         1.2700   24.0630   54.6090 C.3   168  LYS168      0.0038
     56  CD         1.3550   22.6020   54.1910 C.3   168  LYS168      0.0206
     57  CE         2.4020   21.8600   55.0000 C.3   168  LYS168      0.1093
     58  NZ         3.7650   22.3440   54.6750 N.3   168  LYS168     -0.1314
     59  N          1.2170   25.2340   58.8880 N.am  169  SER169     -0.1936
     60  CA         0.9370   25.2050   60.3250 C.3   169  SER169      0.2055
     61  C          0.5640   26.5830   60.8810 C.2   169  SER169      0.2643
     62  O         -0.2520   26.6940   61.8070 O.2   169  SER169     -0.2714
     63  CB         2.1420   24.6520   61.0780 C.3   169  SER169      0.2130
     64  OG         2.4600   23.3620   60.5940 O.3   169  SER169     -0.2179
     65  N          1.1690   27.6240   60.3120 N.am  170  THR170     -0.1950
     66  CA         0.9140   28.9950   60.7310 C.3   170  THR170      0.1897
     67  C         -0.5170   29.3870   60.3790 C.2   170  THR170      0.2313
     68  O         -1.1940   30.0800   61.1370 O.2   170  THR170     -0.2863
     69  CB         1.8900   29.9650   60.0300 C.3   170  THR170      0.1794
     70  OG1        3.1870   29.8520   60.6330 O.3   170  THR170     -0.2208
     71  CG2        1.3960   31.4020   60.1350 C.3   170  THR170      0.0378
     72  N          2.8730   27.5890   67.6990 N.3   202  VAL202     -0.1245
     73  CA         2.4310   28.4660   66.6140 C.3   202  VAL202      0.1561
     74  C          0.9500   28.7820   66.6900 C.2   202  VAL202      0.2260
     75  O          0.4710   29.7290   66.0670 O.2   202  VAL202     -0.2867
     76  CB         2.6830   27.8400   65.2120 C.3   202  VAL202      0.0252
     77  CG1        4.0990   27.3250   65.1060 C.3   202  VAL202      0.0019
     78  CG2        1.6800   26.7290   64.9440 C.3   202  VAL202      0.0019
     79  N         -1.9180   18.2330   62.2560 N.3   237  ASP237     -0.1225
     80  CA        -0.7680   18.6940   61.5100 C.3   237  ASP237      0.1805
     81  C          0.2030   17.5250   61.3220 C.2   237  ASP237      0.2597
     82  O          0.1090   16.5220   62.0390 O.2   237  ASP237     -0.2718
     83  CB        -0.1140   19.8140   62.3120 C.3   237  ASP237      0.1424
     84  CG         0.8130   20.6860   61.4790 C.2   237  ASP237      0.3668
     85  OD1        1.2660   21.7130   62.0150 O.co2 237  ASP237     -0.2456
     86  OD2        1.0990   20.3650   60.3030 O.co2 237  ASP237     -0.2456
     87  N          1.1210   17.6410   60.3610 N.am  238  GLU238     -0.1979
     88  CA         2.1040   16.5920   60.1060 C.3   238  GLU238      0.1602
     89  C          1.4250   15.2860   59.7230 C.2   238  GLU238      0.2287
     90  O          1.9240   14.1940   60.0050 O.2   238  GLU238     -0.2864
     91  CB         2.9590   16.3770   61.3530 C.3   238  GLU238      0.0415
     92  CG         4.4340   16.6580   61.1420 C.3   238  GLU238      0.1163
     93  CD         4.6800   18.0310   60.5460 C.2   238  GLU238      0.3649
     94  OE1        4.4260   19.0380   61.2400 O.co2 238  GLU238     -0.2457
     95  OE2        5.1220   18.0990   59.3730 O.co2 238  GLU238     -0.2457
     96  N          7.4910   14.8530   52.8560 N.3   268  GLN268     -0.1245
     97  CA         8.2900   14.7260   54.0650 C.3   268  GLN268      0.1566
     98  C          8.2020   13.2840   54.5580 C.2   268  GLN268      0.2260
     99  O          7.9660   12.3880   53.7470 O.2   268  GLN268     -0.2867
    100  CB         7.8460   15.7570   55.1140 C.3   268  GLN268      0.0367
    101  CG         8.2110   17.2060   54.6720 C.3   268  GLN268      0.0905
    102  CD         7.6970   18.3220   55.5950 C.2   268  GLN268      0.2608
    103  OE1        7.2470   19.3650   55.1140 O.2   268  GLN268     -0.2717
    104  NE2        7.7780   18.1150   56.9120 N.am  268  GLN268     -0.0878
    105  N          8.3170   30.8640   52.9670 N.3   294  TYR294     -0.1227
    106  CA         8.6340   31.9480   53.8870 C.3   294  TYR294      0.1736
    107  C          9.7580   31.5400   54.8250 C.2   294  TYR294      0.2595
    108  O         10.4810   32.3950   55.3350 O.2   294  TYR294     -0.2718
    109  CB         7.4280   32.3350   54.7460 C.3   294  TYR294      0.0548
    110  CG         6.2170   32.7960   53.9760 C.ar  294  TYR294     -0.0200
    111  CD1        5.1840   31.9110   53.6680 C.ar  294  TYR294     -0.0009
    112  CD2        6.1060   34.1130   53.5440 C.ar  294  TYR294     -0.0009
    113  CE1        4.0720   32.3270   52.9490 C.ar  294  TYR294      0.0417
    114  CE2        5.0040   34.5400   52.8210 C.ar  294  TYR294      0.0417
    115  CZ         3.9920   33.6390   52.5250 C.ar  294  TYR294      0.1957
    116  OH         2.9130   34.0390   51.7800 O.3   294  TYR294     -0.2866
    117  N          9.9090   30.2390   55.0630 N.am  295  ARG295     -0.1980
    118  CA        10.9410   29.7850   55.9840 C.3   295  ARG295      0.1597
    119  C         12.2990   30.4030   55.7060 C.2   295  ARG295      0.2287
    120  O         12.8360   31.1530   56.5230 O.2   295  ARG295     -0.2864
    121  CB        11.0930   28.2690   55.9420 C.3   295  ARG295      0.0334
    122  CG        12.0230   27.7510   57.0450 C.3   295  ARG295      0.0492
    123  CD        11.2340   26.9590   58.0790 C.3   295  ARG295      0.2205
    124  NE        10.9950   25.6060   57.5980 N.pl3 295  ARG295     -0.0865
    125  CZ        10.0280   24.7990   58.0230 C.cat 295  ARG295      0.5346
    126  NH1        9.1680   25.1940   58.9520 N.pl3 295  ARG295      0.1354
    127  NH2        9.9410   23.5740   57.5160 N.pl3 295  ARG295      0.1354
    128  N          8.2630   19.3390   61.7930 N.3   452  GLY452     -0.1225
    129  CA         7.3080   20.2340   62.4200 C.3   452  GLY452      0.1811
    130  C          7.9950   21.3850   63.1180 C.2   452  GLY452      0.2280
    131  O          7.3760   22.3810   63.4760 O.2   452  GLY452     -0.2866
    132  N         11.5480   24.0840   63.3460 N.3   454  GLU454     -0.1245
    133  CA        12.4780   24.8200   62.5070 C.3   454  GLU454      0.1567
    134  C         13.4470   25.5170   63.4230 C.2   454  GLU454      0.2260
    135  O         13.1510   25.7540   64.5920 O.2   454  GLU454     -0.2867
    136  CB        11.7580   25.8430   61.6120 C.3   454  GLU454      0.0388
    137  CG        10.9190   26.8750   62.3380 C.3   454  GLU454      0.1160
    138  CD        10.3440   27.9510   61.4010 C.2   454  GLU454      0.3649
    139  OE1        9.8560   27.6000   60.3070 O.co2 454  GLU454     -0.2457
    140  OE2       10.3630   29.1530   61.7600 O.co2 454  GLU454     -0.2457
    141  N         14.4790   21.9320   57.6500 N.3   481  ARG481     -0.1245
    142  CA        14.1830   22.3590   59.0220 C.3   481  ARG481      0.1563
    143  C         14.8920   23.6990   59.2650 C.2   481  ARG481      0.2260
    144  O         14.6180   24.3970   60.2300 O.2   481  ARG481     -0.2867
    145  CB        14.7190   21.3630   60.0590 C.3   481  ARG481      0.0307
    146  CG        14.0770   19.9820   60.0770 C.3   481  ARG481      0.0489
    147  CD        12.5720   20.0460   60.0910 C.3   481  ARG481      0.2205
    148  NE        12.0570   20.1030   58.7360 N.pl3 481  ARG481     -0.0865
    149  CZ        10.8600   20.5610   58.4240 C.cat 481  ARG481      0.5346
    150  NH1       10.0680   21.0060   59.3840 N.pl3 481  ARG481      0.1354
    151  NH2       10.4590   20.5670   57.1650 N.pl3 481  ARG481      0.1354
    152  N         16.1060   27.5950   58.7040 N.3   483  ARG483     -0.1245
    153  CA        15.6150   28.9110   58.2840 C.3   483  ARG483      0.1563
    154  C         16.7020   29.7050   57.5750 C.2   483  ARG483      0.2260
    155  O         16.4510   30.3100   56.5380 O.2   483  ARG483     -0.2867
    156  CB        15.1440   29.7430   59.4870 C.3   483  ARG483      0.0307
    157  CG        13.6260   29.7440   59.7230 C.3   483  ARG483      0.0489
    158  CD        13.1540   31.0340   60.4280 C.3   483  ARG483      0.2205
    159  NE        13.8490   31.2680   61.6940 N.pl3 483  ARG483     -0.0865
    160  CZ        13.8250   30.4310   62.7310 C.cat 483  ARG483      0.5346
    161  NH1       14.4870   30.7220   63.8470 N.pl3 483  ARG483      0.1354
    162  NH2       13.1380   29.3000   62.6570 N.pl3 483  ARG483      0.1354
@<TRIPOS>BOND
     1    45    43    1
     2    18    17    1
     3    15    14    1
     4    15    16    2
     5    17    14    1
     6    19    20    1
     7   116   115    1
     8    34    28    1
     9    34    33    1
    10    43    44    1
    11    43    40    1
    12    14    13    1
    13   115   114   ar
    14   115   113   ar
    15    28    29    1
    16    33    32    1
    17    31    30    2
    18   114   112   ar
    19    96    97    1
    20   113   111   ar
    21   105   106    1
    22    40    39    1
    23    40    41    1
    24    20    21    1
    25    20    23    1
    26    13     7   am
    27   112   110   ar
    28    21    22    2
    29    42    41    2
    30   111   110   ar
    31    99    98    2
    32    30    29    1
    33    30    35   am
    34    24    23    1
    35    24    25    1
    36    39    37   am
    37    29    32    1
    38   106   109    1
    39   106   107    1
    40     8     7    2
    41   110   109    1
    42    38    37    2
    43    41    46   am
    44    97    98    1
    45    97   100    1
    46    56    55    1
    47    56    57    1
    48    37    36    1
    49     7     6    1
    50    55    54    1
    51   101   100    1
    52   101   102    1
    53    58    57    1
    54    25    26    2
    55    25    27   am
    56   107   117   am
    57   107   108    2
    58    35    36    1
    59   117   118    1
    60   103   102    2
    61    46    47    1
    62   102   104   am
    63   119   118    1
    64   119   120    2
    65     6     9    1
    66     6     5    1
    67     9    10    1
    68   121   118    1
    69   121   122    1
    70    54    51    1
    71    47    48    1
    72    50    48   am
    73    50    51    1
    74    48    49    2
    75   155   154    2
    76    51    52    1
    77     5     3   am
    78     4     3    2
    79     3     2    1
    80   122   123    1
    81    10    12    1
    82    10    11    1
    83   151   149    1
    84   127   125    1
    85   154   153    1
    86   124   125    2
    87   124   123    1
    88   141   142    1
    89     1     2    1
    90   125   126    1
    91    52    53    2
    92    52    59   am
    93   153   152    1
    94   153   156    1
    95   149   148    2
    96   149   150    1
    97   148   147    1
    98    59    60    1
    99   142   143    1
   100   142   145    1
   101   143   144    2
   102    95    93   ar
   103   156   157    1
   104   157   158    1
   105    89    90    2
   106    89    88    1
   107    69    71    1
   108    69    70    1
   109    69    66    1
   110   145   146    1
   111   146   147    1
   112    88    87    1
   113    88    91    1
   114    86    84   ar
   115   139   138   ar
   116    65    66    1
   117    65    61   am
   118    60    61    1
   119    60    63    1
   120    87    81   am
   121    67    66    1
   122    67    68    2
   123   158   159    1
   124    93    92    1
   125    93    94   ar
   126    64    63    1
   127    61    62    2
   128    92    91    1
   129    81    80    1
   130    81    82    2
   131   138   140   ar
   132   138   137    1
   133    84    85   ar
   134    84    83    1
   135    80    79    1
   136    80    83    1
   137   136   137    1
   138   136   133    1
   139   159   160    2
   140   128   129    1
   141   129   130    1
   142   133   132    1
   143   133   134    1
   144   162   160    1
   145   160   161    1
   146   130   131    2
   147   134   135    2
   148    78    76    1
   149    77    76    1
   150    76    73    1
   151    75    74    2
   152    73    74    1
   153    73    72    1
