@<TRIPOS>MOLECULE
tmp/3gpoC00.pdb
 193 189 0 0 0
SMALL
GASTEIGER

@<TRIPOS>ATOM
      1  N         33.8920   23.8320   18.1100 N.3     9  ASP9       -0.1225
      2  CA        33.8040   25.0420   17.3020 C.3     9  ASP9        0.1805
      3  C         34.7490   24.9340   16.0990 C.2     9  ASP9        0.2597
      4  O         35.9660   24.7770   16.2660 O.2     9  ASP9       -0.2718
      5  CB        34.1600   26.2620   18.1690 C.3     9  ASP9        0.1424
      6  CG        33.8810   27.5950   17.4750 C.2     9  ASP9        0.3668
      7  OD1       33.5770   27.6310   16.2580 O.co2   9  ASP9       -0.2456
      8  OD2       33.9690   28.6230   18.1710 O.co2   9  ASP9       -0.2456
      9  N         34.1870   25.0020   14.8920 N.am   10  ILE10      -0.1980
     10  CA        34.9930   24.8710   13.6740 C.3    10  ILE10       0.1595
     11  C         36.0390   26.0010   13.5590 C.2    10  ILE10       0.2287
     12  O         37.0550   25.8330   12.8890 O.2    10  ILE10      -0.2864
     13  CB        34.1280   24.7570   12.3780 C.3    10  ILE10       0.0276
     14  CG1       34.9820   24.2930   11.1810 C.3    10  ILE10       0.0022
     15  CG2       33.4360   26.0720   12.0800 C.3    10  ILE10       0.0022
     16  CD1       34.1560   24.0070    9.8890 C.3    10  ILE10       0.0001
     17  N         29.9600   27.9040    6.1800 N.3    21  ALA21      -0.1231
     18  CA        28.5810   27.7460    5.6930 C.3    21  ALA21       0.1694
     19  C         28.0250   29.1480    5.4560 C.2    21  ALA21       0.2592
     20  O         27.4300   29.7800    6.3490 O.2    21  ALA21      -0.2718
     21  CB        27.7260   26.9540    6.6930 C.3    21  ALA21       0.0304
     22  N         28.2630   29.6430    4.2460 N.am   22  ALA22      -0.1966
     23  CA        28.1170   31.0600    3.9580 C.3    22  ALA22       0.1728
     24  C         26.7250   31.3980    3.4320 C.2    22  ALA22       0.2616
     25  O         25.9090   30.4920    3.1970 O.2    22  ALA22      -0.2715
     26  CB        29.1940   31.5100    2.9580 C.3    22  ALA22       0.0334
     27  N         26.4760   32.7000    3.2770 N.am   23  ASN23      -0.1972
     28  CA        25.3030   33.2170    2.5810 C.3    23  ASN23       0.1688
     29  C         25.6920   33.8720    1.2380 C.2    23  ASN23       0.2292
     30  O         26.8600   34.2300    1.0470 O.2    23  ASN23      -0.2864
     31  CB        24.5070   34.1640    3.4950 C.3    23  ASN23       0.1181
     32  CG        25.2710   35.4220    3.8720 C.2    23  ASN23       0.2629
     33  OD1       25.4530   36.3320    3.0520 O.2    23  ASN23      -0.2716
     34  ND2       25.6810   35.5010    5.1350 N.am   23  ASN23      -0.0877
     35  N         25.4390   36.7280   -0.2000 N.3    25  ARG25      -0.1245
     36  CA        25.8900   38.1150   -0.2370 C.3    25  ARG25       0.1563
     37  C         27.2050   38.2740    0.5330 C.2    25  ARG25       0.2260
     38  O         27.7590   39.3830    0.6250 O.2    25  ARG25      -0.2867
     39  CB        24.8070   39.0460    0.3360 C.3    25  ARG25       0.0307
     40  CG        23.4550   39.0440   -0.4160 C.3    25  ARG25       0.0489
     41  CD        22.6360   37.7320   -0.2120 C.3    25  ARG25       0.2205
     42  NE        22.4830   37.3690    1.2060 N.pl3  25  ARG25      -0.0865
     43  CZ        21.5200   36.5910    1.7050 C.cat  25  ARG25       0.5346
     44  NH1       20.5820   36.0530    0.9210 N.pl3  25  ARG25       0.1354
     45  NH2       21.4870   36.3610    3.0120 N.pl3  25  ARG25       0.1354
     46  N         26.9660   36.1860    9.5250 N.3    29  GLY29      -0.1210
     47  CA        25.6600   35.6080    9.8200 C.3    29  GLY29       0.1956
     48  C         25.5710   35.0260   11.2100 C.2    29  GLY29       0.2612
     49  O         26.0920   35.5980   12.1750 O.2    29  GLY29      -0.2717
     50  N         24.8740   33.8990   11.3160 N.am   30  ASP30      -0.1959
     51  CA        24.7930   33.1550   12.5650 C.3    30  ASP30       0.1840
     52  C         25.6390   31.8800   12.4160 C.2    30  ASP30       0.2623
     53  O         26.3120   31.6790   11.3770 O.2    30  ASP30      -0.2715
     54  CB        23.3360   32.7550   12.8600 C.3    30  ASP30       0.1450
     55  CG        22.4110   33.9480   13.1230 C.2    30  ASP30       0.3671
     56  OD1       21.2320   33.6730   13.4440 O.co2  30  ASP30      -0.2456
     57  OD2       22.8260   35.1300   13.0360 O.co2  30  ASP30      -0.2456
     58  N         25.5900   31.0200   13.4390 N.am   31  GLY31      -0.1940
     59  CA        26.1750   29.6800   13.3660 C.3    31  GLY31       0.2014
     60  C         27.6220   29.6680   12.9030 C.2    31  GLY31       0.2639
     61  O         28.4430   30.4570   13.3790 O.2    31  GLY31      -0.2714
     62  N         27.9380   28.7820   11.9620 N.am   32  VAL32      -0.1963
     63  CA        29.3190   28.6510   11.4720 C.3    32  VAL32       0.1727
     64  C         29.8180   29.9990   10.9700 C.2    32  VAL32       0.2616
     65  O         30.9240   30.4270   11.3050 O.2    32  VAL32      -0.2715
     66  CB        29.4400   27.5770   10.3520 C.3    32  VAL32       0.0290
     67  CG1       30.8400   27.6190    9.6850 C.3    32  VAL32       0.0023
     68  CG2       29.1610   26.2040   10.9260 C.3    32  VAL32       0.0023
     69  N         28.9710   30.6820   10.1980 N.am   33  CYS33      -0.1968
     70  CA        29.3610   31.9510    9.5940 C.3    33  CYS33       0.1712
     71  C         29.7810   33.0200   10.6150 C.2    33  CYS33       0.2296
     72  O         30.7230   33.7850   10.3560 O.2    33  CYS33      -0.2864
     73  CB        28.2800   32.4710    8.6440 C.3    33  CYS33       0.0983
     74  SG        28.8590   33.9390    7.7190 S.3    33  CYS33      -0.0798
     75  N         31.0150   32.3900   13.7510 N.3    35  ALA35      -0.1245
     76  CA        32.3060   31.9320   14.2770 C.3    35  ALA35       0.1562
     77  C         33.4620   32.2560   13.3120 C.2    35  ALA35       0.2260
     78  O         34.4940   32.8280   13.7080 O.2    35  ALA35      -0.2867
     79  CB        32.2420   30.4190   14.5850 C.3    35  ALA35       0.0290
     80  N         25.2490   26.7990    0.8220 N.3    68  GLY68      -0.1225
     81  CA        24.1450   25.8440    0.6570 C.3    68  GLY68       0.1811
     82  C         22.8350   26.5470    0.3360 C.2    68  GLY68       0.2280
     83  O         22.6940   27.7660    0.5630 O.2    68  GLY68      -0.2866
     84  N         31.8340   21.9790    7.8180 N.3   105  PRO105     -0.2102
     85  CA        30.5830   21.8040    8.5420 C.3   105  PRO105      0.1504
     86  C         29.5460   21.1340    7.6150 C.2   105  PRO105      0.2576
     87  O         29.7760   21.0060    6.3950 O.2   105  PRO105     -0.2718
     88  CB        30.1790   23.2430    8.8470 C.3   105  PRO105      0.0282
     89  CG        30.6360   23.9950    7.5990 C.3   105  PRO105      0.0208
     90  CD        31.8360   23.2440    7.0530 C.3   105  PRO105      0.0893
     91  N         28.4160   20.7060    8.1730 N.am  106  LEU106     -0.1966
     92  CA        27.3540   20.1180    7.3430 C.3   106  LEU106      0.1728
     93  C         26.4840   21.2530    6.8070 C.2   106  LEU106      0.2616
     94  O         25.6340   21.8030    7.5250 O.2   106  LEU106     -0.2715
     95  CB        26.5210   19.0920    8.1450 C.3   106  LEU106      0.0311
     96  CG        27.2910   17.8540    8.6270 C.3   106  LEU106      0.0022
     97  CD1       26.3480   16.8710    9.3640 C.3   106  LEU106      0.0001
     98  CD2       27.9990   17.1470    7.4700 C.3   106  LEU106      0.0001
     99  N         26.7170   21.6340    5.5550 N.am  107  LEU107     -0.1963
    100  CA        25.9680   22.7240    4.9270 C.3   107  LEU107      0.1728
    101  C         24.4340   22.4840    4.9520 C.2   107  LEU107      0.2617
    102  O         23.9840   21.3470    4.8780 O.2   107  LEU107     -0.2715
    103  CB        26.4540   22.9390    3.4820 C.3   107  LEU107      0.0311
    104  CG        27.9680   23.1210    3.2250 C.3   107  LEU107      0.0022
    105  CD1       28.2260   23.1240    1.6800 C.3   107  LEU107      0.0001
    106  CD2       28.4300   24.4560    3.8590 C.3   107  LEU107      0.0001
    107  N         23.6570   23.5540    5.1000 N.am  108  SER108     -0.1936
    108  CA        22.1900   23.5010    5.0750 C.3   108  SER108      0.2055
    109  C         21.5430   22.6740    6.1630 C.2   108  SER108      0.2644
    110  O         20.4010   22.2560    6.0100 O.2   108  SER108     -0.2714
    111  CB        21.6700   23.0490    3.6880 C.3   108  SER108      0.2130
    112  OG        22.0610   23.9850    2.7100 O.3   108  SER108     -0.2179
    113  N         22.2520   22.4360    7.2630 N.am  109  THR109     -0.1936
    114  CA        21.6390   21.7020    8.3780 C.3   109  THR109      0.2028
    115  C         21.2520   22.5760    9.5680 C.2   109  THR109      0.2643
    116  O         20.6790   22.0720   10.5320 O.2   109  THR109     -0.2714
    117  CB        22.5380   20.5620    8.8920 C.3   109  THR109      0.1808
    118  OG1       23.7730   21.1070    9.3760 O.3   109  THR109     -0.2208
    119  CG2       22.8090   19.5600    7.8040 C.3   109  THR109      0.0379
    120  N         21.5840   23.8710    9.5230 N.am  110  GLY110     -0.1939
    121  CA        21.2730   24.7750   10.6320 C.3   110  GLY110      0.2014
    122  C         20.1930   25.7530   10.2330 C.2   110  GLY110      0.2639
    123  O         19.0500   25.3500    9.9730 O.2   110  GLY110     -0.2714
    124  N         20.5510   27.0300   10.1170 N.am  111  VAL111     -0.1963
    125  CA        19.5370   28.0380    9.7630 C.3   111  VAL111      0.1727
    126  C         18.9130   27.8110    8.3560 C.2   111  VAL111      0.2616
    127  O         17.8050   28.2680    8.0930 O.2   111  VAL111     -0.2715
    128  CB        19.9780   29.5350   10.0000 C.3   111  VAL111      0.0290
    129  CG1       21.1080   29.6710   11.0460 C.3   111  VAL111      0.0023
    130  CG2       20.3540   30.2180    8.7180 C.3   111  VAL111      0.0023
    131  N         19.6110   27.0670    7.4930 N.am  112  TYR112     -0.1974
    132  CA        19.1430   26.7930    6.1340 C.3   112  TYR112      0.1639
    133  C         18.4160   25.4410    5.9830 C.2   112  TYR112      0.2290
    134  O         18.1120   25.0360    4.8640 O.2   112  TYR112     -0.2864
    135  CB        20.3300   26.8300    5.1590 C.3   112  TYR112      0.0560
    136  CG        20.7310   28.1950    4.6060 C.ar  112  TYR112     -0.0198
    137  CD1       20.1360   29.3730    5.0530 C.ar  112  TYR112     -0.0009
    138  CD2       21.7420   28.2930    3.6520 C.ar  112  TYR112     -0.0009
    139  CE1       20.5080   30.6270    4.5170 C.ar  112  TYR112      0.0417
    140  CE2       22.1350   29.5300    3.1240 C.ar  112  TYR112      0.0417
    141  CZ        21.5170   30.6890    3.5610 C.ar  112  TYR112      0.1957
    142  OH        21.9190   31.9050    3.0260 O.3   112  TYR112     -0.2866
    143  N         33.0640   19.0660   11.4270 N.3   139  TYR139     -0.1227
    144  CA        32.8130   19.7230   12.7130 C.3   139  TYR139      0.1736
    145  C         31.3180   19.8740   12.9630 C.2   139  TYR139      0.2596
    146  O         30.5710   20.3300   12.0840 O.2   139  TYR139     -0.2718
    147  CB        33.5280   21.0930   12.7840 C.3   139  TYR139      0.0548
    148  CG        35.0160   20.9430   12.9870 C.ar  139  TYR139     -0.0200
    149  CD1       35.6050   21.1420   14.2490 C.ar  139  TYR139     -0.0009
    150  CD2       35.8330   20.5620   11.9350 C.ar  139  TYR139     -0.0009
    151  CE1       36.9830   20.9750   14.4280 C.ar  139  TYR139      0.0417
    152  CE2       37.1980   20.3980   12.1080 C.ar  139  TYR139      0.0417
    153  CZ        37.7650   20.5890   13.3480 C.ar  139  TYR139      0.1957
    154  OH        39.1310   20.3990   13.4530 O.3   139  TYR139     -0.2866
    155  N         30.8820   19.4690   14.1570 N.am  140  CYS140     -0.1956
    156  CA        29.4940   19.6200   14.5850 C.3   140  CYS140      0.1843
    157  C         29.4380   20.1360   16.0450 C.2   140  CYS140      0.2625
    158  O         30.4840   20.3420   16.6870 O.2   140  CYS140     -0.2714
    159  CB        28.7580   18.2830   14.4530 C.3   140  CYS140      0.0997
    160  SG        29.4460   16.9420   15.4790 S.3   140  CYS140     -0.0797
    161  N         28.2300   20.3790   16.5520 N.am  141  ARG141     -0.1963
    162  CA        28.0610   20.9400   17.9050 C.3   141  ARG141      0.1729
    163  C         27.1910   20.0680   18.7870 C.2   141  ARG141      0.2616
    164  O         27.2190   20.2020   20.0040 O.2   141  ARG141     -0.2715
    165  CB        27.4670   22.3580   17.8730 C.3   141  ARG141      0.0348
    166  CG        28.2130   23.3800   17.0190 C.3   141  ARG141      0.0492
    167  CD        29.7200   23.4650   17.3150 C.3   141  ARG141      0.2205
    168  NE        30.0730   24.4040   18.3810 N.pl3 141  ARG141     -0.0865
    169  CZ        30.6060   24.0440   19.5460 C.cat 141  ARG141      0.5346
    170  NH1       30.8590   22.7600   19.8080 N.pl3 141  ARG141      0.1354
    171  NH2       30.8880   24.9700   20.4490 N.pl3 141  ARG141      0.1354
    172  N         26.4340   19.1740   18.1580 N.am  142  ASP142     -0.1971
    173  CA        25.4100   18.3650   18.8160 C.3   142  ASP142      0.1709
    174  C         25.9590   16.9730   19.0890 C.2   142  ASP142      0.2293
    175  O         26.5620   16.3510   18.2150 O.2   142  ASP142     -0.2864
    176  CB        24.1680   18.2850   17.9170 C.3   142  ASP142      0.1436
    177  CG        23.0210   17.5150   18.5490 C.2   142  ASP142      0.3671
    178  OD1       22.0640   18.1660   19.0280 O.co2 142  ASP142     -0.2456
    179  OD2       23.0650   16.2640   18.5470 O.co2 142  ASP142     -0.2456
    180  N         24.4150   14.1010   16.9210 N.3   145  TRP145     -0.1241
    181  CA        24.9070   14.2770   15.5680 C.3   145  TRP145      0.1605
    182  C         26.3340   13.7380   15.4240 C.2   145  TRP145      0.2264
    183  O         26.6250   13.0390   14.4590 O.2   145  TRP145     -0.2867
    184  CB        24.7830   15.7460   15.1430 C.3   145  TRP145      0.0550
    185  CG        23.3970   16.0640   14.6220 C.ar  145  TRP145      0.0003
    186  CD1       22.1960   15.7250   15.1970 C.ar  145  TRP145      0.0946
    187  CD2       23.0760   16.7890   13.4230 C.ar  145  TRP145      0.0152
    188  NE1       21.1480   16.1930   14.4260 N.ar  145  TRP145     -0.2442
    189  CE2       21.6610   16.8390   13.3290 C.ar  145  TRP145      0.0810
    190  CE3       23.8450   17.3950   12.4180 C.ar  145  TRP145      0.0012
    191  CZ2       21.0020   17.4830   12.2730 C.ar  145  TRP145      0.0191
    192  CZ3       23.1840   18.0270   11.3600 C.ar  145  TRP145      0.0001
    193  CH2       21.7790   18.0670   11.3020 C.ar  145  TRP145      0.0015
@<TRIPOS>BOND
     1    40    41    1
     2    40    39    1
     3    36    35    1
     4    36    39    1
     5    36    37    1
     6    41    42    1
     7    82    83    2
     8    82    81    1
     9    37    38    2
    10    81    80    1
    11    44    43    1
    12    30    29    2
    13    42    43    2
    14    29    28    1
    15   105   104    1
    16    43    45    1
    17    28    27    1
    18    28    31    1
    19   112   111    1
    20    26    23    1
    21   142   141    1
    22    33    32    2
    23   140   141   ar
    24   140   138   ar
    25    25    24    2
    26   104   103    1
    27   104   106    1
    28    27    24   am
    29    24    23    1
    30   103   100    1
    31    31    32    1
    32   141   139   ar
    33   138   136   ar
    34   111   108    1
    35    32    34   am
    36    23    22    1
    37    22    19   am
    38   139   137   ar
    39   136   137   ar
    40   136   135    1
    41   134   133    2
    42   102   101    2
    43   100   101    1
    44   100    99    1
    45   101   107   am
    46   108   107    1
    47   108   109    1
    48   135   132    1
    49    19    18    1
    50    19    20    2
    51    99    93   am
    52    18    17    1
    53    18    21    1
    54   133   132    1
    55   110   109    2
    56   132   131    1
    57   109   113   am
    58    87    86    2
    59    93    92    1
    60    93    94    2
    61    90    89    1
    62    90    84    1
    63   113   114    1
    64    92    95    1
    65    92    91    1
    66    98    96    1
    67   131   126   am
    68    89    88    1
    69    86    91   am
    70    86    85    1
    71    74    73    1
    72   119   117    1
    73    84    85    1
    74   127   126    2
    75    95    96    1
    76   126   125    1
    77   114   117    1
    78   114   115    1
    79    85    88    1
    80    96    97    1
    81    73    70    1
    82   130   128    1
    83   117   118    1
    84   120   115   am
    85   120   121    1
    86    46    47    1
    87   115   116    2
    88    70    69    1
    89    70    71    1
    90    67    66    1
    91   125   128    1
    92   125   124    1
    93    47    48    1
    94    16    14    1
    95   123   122    2
    96   128   129    1
    97   124   122   am
    98    69    64   am
    99   122   121    1
   100    66    68    1
   101    66    63    1
   102    72    71    2
   103    64    65    2
   104    64    63    1
   105    14    13    1
   106    48    50   am
   107    48    49    2
   108   193   192   ar
   109   193   191   ar
   110    50    51    1
   111   192   190   ar
   112    53    52    2
   113   143   144    1
   114    63    62    1
   115   150   152   ar
   116   150   148   ar
   117    62    60   am
   118    15    13    1
   119   146   145    2
   120   152   153   ar
   121   191   189   ar
   122    13    10    1
   123    52    51    1
   124    52    58   am
   125   190   187   ar
   126    51    54    1
   127   144   147    1
   128   144   145    1
   129   147   148    1
   130    54    55    1
   131    12    11    2
   132    60    59    1
   133    60    61    2
   134   145   155   am
   135   148   149   ar
   136    57    55   ar
   137    55    56   ar
   138    77    78    2
   139    77    76    1
   140   189   187   ar
   141   189   188   ar
   142   153   154    1
   143   153   151   ar
   144    59    58    1
   145   187   185   ar
   146    11    10    1
   147    10     9    1
   148    75    76    1
   149   155   156    1
   150   149   151   ar
   151    76    79    1
   152   188   186   ar
   153   159   156    1
   154   159   160    1
   155   183   182    2
   156   156   157    1
   157   185   184    1
   158   185   186   ar
   159     9     3   am
   160   184   181    1
   161   182   181    1
   162   181   180    1
   163   157   161   am
   164   157   158    2
   165     3     4    2
   166     3     2    1
   167     7     6   ar
   168   161   162    1
   169   166   167    1
   170   166   165    1
   171     2     1    1
   172     2     5    1
   173   167   168    1
   174     6     5    1
   175     6     8   ar
   176   165   162    1
   177   162   163    1
   178   176   177    1
   179   176   173    1
   180   172   163   am
   181   172   173    1
   182   175   174    2
   183   168   169    2
   184   179   177   ar
   185   177   178   ar
   186   163   164    2
   187   173   174    1
   188   169   170    1
   189   169   171    1
