@<TRIPOS>MOLECULE
tmp/3gpqB00.pdb
 158 154 0 0 0
SMALL
GASTEIGER

@<TRIPOS>ATOM
      1  N          0.1390   22.9040  -13.6140 N.3     9  MET9       -0.1230
      2  CA         1.4420   23.4650  -13.9780 C.3     9  MET9        0.1702
      3  C          2.3800   22.3210  -14.2940 C.2     9  MET9        0.2592
      4  O          2.0210   21.1630  -14.1390 O.2     9  MET9       -0.2718
      5  CB         2.0150   24.3150  -12.8330 C.3     9  MET9        0.0401
      6  CG         2.0430   23.5760  -11.4570 C.3     9  MET9        0.0596
      7  SD         2.9910   24.4560  -10.1770 S.3     9  MET9       -0.1393
      8  CE         4.6290   23.9950  -10.7520 C.3     9  MET9        0.0692
      9  N          3.5880   22.6600  -14.7020 N.am   10  ASP10      -0.1960
     10  CA         4.6080   21.6670  -15.0010 C.3    10  ASP10       0.1840
     11  C          5.0170   20.8660  -13.7740 C.2    10  ASP10       0.2621
     12  O          5.5240   21.4190  -12.8120 O.2    10  ASP10      -0.2715
     13  CB         5.8400   22.3400  -15.6250 C.3    10  ASP10       0.1450
     14  CG         6.7940   21.3390  -16.2540 C.2    10  ASP10       0.3671
     15  OD1        6.5630   20.0990  -16.1310 O.co2  10  ASP10      -0.2456
     16  OD2        7.7710   21.7850  -16.8880 O.co2  10  ASP10      -0.2456
     17  N          4.8190   19.5610  -13.8090 N.am   11  ILE11      -0.1977
     18  CA         5.2450   18.7200  -12.6890 C.3    11  ILE11       0.1596
     19  C          6.7710   18.7480  -12.4460 C.2    11  ILE11       0.2287
     20  O          7.2440   18.4810  -11.3400 O.2    11  ILE11      -0.2864
     21  CB         4.7500   17.2660  -12.8720 C.3    11  ILE11       0.0276
     22  CG1        4.7990   16.4960  -11.5460 C.3    11  ILE11       0.0022
     23  CG2        5.5300   16.5420  -13.9810 C.3    11  ILE11       0.0022
     24  CD1        4.1050   15.1180  -11.7020 C.3    11  ILE11       0.0001
     25  N          7.2880   10.9640  -24.2020 N.3    31  ASP31      -0.1225
     26  CA         6.4580   12.1500  -24.4110 C.3    31  ASP31       0.1805
     27  C          5.6820   12.4980  -23.1330 C.2    31  ASP31       0.2598
     28  O          5.5820   11.6740  -22.2270 O.2    31  ASP31      -0.2718
     29  CB         5.4730   11.8970  -25.5610 C.3    31  ASP31       0.1424
     30  CG         6.0630   12.1740  -26.9330 C.2    31  ASP31       0.3668
     31  OD1        5.2620   12.2200  -27.8930 O.co2  31  ASP31      -0.2456
     32  OD2        7.3000   12.3580  -27.0840 O.co2  31  ASP31      -0.2456
     33  N          5.1510   13.7140  -23.0520 N.am   32  GLY32      -0.1942
     34  CA         4.3440   14.1340  -21.9010 C.3    32  GLY32       0.2014
     35  C          5.1050   14.3100  -20.5950 C.2    32  GLY32       0.2638
     36  O          6.1570   14.9480  -20.5650 O.2    32  GLY32      -0.2714
     37  N          4.5840   13.7400  -19.5020 N.am   33  VAL33      -0.1977
     38  CA         5.2790   13.8630  -18.2290 C.3    33  VAL33       0.1596
     39  C          6.7440   13.4130  -18.3530 C.2    33  VAL33       0.2287
     40  O          7.6620   14.0900  -17.8540 O.2    33  VAL33      -0.2864
     41  CB         4.6190   13.0330  -17.0930 C.3    33  VAL33       0.0276
     42  CG1        5.5030   13.0310  -15.8810 C.3    33  VAL33       0.0022
     43  CG2        3.2390   13.5870  -16.7560 C.3    33  VAL33       0.0022
     44  N          8.8820   13.4010  -20.6990 N.3    35  LYS35      -0.1231
     45  CA         9.7350   14.3920  -21.3300 C.3    35  LYS35       0.1693
     46  C         10.2570   15.3760  -20.3110 C.2    35  LYS35       0.2591
     47  O         11.4220   15.6190  -20.2170 O.2    35  LYS35      -0.2718
     48  CB         8.9730   15.1490  -22.4090 C.3    35  LYS35       0.0285
     49  CG         9.5620   16.5070  -22.7340 C.3    35  LYS35       0.0035
     50  CD         8.5090   17.6270  -22.8120 C.3    35  LYS35       0.0206
     51  CE         8.0910   18.2020  -21.4330 C.3    35  LYS35       0.1093
     52  NZ         8.7220   19.4560  -21.0180 N.3    35  LYS35      -0.1314
     53  N          9.3350   15.9310  -19.5570 N.am   36  ALA36      -0.1980
     54  CA         9.6230   16.8920  -18.4960 C.3    36  ALA36       0.1597
     55  C         10.5260   16.2850  -17.4250 C.2    36  ALA36       0.2287
     56  O         11.4720   16.9170  -16.9690 O.2    36  ALA36      -0.2864
     57  CB         8.3080   17.3930  -17.8620 C.3    36  ALA36       0.0319
     58  N          1.1130   12.6970  -11.5570 N.3   107  PRO107     -0.2102
     59  CA         0.2860   12.9460  -12.7550 C.3   107  PRO107      0.1504
     60  C         -0.7230   11.8220  -12.8770 C.2   107  PRO107      0.2575
     61  O         -0.5510   10.7570  -12.2430 O.2   107  PRO107     -0.2718
     62  CB         1.2910   12.8530  -13.8970 C.3   107  PRO107      0.0282
     63  CG         2.2660   11.7220  -13.4050 C.3   107  PRO107      0.0208
     64  CD         2.2870   11.8490  -11.8650 C.3   107  PRO107      0.0893
     65  N         -1.7510   12.0220  -13.6930 N.am  108  LEU108     -0.1980
     66  CA        -2.7000   10.9380  -13.9350 C.3   108  LEU108      0.1596
     67  C         -2.1380    9.9350  -14.9500 C.2   108  LEU108      0.2287
     68  O         -1.9810   10.2570  -16.1330 O.2   108  LEU108     -0.2864
     69  CB        -4.0580   11.5040  -14.3380 C.3   108  LEU108      0.0297
     70  CG        -4.8010   12.2720  -13.2260 C.3   108  LEU108      0.0022
     71  CD1       -6.1130   12.8180  -13.7040 C.3   108  LEU108      0.0001
     72  CD2       -5.0470   11.3710  -12.0050 C.3   108  LEU108      0.0001
     73  N         -3.1440    8.4630  -19.0420 N.3   111  THR111     -0.1203
     74  CA        -3.8150    9.5110  -19.7800 C.3   111  THR111      0.1994
     75  C         -2.9530    9.9410  -20.9590 C.2   111  THR111      0.2618
     76  O         -1.8740    9.3840  -21.2040 O.2   111  THR111     -0.2717
     77  CB        -4.1870   10.7030  -18.8840 C.3   111  THR111      0.1784
     78  OG1       -3.0020   11.3090  -18.3570 O.3   111  THR111     -0.2211
     79  CG2       -5.1120   10.2570  -17.7480 C.3   111  THR111      0.0376
     80  N         -3.4510   10.9110  -21.7230 N.am  112  GLY112     -0.1942
     81  CA        -2.7570   11.4070  -22.9070 C.3   112  GLY112      0.2014
     82  C         -2.4140   10.3590  -23.9370 C.2   112  GLY112      0.2638
     83  O         -3.2800    9.6340  -24.3980 O.2   112  GLY112     -0.2714
     84  N         -1.1400   10.2960  -24.3090 N.am  113  VAL113     -0.1977
     85  CA        -0.6580    9.3390  -25.3040 C.3   113  VAL113      0.1596
     86  C         -0.8970    7.8620  -24.9420 C.2   113  VAL113      0.2287
     87  O         -0.8250    6.9750  -25.8020 O.2   113  VAL113     -0.2864
     88  CB         0.8620    9.5740  -25.6040 C.3   113  VAL113      0.0276
     89  CG1        1.0620   10.9610  -26.2710 C.3   113  VAL113      0.0022
     90  CG2        1.6910    9.4870  -24.3450 C.3   113  VAL113      0.0022
     91  N         -9.4460    7.5840  -25.2530 N.3   118  LYS118     -0.1231
     92  CA       -10.5060    7.9380  -24.3510 C.3   118  LYS118      0.1693
     93  C        -10.0690    8.8510  -23.2390 C.2   118  LYS118      0.2592
     94  O         -8.9350    8.8870  -22.8760 O.2   118  LYS118     -0.2718
     95  CB       -11.1010    6.7180  -23.7130 C.3   118  LYS118      0.0285
     96  CG       -11.6150    5.7320  -24.6450 C.3   118  LYS118      0.0035
     97  CD       -12.0260    4.5110  -23.9170 C.3   118  LYS118      0.0206
     98  CE       -13.2730    4.7280  -23.1350 C.3   118  LYS118      0.1093
     99  NZ       -14.0160    3.4590  -23.0570 N.3   118  LYS118     -0.1314
    100  N        -11.0240    9.5700  -22.6970 N.am  119  ASP119     -0.1974
    101  CA       -10.8400   10.4030  -21.5420 C.3   119  ASP119      0.1709
    102  C        -10.7670    9.5110  -20.3490 C.2   119  ASP119      0.2293
    103  O        -11.6960    8.8530  -20.0000 O.2   119  ASP119     -0.2864
    104  CB       -12.0130   11.3390  -21.3770 C.3   119  ASP119      0.1436
    105  CG       -11.7910   12.3680  -20.3240 C.2   119  ASP119      0.3671
    106  OD1      -11.6700   12.0100  -19.1680 O.co2 119  ASP119     -0.2456
    107  OD2      -11.7400   13.5380  -20.6610 O.co2 119  ASP119     -0.2456
    108  N         -0.8450   16.6200  -10.5850 N.3   142  TYR142     -0.1227
    109  CA        -0.5370   17.6680  -11.5500 C.3   142  TYR142      0.1736
    110  C         -1.2790   17.3880  -12.8430 C.2   142  TYR142      0.2596
    111  O         -1.4010   16.2220  -13.2370 O.2   142  TYR142     -0.2718
    112  CB         0.9780   17.7280  -11.8090 C.3   142  TYR142      0.0548
    113  CG         1.6990   18.4010  -10.6760 C.ar  142  TYR142     -0.0200
    114  CD1        2.1050   19.7320  -10.7750 C.ar  142  TYR142     -0.0009
    115  CD2        1.9140   17.7200   -9.4650 C.ar  142  TYR142     -0.0009
    116  CE1        2.7420   20.3760   -9.6850 C.ar  142  TYR142      0.0417
    117  CE2        2.5270   18.3410   -8.4130 C.ar  142  TYR142      0.0417
    118  CZ         2.9460   19.6560   -8.5310 C.ar  142  TYR142      0.1957
    119  OH         3.5400   20.2330   -7.4520 O.3   142  TYR142     -0.2866
    120  N         -1.7250   18.4740  -13.4920 N.am  143  CYS143     -0.1956
    121  CA        -2.3210   18.4670  -14.8420 C.3   143  CYS143      0.1843
    122  C         -1.9770   19.7790  -15.5740 C.2   143  CYS143      0.2625
    123  O         -1.3530   20.6690  -15.0040 O.2   143  CYS143     -0.2714
    124  CB        -3.8480   18.2680  -14.7490 C.3   143  CYS143      0.0997
    125  SG        -4.7120   19.6430  -13.9590 S.3   143  CYS143     -0.0797
    126  N         -2.3680   19.9000  -16.8370 N.am  144  ARG144     -0.1963
    127  CA        -2.0760   21.1220  -17.6110 C.3   144  ARG144      0.1729
    128  C         -3.3400   21.8050  -18.1300 C.2   144  ARG144      0.2616
    129  O         -3.3550   23.0180  -18.4220 O.2   144  ARG144     -0.2715
    130  CB        -1.1170   20.8130  -18.7730 C.3   144  ARG144      0.0348
    131  CG         0.3540   20.6780  -18.3740 C.3   144  ARG144      0.0492
    132  CD         0.9070   21.9870  -17.7600 C.3   144  ARG144      0.2205
    133  NE         2.2700   22.3900  -18.1660 N.pl3 144  ARG144     -0.0865
    134  CZ         3.1550   21.6560  -18.8490 C.cat 144  ARG144      0.5346
    135  NH1        4.3390   22.1720  -19.1390 N.pl3 144  ARG144      0.1354
    136  NH2        2.8780   20.4230  -19.2580 N.pl3 144  ARG144      0.1354
    137  N         -4.4090   21.0310  -18.2070 N.am  145  ASP145     -0.1971
    138  CA        -5.6950   21.4820  -18.7100 C.3   145  ASP145      0.1709
    139  C         -6.5960   22.1070  -17.6270 C.2   145  ASP145      0.2293
    140  O         -6.6840   21.6110  -16.4740 O.2   145  ASP145     -0.2864
    141  CB        -6.4040   20.2790  -19.3550 C.3   145  ASP145      0.1436
    142  CG        -7.7310   20.6590  -20.0040 C.2   145  ASP145      0.3671
    143  OD1       -7.7170   21.2150  -21.1320 O.co2 145  ASP145     -0.2456
    144  OD2       -8.7860   20.3900  -19.3940 O.co2 145  ASP145     -0.2456
    145  N         -9.6620   19.8620  -16.6110 N.3   148  TRP148     -0.1241
    146  CA        -9.2120   18.7510  -15.7800 C.3   148  TRP148      0.1605
    147  C         -8.8860   19.1980  -14.3640 C.2   148  TRP148      0.2264
    148  O         -9.2230   18.4940  -13.4190 O.2   148  TRP148     -0.2867
    149  CB        -8.0080   18.0540  -16.4050 C.3   148  TRP148      0.0550
    150  CG        -8.4190   16.9710  -17.3500 C.ar  148  TRP148      0.0003
    151  CD1       -9.5180   16.9650  -18.1710 C.ar  148  TRP148      0.0946
    152  CD2       -7.7320   15.7430  -17.5900 C.ar  148  TRP148      0.0152
    153  NE1       -9.5600   15.8050  -18.8950 N.ar  148  TRP148     -0.2442
    154  CE2       -8.4830   15.0280  -18.5600 C.ar  148  TRP148      0.0810
    155  CE3       -6.5630   15.1740  -17.0830 C.ar  148  TRP148      0.0012
    156  CZ2       -8.1080   13.7670  -19.0240 C.ar  148  TRP148      0.0191
    157  CZ3       -6.1820   13.9100  -17.5570 C.ar  148  TRP148      0.0001
    158  CH2       -6.9520   13.2300  -18.5240 C.ar  148  TRP148      0.0015
@<TRIPOS>BOND
     1    31    30   ar
     2    32    30   ar
     3    30    29    1
     4    89    88    1
     5    87    86    2
     6    88    85    1
     7    88    90    1
     8    29    26    1
     9    85    86    1
    10    85    84    1
    11    91    92    1
    12    96    97    1
    13    96    95    1
    14    26    25    1
    15    26    27    1
    16    83    82    2
    17    92    95    1
    18    92    93    1
    19    84    82   am
    20    82    81    1
    21    97    98    1
    22    93    94    2
    23    93   100   am
    24    98    99    1
    25    27    33   am
    26    27    28    2
    27    33    34    1
    28    81    80    1
    29    50    49    1
    30    50    51    1
    31    49    48    1
    32   100   101    1
    33    48    45    1
    34    34    35    1
    35    80    75   am
    36   101   104    1
    37   101   102    1
    38    51    52    1
    39   104   105    1
    40    45    44    1
    41    45    46    1
    42    76    75    2
    43   143   142   ar
    44    75    74    1
    45   107   105   ar
    46    35    36    2
    47    35    37   am
    48   102   103    2
    49   105   106   ar
    50    46    47    2
    51    46    53   am
    52   142   144   ar
    53   142   141    1
    54    74    73    1
    55    74    77    1
    56    53    54    1
    57    37    38    1
    58   141   138    1
    59   136   134    1
    60   135   134    1
    61   156   154   ar
    62   156   158   ar
    63   153   154   ar
    64   153   151   ar
    65    77    78    1
    66    77    79    1
    67   134   133    2
    68   130   131    1
    69   130   127    1
    70   138   137    1
    71   138   139    1
    72   154   152   ar
    73   158   157   ar
    74    54    57    1
    75    54    55    1
    76   129   128    2
    77   131   132    1
    78    39    38    1
    79    39    40    2
    80    38    41    1
    81   137   128   am
    82   151   150   ar
    83   133   132    1
    84   128   127    1
    85   139   140    2
    86   127   126    1
    87   152   150   ar
    88   152   155   ar
    89   157   155   ar
    90    55    56    2
    91   150   149    1
    92    41    43    1
    93    41    42    1
    94    16    14   ar
    95   126   122   am
    96   145   146    1
    97   149   146    1
    98    14    15   ar
    99    14    13    1
   100    68    67    2
   101   146   147    1
   102    13    10    1
   103   122   123    2
   104   122   121    1
   105    10     9    1
   106    10    11    1
   107    67    66    1
   108   121   124    1
   109   121   120    1
   110   124   125    1
   111     9     3   am
   112   147   148    2
   113    69    66    1
   114    69    70    1
   115     3     4    2
   116     3     2    1
   117    23    21    1
   118     2     1    1
   119     2     5    1
   120    66    65    1
   121    62    63    1
   122    62    59    1
   123    17    11   am
   124    17    18    1
   125    11    12    2
   126    71    70    1
   127    65    60   am
   128   120   110   am
   129    63    64    1
   130   111   110    2
   131    70    72    1
   132    60    59    1
   133    60    61    2
   134    21    18    1
   135    21    22    1
   136   110   109    1
   137     5     6    1
   138    59    58    1
   139    18    19    1
   140    19    20    2
   141    64    58    1
   142   112   109    1
   143   112   113    1
   144    24    22    1
   145   109   108    1
   146     6     7    1
   147   114   113   ar
   148   114   116   ar
   149     8     7    1
   150   113   115   ar
   151   116   118   ar
   152   115   117   ar
   153   118   117   ar
   154   118   119    1
