@<TRIPOS>MOLECULE
tmp/3gpqA00.pdb
 159 155 0 0 0
SMALL
GASTEIGER

@<TRIPOS>ATOM
      1  N         21.3610   41.3810   -7.1770 N.3     9  MET9       -0.1182
      2  CA        21.3110   39.9760   -7.5790 C.3     9  MET9        0.1917
      3  C         19.9020   39.6620   -8.0740 C.2     9  MET9        0.2635
      4  O         18.9800   40.4840   -7.9170 O.2     9  MET9       -0.2714
      5  CB        21.7560   39.0140   -6.4520 C.2     9  MET9        0.0083
      6  CG        20.8830   38.9900   -5.1920 C.2     9  MET9        0.0282
      7  SD        21.4000   37.8200   -3.8990 S.3     9  MET9       -0.1125
      8  CE        21.6800   36.2890   -4.7670 C.3     9  MET9        0.0742
      9  N         19.7580   38.5060   -8.7190 N.am   10  ASP10      -0.1957
     10  CA        18.4470   37.9650   -9.0690 C.3    10  ASP10       0.1840
     11  C         17.6140   37.8350   -7.8080 C.2    10  ASP10       0.2621
     12  O         17.9350   37.0150   -6.9590 O.2    10  ASP10      -0.2715
     13  CB        18.5980   36.5660   -9.6800 C.3    10  ASP10       0.1450
     14  CG        17.2920   36.0270  -10.2760 C.2    10  ASP10       0.3671
     15  OD1       16.1950   36.6200  -10.0600 O.co2  10  ASP10      -0.2456
     16  OD2       17.3730   34.9940  -10.9910 O.co2  10  ASP10      -0.2456
     17  N         16.5040   38.5680   -7.7350 N.am   11  ILE11      -0.1977
     18  CA        15.5500   38.4400   -6.6140 C.3    11  ILE11       0.1596
     19  C         15.0590   37.0200   -6.3620 C.2    11  ILE11       0.2287
     20  O         14.6010   36.7070   -5.2600 O.2    11  ILE11      -0.2864
     21  CB        14.3310   39.4150   -6.7410 C.3    11  ILE11       0.0276
     22  CG1       13.6680   39.6120   -5.3780 C.3    11  ILE11       0.0022
     23  CG2       13.2800   38.9480   -7.7870 C.3    11  ILE11       0.0022
     24  CD1       12.7700   40.8420   -5.2990 C.3    11  ILE11       0.0001
     25  N         10.6090   40.4160  -16.9480 N.3    32  GLY32      -0.1210
     26  CA        11.3210   41.0180  -15.8340 C.3    32  GLY32       0.1956
     27  C         11.2260   40.2200  -14.5530 C.2    32  GLY32       0.2611
     28  O         11.3810   38.9990  -14.5820 O.2    32  GLY32      -0.2717
     29  N         10.9900   40.9050  -13.4210 N.am   33  VAL33      -0.1979
     30  CA        10.8950   40.2260  -12.1250 C.3    33  VAL33       0.1595
     31  C          9.8750   39.1000  -12.1960 C.2    33  VAL33       0.2287
     32  O         10.1100   38.0050  -11.6950 O.2    33  VAL33      -0.2864
     33  CB        10.5060   41.2040  -10.9770 C.3    33  VAL33       0.0276
     34  CG1        9.9920   40.4530   -9.7070 C.3    33  VAL33       0.0022
     35  CG2       11.6850   42.0820  -10.6290 C.3    33  VAL33       0.0022
     36  N          8.9080   37.1320  -14.5660 N.3    35  LYS35      -0.1231
     37  CA         9.4500   35.9440  -15.1950 C.3    35  LYS35       0.1693
     38  C         10.3110   35.1450  -14.2610 C.2    35  LYS35       0.2591
     39  O         10.1430   33.9710  -14.1630 O.2    35  LYS35      -0.2718
     40  CB        10.2290   36.3030  -16.4390 C.3    35  LYS35       0.0285
     41  CG        11.4080   35.4490  -16.7060 C.3    35  LYS35       0.0035
     42  CD        12.7090   36.0930  -16.1420 C.3    35  LYS35       0.0206
     43  CE        13.7120   35.0380  -15.6180 C.3    35  LYS35       0.1093
     44  NZ        14.9830   35.6280  -15.2420 N.3    35  LYS35      -0.1314
     45  N         11.2230   35.8030  -13.5700 N.am   36  ALA36      -0.1980
     46  CA        12.1050   35.1290  -12.6260 C.3    36  ALA36       0.1597
     47  C         11.2570   34.5320  -11.4870 C.2    36  ALA36       0.2287
     48  O         11.4990   33.4170  -11.0240 O.2    36  ALA36      -0.2864
     49  CB        13.1700   36.1080  -12.0660 C.3    36  ALA36       0.0319
     50  N         11.4340   44.2020   -5.2450 N.3   107  PRO107     -0.2102
     51  CA        11.9410   44.9260   -6.3940 C.3   107  PRO107      0.1504
     52  C         11.2520   46.2800   -6.4950 C.2   107  PRO107      0.2575
     53  O         10.2380   46.5340   -5.8120 O.2   107  PRO107     -0.2718
     54  CB        11.5250   44.0270   -7.5410 C.3   107  PRO107      0.0282
     55  CG        10.2010   43.5240   -7.1270 C.3   107  PRO107      0.0208
     56  CD        10.2210   43.4380   -5.5940 C.3   107  PRO107      0.0893
     57  N         11.7810   47.1650   -7.3230 N.am  108  LEU108     -0.1980
     58  CA        11.1310   48.4440   -7.4630 C.3   108  LEU108      0.1596
     59  C         10.0320   48.2670   -8.4900 C.2   108  LEU108      0.2287
     60  O         10.2960   48.0190   -9.6760 O.2   108  LEU108     -0.2864
     61  CB        12.0980   49.5320   -7.8680 C.3   108  LEU108      0.0297
     62  CG        13.2320   49.8290   -6.8890 C.3   108  LEU108      0.0022
     63  CD1       14.1400   50.8490   -7.5700 C.3   108  LEU108      0.0001
     64  CD2       12.7230   50.3040   -5.5420 C.3   108  LEU108      0.0001
     65  N          9.0100   49.7480  -12.6020 N.3   111  THR111     -0.1203
     66  CA        10.2160   50.0720  -13.3160 C.3   111  THR111      0.1994
     67  C         10.2880   49.0900  -14.4860 C.2   111  THR111      0.2618
     68  O          9.3780   48.2570  -14.6850 O.2   111  THR111     -0.2717
     69  CB        11.4880   50.0020  -12.4180 C.3   111  THR111      0.1784
     70  OG1       11.5980   48.7020  -11.8350 O.3   111  THR111     -0.2211
     71  CG2       11.4460   51.0380  -11.3250 C.3   111  THR111      0.0376
     72  N         11.3210   49.2110  -15.3060 N.am  112  GLY112     -0.1942
     73  CA        11.4670   48.2760  -16.4020 C.3   112  GLY112      0.2014
     74  C         10.3280   48.2570  -17.3920 C.2   112  GLY112      0.2638
     75  O         10.0150   49.2720  -18.0010 O.2   112  GLY112     -0.2714
     76  N          9.7230   47.0840  -17.5410 N.am  113  VAL113     -0.1977
     77  CA         8.6950   46.8370  -18.5460 C.3   113  VAL113      0.1596
     78  C          7.4350   47.6840  -18.3340 C.2   113  VAL113      0.2287
     79  O          6.6610   47.8900  -19.2650 O.2   113  VAL113     -0.2864
     80  CB         8.3080   45.3210  -18.5850 C.3   113  VAL113      0.0276
     81  CG1        9.4770   44.4780  -19.1320 C.3   113  VAL113      0.0022
     82  CG2        7.8760   44.8370  -17.2160 C.3   113  VAL113      0.0022
     83  N         10.6390   55.3200  -18.9630 N.3   118  LYS118     -0.1231
     84  CA        11.2170   56.3300  -18.0970 C.3   118  LYS118      0.1693
     85  C         11.9560   55.6710  -16.9300 C.2   118  LYS118      0.2592
     86  O         11.6050   54.5730  -16.4860 O.2   118  LYS118     -0.2718
     87  CB        10.1290   57.2770  -17.5930 C.3   118  LYS118      0.0285
     88  CG        10.6580   58.4750  -16.8150 C.3   118  LYS118      0.0035
     89  CD         9.5410   59.2630  -16.1400 C.3   118  LYS118      0.0206
     90  CE        10.0570   60.6350  -15.6660 C.3   118  LYS118      0.1093
     91  NZ        10.1720   60.7320  -14.1790 N.3   118  LYS118     -0.1314
     92  N         12.9940   56.3440  -16.4540 N.am  119  ASP119     -0.1974
     93  CA        13.7180   55.9090  -15.2690 C.3   119  ASP119      0.1709
     94  C         12.8790   56.2780  -14.0490 C.2   119  ASP119      0.2293
     95  O         12.7000   57.4670  -13.7460 O.2   119  ASP119     -0.2864
     96  CB        15.0900   56.6010  -15.2230 C.3   119  ASP119      0.1436
     97  CG        15.8890   56.2660  -13.9620 C.2   119  ASP119      0.3671
     98  OD1       15.3030   56.0580  -12.8620 O.co2 119  ASP119     -0.2456
     99  OD2       17.1330   56.2530  -14.0700 O.co2 119  ASP119     -0.2456
    100  N         15.9790   44.5570   -4.1620 N.3   142  TYR142     -0.1227
    101  CA        16.7700   43.9530   -5.2090 C.3   142  TYR142      0.1736
    102  C         16.7570   44.7200   -6.5080 C.2   142  TYR142      0.2596
    103  O         15.7710   45.2570   -6.9270 O.2   142  TYR142     -0.2718
    104  CB        16.3290   42.5230   -5.4400 C.3   142  TYR142      0.0548
    105  CG        16.7450   41.6080   -4.3550 C.ar  142  TYR142     -0.0200
    106  CD1       17.8170   40.7760   -4.4990 C.ar  142  TYR142     -0.0009
    107  CD2       16.0870   41.6030   -3.1660 C.ar  142  TYR142     -0.0009
    108  CE1       18.1800   39.9600   -3.4920 C.ar  142  TYR142      0.0417
    109  CE2       16.4510   40.8150   -2.1770 C.ar  142  TYR142      0.0417
    110  CZ        17.4940   39.9900   -2.3280 C.ar  142  TYR142      0.1957
    111  OH        17.8350   39.2010   -1.3130 O.3   142  TYR142     -0.2866
    112  N         17.9030   44.7530   -7.1530 N.am  143  CYS143     -0.1956
    113  CA        18.0240   45.3650   -8.4600 C.3   143  CYS143      0.1843
    114  C         19.1160   44.5890   -9.2020 C.2   143  CYS143      0.2625
    115  O         19.7040   43.6530   -8.6470 O.2   143  CYS143     -0.2714
    116  CB        18.3460   46.8470   -8.3230 C.3   143  CYS143      0.0997
    117  SG        20.0120   47.1650   -7.6460 S.3   143  CYS143     -0.0797
    118  N         19.3890   44.9450  -10.4520 N.am  144  ARG144     -0.1963
    119  CA        20.3370   44.1530  -11.2560 C.3   144  ARG144      0.1729
    120  C         21.4840   44.9880  -11.8280 C.2   144  ARG144      0.2616
    121  O         22.5500   44.4620  -12.2030 O.2   144  ARG144     -0.2715
    122  CB        19.5830   43.4860  -12.3970 C.3   144  ARG144      0.0348
    123  CG        19.8810   42.0310  -12.5660 C.3   144  ARG144      0.0492
    124  CD        18.9550   41.1740  -11.7300 C.3   144  ARG144      0.2205
    125  NE        18.4420   40.0760  -12.5470 N.pl3 144  ARG144     -0.0865
    126  CZ        19.0540   38.9100  -12.7260 C.cat 144  ARG144      0.5346
    127  NH1       20.2210   38.6570  -12.1380 N.pl3 144  ARG144      0.1354
    128  NH2       18.4960   37.9900  -13.5050 N.pl3 144  ARG144      0.1354
    129  N         21.2420   46.2920  -11.9090 N.am  145  ASP145     -0.1971
    130  CA        22.1880   47.2400  -12.4660 C.3   145  ASP145      0.1709
    131  C         23.0560   47.8500  -11.3580 C.2   145  ASP145      0.2293
    132  O         22.5650   48.1270  -10.2380 O.2   145  ASP145     -0.2864
    133  CB        21.4040   48.3250  -13.1930 C.3   145  ASP145      0.1436
    134  CG        22.2920   49.3710  -13.8000 C.2   145  ASP145      0.3671
    135  OD1       23.0650   49.0270  -14.7210 O.co2 145  ASP145     -0.2456
    136  OD2       22.2090   50.5390  -13.3510 O.co2 145  ASP145     -0.2456
    137  N         24.6110   50.8760  -11.3280 N.3   147  GLU147     -0.1231
    138  CA        24.3070   52.2920  -11.1040 C.3   147  GLU147      0.1699
    139  C         23.1140   52.4300  -10.1430 C.2   147  GLU147      0.2592
    140  O         23.1540   53.2180   -9.2000 O.2   147  GLU147     -0.2718
    141  CB        24.0180   52.9930  -12.4360 C.3   147  GLU147      0.0402
    142  CG        25.2120   53.0570  -13.4060 C.3   147  GLU147      0.1161
    143  CD        24.8680   52.6710  -14.8520 C.2   147  GLU147      0.3649
    144  OE1       24.2850   51.5850  -15.0680 O.co2 147  GLU147     -0.2457
    145  OE2       25.2130   53.4340  -15.7840 O.co2 147  GLU147     -0.2457
    146  N         22.0530   51.6600  -10.3970 N.am  148  TRP148     -0.1976
    147  CA        20.8750   51.6090   -9.5190 C.3   148  TRP148      0.1640
    148  C         21.2260   51.1740   -8.1050 C.2   148  TRP148      0.2290
    149  O         20.7660   51.7960   -7.1480 O.2   148  TRP148     -0.2864
    150  CB        19.7790   50.7030  -10.1210 C.3   148  TRP148      0.0576
    151  CG        18.8820   51.4270  -11.1140 C.ar  148  TRP148      0.0006
    152  CD1       19.2520   52.4230  -11.9910 C.ar  148  TRP148      0.0946
    153  CD2       17.4780   51.2050  -11.3380 C.ar  148  TRP148      0.0152
    154  NE1       18.1630   52.8300  -12.7340 N.ar  148  TRP148     -0.2442
    155  CE2       17.0620   52.1150  -12.3360 C.ar  148  TRP148      0.0810
    156  CE3       16.5340   50.3360  -10.7800 C.ar  148  TRP148      0.0012
    157  CZ2       15.7420   52.1580  -12.8100 C.ar  148  TRP148      0.0191
    158  CZ3       15.2180   50.3930  -11.2410 C.ar  148  TRP148      0.0001
    159  CH2       14.8400   51.2970  -12.2470 C.ar  148  TRP148      0.0015
@<TRIPOS>BOND
     1    79    78    2
     2    81    80    1
     3    83    84    1
     4    80    77    1
     5    80    82    1
     6    77    78    1
     7    77    76    1
     8    84    87    1
     9    84    85    1
    10    75    74    2
    11    87    88    1
    12    76    74   am
    13    74    73    1
    14    25    26    1
    15    85    86    2
    16    85    92   am
    17    88    89    1
    18    41    40    1
    19    41    42    1
    20    92    93    1
    21    40    37    1
    22    73    72    1
    23    42    43    1
    24    89    90    1
    25    26    27    1
    26   145   143   ar
    27    90    91    1
    28    43    44    1
    29    72    67   am
    30    93    96    1
    31    93    94    1
    32    96    97    1
    33    37    36    1
    34    37    38    1
    35   144   143   ar
    36   143   142    1
    37   135   134   ar
    38    68    67    2
    39    28    27    2
    40    27    29   am
    41    67    66    1
    42    38    39    2
    43    38    45   am
    44    99    97   ar
    45    94    95    2
    46    97    98   ar
    47   134   136   ar
    48   134   133    1
    49    45    46    1
    50   128   126    1
    51    29    30    1
    52   142   141    1
    53    66    65    1
    54    66    69    1
    55   133   130    1
    56   157   155   ar
    57   157   159   ar
    58   154   155   ar
    59   154   152   ar
    60   126   125    2
    61   126   127    1
    62    46    49    1
    63    46    47    1
    64   123   122    1
    65   123   124    1
    66   125   124    1
    67   130   129    1
    68   130   131    1
    69   141   138    1
    70    69    70    1
    71    69    71    1
    72   122   119    1
    73   155   153   ar
    74   159   158   ar
    75   121   120    2
    76    31    30    1
    77    31    32    2
    78    30    33    1
    79   152   151   ar
    80   129   120   am
    81   120   119    1
    82    47    48    2
    83   131   132    2
    84   153   151   ar
    85   153   156   ar
    86   137   138    1
    87   119   118    1
    88   158   156   ar
    89   151   150    1
    90   138   139    1
    91    16    14   ar
    92    33    35    1
    93    33    34    1
    94   118   114   am
    95   146   139   am
    96   146   147    1
    97    14    15   ar
    98    14    13    1
    99   139   140    2
   100   150   147    1
   101    13    10    1
   102    60    59    2
   103   147   148    1
   104   114   115    2
   105   114   113    1
   106    10     9    1
   107    10    11    1
   108     9     3   am
   109    59    58    1
   110   113   116    1
   111   113   112    1
   112   116   117    1
   113   148   149    2
   114     3     4    2
   115     3     2    1
   116    61    58    1
   117    61    62    1
   118    11    17   am
   119    11    12    2
   120    23    21    1
   121    17    18    1
   122     2     1    1
   123     2     5    1
   124    63    62    1
   125    54    55    1
   126    54    51    1
   127    58    57    1
   128    57    52   am
   129   112   102   am
   130    55    56    1
   131   103   102    2
   132    62    64    1
   133    21    18    1
   134    21    22    1
   135    18    19    1
   136   102   101    1
   137    52    51    1
   138    52    53    2
   139     5     6    2
   140    51    50    1
   141    19    20    2
   142    56    50    1
   143   104   101    1
   144   104   105    1
   145    22    24    1
   146   101   100    1
   147     6     7    1
   148     8     7    1
   149   106   105   ar
   150   106   108   ar
   151   105   107   ar
   152   108   110   ar
   153   107   109   ar
   154   110   109   ar
   155   110   111    1
