@<TRIPOS>MOLECULE
tmp/3gptY00.pdb
 107 101 0 0 0
SMALL
GASTEIGER

@<TRIPOS>ATOM
      1  N         56.6250 -151.9910    7.6760 N.3     1  THR1       -0.1218
      2  CA        56.8120 -153.1000    6.7050 C.3     1  THR1        0.1862
      3  C         56.2330 -152.8560    5.3400 C.2     1  THR1        0.2287
      4  O         55.1370 -152.3160    5.1920 O.2     1  THR1       -0.2866
      5  CB        56.1580 -154.3940    7.2010 C.3     1  THR1        0.1770
      6  OG1       56.9030 -154.8800    8.3110 O.3     1  THR1       -0.2211
      7  CG2       56.1450 -155.4520    6.1080 C.3     1  THR1        0.0375
      8  N         63.0970 -153.8360    7.8680 N.3    19  ARG19      -0.1231
      9  CA        62.9850 -153.1560    9.1550 C.3    19  ARG19       0.1694
     10  C         61.9990 -153.7930   10.1440 C.2    19  ARG19       0.2592
     11  O         60.9410 -154.3150    9.7590 O.2    19  ARG19      -0.2718
     12  CB        62.6040 -151.6880    8.9420 C.3    19  ARG19       0.0321
     13  CG        62.4370 -150.9270   10.2430 C.3    19  ARG19       0.0489
     14  CD        62.2720 -149.4580   10.0130 C.3    19  ARG19       0.2205
     15  NE        63.4660 -148.8920    9.4030 N.pl3  19  ARG19      -0.0865
     16  CZ        63.6190 -147.6060    9.1120 C.cat  19  ARG19       0.5346
     17  NH1       62.6450 -146.7440    9.3790 N.pl3  19  ARG19       0.1354
     18  NH2       64.7450 -147.1870    8.5460 N.pl3  19  ARG19       0.1354
     19  N         62.3670 -153.7530   11.4190 N.am   20  ALA20      -0.1966
     20  CA        61.5260 -154.2750   12.4880 C.3    20  ALA20       0.1728
     21  C         61.4150 -153.1550   13.5160 C.2    20  ALA20       0.2616
     22  O         62.4240 -152.5850   13.9270 O.2    20  ALA20      -0.2715
     23  CB        62.1590 -155.5060   13.1160 C.3    20  ALA20       0.0334
     24  N         60.1890 -152.8250   13.9100 N.am   21  THR21      -0.1951
     25  CA        59.9690 -151.7670   14.8860 C.3    21  THR21       0.1897
     26  C         58.9300 -152.1550   15.9230 C.2    21  THR21       0.2313
     27  O         58.0020 -152.9080   15.6460 O.2    21  THR21      -0.2863
     28  CB        59.4680 -150.4570   14.2250 C.3    21  THR21       0.1794
     29  OG1       58.2370 -150.7060   13.5360 O.3    21  THR21      -0.2208
     30  CG2       60.4870 -149.9120   13.2510 C.3    21  THR21       0.0378
     31  N         56.8390 -149.8190   18.2110 N.3    23  GLY23      -0.1225
     32  CA        56.5640 -148.4330   18.5310 C.3    23  GLY23       0.1811
     33  C         57.4700 -147.5830   17.6610 C.2    23  GLY23       0.2280
     34  O         57.4960 -147.7520   16.4440 O.2    23  GLY23      -0.2866
     35  N         66.2080 -157.5610    9.1870 N.3    31  VAL31      -0.1231
     36  CA        65.3310 -158.7090    9.3990 C.3    31  VAL31       0.1692
     37  C         64.9500 -159.3580    8.0670 C.2    31  VAL31       0.2592
     38  O         64.8870 -158.6780    7.0390 O.2    31  VAL31      -0.2718
     39  CB        64.0360 -158.2560   10.1370 C.3    31  VAL31       0.0266
     40  CG1       62.9730 -159.3210   10.0490 C.3    31  VAL31       0.0020
     41  CG2       64.3500 -157.9710   11.5860 C.3    31  VAL31       0.0020
     42  N         64.7150 -160.6660    8.0770 N.am   32  LYS32      -0.1966
     43  CA        64.2990 -161.3630    6.8610 C.3    32  LYS32       0.1728
     44  C         62.7790 -161.3600    6.8330 C.2    32  LYS32       0.2616
     45  O         62.1440 -161.6690    7.8350 O.2    32  LYS32      -0.2715
     46  CB        64.8040 -162.8090    6.8430 C.3    32  LYS32       0.0311
     47  CG        66.2540 -162.9500    6.3990 C.3    32  LYS32       0.0038
     48  CD        67.1670 -162.1400    7.3040 C.3    32  LYS32       0.0206
     49  CE        68.6450 -162.3570    7.0120 C.3    32  LYS32       0.1093
     50  NZ        69.4710 -161.6100    8.0240 N.3    32  LYS32      -0.1314
     51  N         62.1940 -160.9970    5.6970 N.am   33  LYS33      -0.1977
     52  CA        60.7430 -160.9610    5.5840 C.3    33  LYS33       0.1596
     53  C         60.2680 -161.8770    4.4780 C.2    33  LYS33       0.2287
     54  O         59.1240 -161.7960    4.0160 O.2    33  LYS33      -0.2864
     55  CB        60.2720 -159.5330    5.3430 C.3    33  LYS33       0.0298
     56  CG        60.5060 -158.6560    6.5420 C.3    33  LYS33       0.0038
     57  CD        59.9420 -157.2850    6.3430 C.3    33  LYS33       0.0206
     58  CE        60.1970 -156.4850    7.5820 C.3    33  LYS33       0.1093
     59  NZ        59.8290 -155.0320    7.4080 N.3    33  LYS33      -0.1314
     60  N         56.4770 -162.0370    4.7960 N.3    45  MET45      -0.1230
     61  CA        55.9870 -161.8510    6.1560 C.3    45  MET45       0.1702
     62  C         55.6620 -160.3900    6.5310 C.2    45  MET45       0.2592
     63  O         56.5180 -159.5240    6.4720 O.2    45  MET45      -0.2718
     64  CB        56.9990 -162.3880    7.1750 C.3    45  MET45       0.0401
     65  CG        57.6120 -163.7420    6.8720 C.3    45  MET45       0.0596
     66  SD        58.6000 -164.3660    8.2560 S.3    45  MET45      -0.1393
     67  CE        60.1430 -163.4330    8.1140 C.3    45  MET45       0.0692
     68  N         54.4210 -160.1420    6.9420 N.am   46  ALA46      -0.1966
     69  CA        53.9750 -158.8250    7.3830 C.3    46  ALA46       0.1728
     70  C         53.1080 -159.0580    8.6030 C.2    46  ALA46       0.2617
     71  O         52.4180 -160.0780    8.6870 O.2    46  ALA46      -0.2715
     72  CB        53.1850 -158.1110    6.3020 C.3    46  ALA46       0.0334
     73  N         53.1630 -158.1380    9.5660 N.am   47  GLY47      -0.1940
     74  CA        52.3760 -158.2940   10.7830 C.3    47  GLY47       0.2014
     75  C         53.2430 -158.8430   11.8980 C.2    47  GLY47       0.2639
     76  O         54.2510 -158.2380   12.2630 O.2    47  GLY47      -0.2714
     77  N         52.8610 -160.0000   12.4240 N.am   48  GLY48      -0.1939
     78  CA        53.6130 -160.6130   13.5020 C.3    48  GLY48       0.2014
     79  C         54.7540 -161.4720   13.0080 C.2    48  GLY48       0.2638
     80  O         54.5400 -162.4560   12.3000 O.2    48  GLY48      -0.2714
     81  N         55.9710 -161.0920   13.3850 N.am   49  ALA49      -0.1977
     82  CA        57.1770 -161.8130   12.9950 C.3    49  ALA49       0.1597
     83  C         57.1100 -163.2810   13.4030 C.2    49  ALA49       0.2287
     84  O         57.2850 -164.1790   12.5770 O.2    49  ALA49      -0.2864
     85  CB        58.3900 -161.1550   13.6330 C.3    49  ALA49       0.0319
     86  N         51.4910 -154.4280    4.3580 N.3   130  GLY130     -0.1210
     87  CA        52.2890 -153.7150    5.3400 C.3   130  GLY130      0.1956
     88  C         51.9760 -152.2310    5.4360 C.2   130  GLY130      0.2612
     89  O         51.2810 -151.6760    4.5830 O.2   130  GLY130     -0.2717
     90  N         52.4960 -151.5800    6.4740 N.am  131  SER131     -0.1952
     91  CA        52.2630 -150.1580    6.6720 C.3   131  SER131      0.1924
     92  C         52.7680 -149.3160    5.5060 C.2   131  SER131      0.2314
     93  O         52.4420 -148.1340    5.4010 O.2   131  SER131     -0.2863
     94  CB        52.9310 -149.6930    7.9570 C.3   131  SER131      0.2116
     95  OG        54.2780 -150.0990    7.9800 O.3   131  SER131     -0.2180
     96  N         57.9530 -146.9230    9.2910 N.3   170  TYR170     -0.1241
     97  CA        58.1390 -148.3070    9.7060 C.3   170  TYR170      0.1605
     98  C         58.7870 -149.1960    8.6390 C.2   170  TYR170      0.2264
     99  O         58.9440 -150.4010    8.8320 O.2   170  TYR170     -0.2867
    100  CB        56.8040 -148.9070   10.1650 C.3   170  TYR170      0.0534
    101  CG        56.1470 -148.1030   11.2570 C.ar  170  TYR170     -0.0201
    102  CD1       56.9180 -147.3660   12.1540 C.ar  170  TYR170     -0.0009
    103  CD2       54.7620 -148.0480   11.3790 C.ar  170  TYR170     -0.0009
    104  CE1       56.3370 -146.5870   13.1360 C.ar  170  TYR170      0.0417
    105  CE2       54.1640 -147.2700   12.3650 C.ar  170  TYR170      0.0417
    106  CZ        54.9620 -146.5370   13.2360 C.ar  170  TYR170      0.1957
    107  OH        54.3900 -145.7090   14.1800 O.3   170  TYR170     -0.2866
@<TRIPOS>BOND
     1    54    53    2
     2    86    87    1
     3    53    52    1
     4    89    88    2
     5    60    61    1
     6     4     3    2
     7     3     2    1
     8    87    88    1
     9    55    52    1
    10    55    56    1
    11    93    92    2
    12    88    90   am
    13    92    91    1
    14    52    51    1
    15    51    44   am
    16     7     5    1
    17    61    62    1
    18    61    64    1
    19    72    69    1
    20    57    56    1
    21    57    58    1
    22    47    46    1
    23    47    48    1
    24    63    62    2
    25    90    91    1
    26    62    68   am
    27    91    94    1
    28     2     5    1
    29     2     1    1
    30    44    43    1
    31    44    45    2
    32    46    43    1
    33    43    42    1
    34    65    64    1
    35    65    66    1
    36    68    69    1
    37    49    48    1
    38    49    50    1
    39    38    37    2
    40     5     6    1
    41    69    70    1
    42    59    58    1
    43     8     9    1
    44    94    95    1
    45    37    42   am
    46    37    36    1
    47    67    66    1
    48    18    16    1
    49    70    71    2
    50    70    73   am
    51    98    99    2
    52    98    97    1
    53    12     9    1
    54    12    13    1
    55    16    17    1
    56    16    15    2
    57     9    10    1
    58    35    36    1
    59    96    97    1
    60    36    39    1
    61    15    14    1
    62    73    74    1
    63    97   100    1
    64    11    10    2
    65    14    13    1
    66    40    39    1
    67    39    41    1
    68    10    19   am
    69   100   101    1
    70    74    75    1
    71   101   103   ar
    72   101   102   ar
    73   103   105   ar
    74    19    20    1
    75    75    76    2
    76    75    77   am
    77   102   104   ar
    78    80    79    2
    79   105   106   ar
    80    77    78    1
    81    20    23    1
    82    20    21    1
    83    84    83    2
    84    82    81    1
    85    82    83    1
    86    82    85    1
    87    79    81   am
    88    79    78    1
    89   104   106   ar
    90   106   107    1
    91    30    28    1
    92    21    24   am
    93    21    22    2
    94    29    28    1
    95    24    25    1
    96    28    25    1
    97    25    26    1
    98    27    26    2
    99    34    33    2
   100    33    32    1
   101    31    32    1
