@<TRIPOS>MOLECULE
tmp/3gpwH00.pdb
 111 103 0 0 0
SMALL
GASTEIGER

@<TRIPOS>ATOM
      1  N         64.5740 -140.0480   44.8640 N.3     1  THR1       -0.1218
      2  CA        65.0780 -138.8850   45.6680 C.3     1  THR1        0.1862
      3  C         65.1520 -139.1960   47.1320 C.2     1  THR1        0.2287
      4  O         64.3180 -139.9230   47.6590 O.2     1  THR1       -0.2866
      5  CB        64.1620 -137.6690   45.5360 C.3     1  THR1        0.1770
      6  OG1       64.2810 -137.1260   44.2140 O.3     1  THR1       -0.2211
      7  CG2       64.5630 -136.5770   46.5450 C.3     1  THR1        0.0375
      8  N         70.5820 -137.1160   42.1720 N.3    19  ARG19      -0.1231
      9  CA        70.0600 -137.7730   40.9740 C.3    19  ARG19       0.1694
     10  C         68.7260 -137.1960   40.5110 C.2    19  ARG19       0.2593
     11  O         67.8270 -136.9310   41.3110 O.2    19  ARG19      -0.2718
     12  CB        69.8890 -139.2800   41.1970 C.3    19  ARG19       0.0321
     13  CG        69.1710 -139.9920   40.0460 C.3    19  ARG19       0.0489
     14  CD        69.1960 -141.5030   40.1960 C.3    19  ARG19       0.2205
     15  NE        70.5540 -142.0430   40.1520 N.pl3  19  ARG19      -0.0865
     16  CZ        70.8450 -143.3370   40.2440 C.cat  19  ARG19       0.5346
     17  NH1       69.8700 -144.2320   40.3800 N.pl3  19  ARG19       0.1354
     18  NH2       72.1080 -143.7370   40.2220 N.pl3  19  ARG19       0.1354
     19  N         68.6070 -137.0140   39.2030 N.am   20  SER20      -0.1938
     20  CA        67.3900 -136.4900   38.5920 C.3    20  SER20       0.2055
     21  C         66.9840 -137.5290   37.5420 C.2    20  SER20       0.2643
     22  O         67.7950 -137.8910   36.6930 O.2    20  SER20      -0.2714
     23  CB        67.6920 -135.1490   37.9300 C.3    20  SER20       0.2130
     24  OG        66.5240 -134.3630   37.8480 O.3    20  SER20      -0.2179
     25  N         65.7520 -138.0230   37.5900 N.am   21  THR21      -0.1950
     26  CA        65.3540 -139.0420   36.6230 C.3    21  THR21       0.1897
     27  C         64.0640 -138.8000   35.8670 C.2    21  THR21       0.2313
     28  O         63.1480 -138.1480   36.3590 O.2    21  THR21      -0.2863
     29  CB        65.1680 -140.4160   37.2810 C.3    21  THR21       0.1794
     30  OG1       64.0100 -140.3800   38.1210 O.3    21  THR21      -0.2208
     31  CG2       66.3690 -140.7920   38.0960 C.3    21  THR21       0.0378
     32  N         61.5590 -141.3100   34.3790 N.3    23  GLY23      -0.1225
     33  CA        61.2800 -142.7250   34.2730 C.3    23  GLY23       0.1811
     34  C         62.5320 -143.4500   34.7380 C.2    23  GLY23       0.2280
     35  O         63.0590 -143.1210   35.7880 O.2    23  GLY23      -0.2866
     36  N         72.0850 -132.9150   39.9150 N.3    31  CYS31      -0.1221
     37  CA        71.1620 -131.8010   40.0440 C.3    31  CYS31       0.1808
     38  C         71.2970 -131.2800   41.4670 C.2    31  CYS31       0.2601
     39  O         71.9590 -131.8950   42.3000 O.2    31  CYS31      -0.2717
     40  CB        69.7250 -132.2500   39.8050 C.3    31  CYS31       0.0970
     41  SG        69.0270 -133.2040   41.1670 S.3    31  CYS31      -0.0800
     42  N         70.6760 -130.1460   41.7480 N.am   32  ALA32      -0.1965
     43  CA        70.7460 -129.5730   43.0810 C.3    32  ALA32       0.1728
     44  C         69.3490 -129.5180   43.6630 C.2    32  ALA32       0.2616
     45  O         68.4990 -128.7970   43.1590 O.2    32  ALA32      -0.2715
     46  CB        71.3450 -128.1780   43.0150 C.3    32  ALA32       0.0334
     47  N         69.1120 -130.2740   44.7280 N.am   33  LYS33      -0.1977
     48  CA        67.7880 -130.3020   45.3450 C.3    33  LYS33       0.1596
     49  C         67.6420 -129.3570   46.5260 C.2    33  LYS33       0.2287
     50  O         66.5580 -129.2160   47.0950 O.2    33  LYS33      -0.2864
     51  CB        67.4470 -131.7400   45.7410 C.3    33  LYS33       0.0298
     52  CG        67.5390 -132.6600   44.5380 C.3    33  LYS33       0.0038
     53  CD        67.1060 -134.0840   44.8010 C.3    33  LYS33       0.0206
     54  CE        67.4580 -134.9350   43.5880 C.3    33  LYS33       0.1093
     55  NZ        67.2460 -136.3820   43.8110 N.3    33  LYS33      -0.1314
     56  N         67.4700 -125.7090   47.7450 N.3    35  HIS35      -0.1241
     57  CA        67.2100 -124.3480   47.2950 C.3    35  HIS35       0.1621
     58  C         67.1120 -123.4550   48.5180 C.2    35  HIS35       0.2264
     59  O         66.8740 -123.9190   49.6280 O.2    35  HIS35      -0.2867
     60  CB        65.8880 -124.2540   46.5290 C.3    35  HIS35       0.0745
     61  CG        65.5800 -125.4550   45.6880 C.ar   35  HIS35       0.0817
     62  ND1       66.3270 -125.8030   44.5780 N.ar   35  HIS35      -0.2268
     63  CD2       64.5920 -126.3820   45.7870 C.ar   35  HIS35       0.1154
     64  CE1       65.8070 -126.8900   44.0290 C.ar   35  HIS35       0.1986
     65  NE2       64.7540 -127.2620   44.7420 N.ar   35  HIS35      -0.2212
     66  N         63.9980 -130.3680   48.1710 N.3    45  GLY45      -0.1210
     67  CA        62.8070 -130.7490   47.4390 C.3    45  GLY45       0.1956
     68  C         62.7410 -132.1460   46.8630 C.2    45  GLY45       0.2612
     69  O         63.7510 -132.7110   46.4430 O.2    45  GLY45      -0.2717
     70  N         61.5260 -132.6880   46.8430 N.am   46  ALA46      -0.1965
     71  CA        61.2420 -134.0130   46.3080 C.3    46  ALA46       0.1728
     72  C         59.8980 -133.9430   45.5820 C.2    46  ALA46       0.2617
     73  O         59.0400 -133.1200   45.9330 O.2    46  ALA46      -0.2715
     74  CB        61.1740 -135.0270   47.4340 C.3    46  ALA46       0.0334
     75  N         59.7140 -134.8050   44.5820 N.am   47  GLY47      -0.1940
     76  CA        58.4750 -134.8060   43.8190 C.3    47  GLY47       0.2014
     77  C         58.7180 -134.2360   42.4390 C.2    47  GLY47       0.2640
     78  O         59.7210 -134.5630   41.8130 O.2    47  GLY47      -0.2714
     79  N         57.8210 -133.3810   41.9620 N.am   48  THR48      -0.1936
     80  CA        57.9830 -132.7790   40.6430 C.3    48  THR48       0.2028
     81  C         58.9750 -131.6210   40.7280 C.2    48  THR48       0.2642
     82  O         58.6870 -130.5810   41.3070 O.2    48  THR48      -0.2714
     83  CB        56.6350 -132.2630   40.1010 C.3    48  THR48       0.1808
     84  OG1       55.6630 -133.3100   40.1780 O.3    48  THR48      -0.2208
     85  CG2       56.7710 -131.8180   38.6490 C.3    48  THR48       0.0379
     86  N         60.1470 -131.8180   40.1400 N.am   49  ALA49      -0.1977
     87  CA        61.2130 -130.8240   40.1500 C.3    49  ALA49       0.1597
     88  C         60.7850 -129.4030   39.7960 C.2    49  ALA49       0.2287
     89  O         61.1270 -128.4420   40.5090 O.2    49  ALA49      -0.2864
     90  CB        62.3180 -131.2690   39.2250 C.3    49  ALA49       0.0319
     91  N         58.7740 -128.1350   42.9390 N.3    52  THR52      -0.1218
     92  CA        59.5060 -127.7980   44.1490 C.3    52  THR52       0.1862
     93  C         60.2600 -126.5040   43.8820 C.2    52  THR52       0.2287
     94  O         60.2630 -125.5830   44.7030 O.2    52  THR52      -0.2866
     95  CB        60.5250 -128.8920   44.5390 C.3    52  THR52       0.1770
     96  OG1       61.5370 -128.9950   43.5310 O.3    52  THR52      -0.2211
     97  CG2       59.8310 -130.2190   44.7050 C.3    52  THR52       0.0375
     98  N         60.8770 -138.6260   49.8400 N.3   128  GLY128     -0.1210
     99  CA        61.3480 -139.1240   48.5600 C.3   128  GLY128      0.1956
    100  C         61.3820 -140.6330   48.4820 C.2   128  GLY128      0.2612
    101  O         61.1330 -141.3180   49.4710 O.2   128  GLY128     -0.2717
    102  N         61.6990 -141.1630   47.3020 N.am  129  SER129     -0.1952
    103  CA        61.7540 -142.6090   47.1250 C.3   129  SER129      0.1924
    104  C         62.8160 -143.2460   48.0110 C.2   129  SER129      0.2314
    105  O         62.7570 -144.4470   48.2900 O.2   129  SER129     -0.2863
    106  CB        62.0010 -142.9600   45.6600 C.3   129  SER129      0.2116
    107  OG        63.1370 -142.2920   45.1430 O.3   129  SER129     -0.2180
    108  N         65.8920 -144.6680   42.8510 N.3   168  GLY168     -0.1225
    109  CA        65.4090 -143.3310   42.5750 C.3   168  GLY168      0.1811
    110  C         66.3980 -142.2940   43.0690 C.2   168  GLY168      0.2280
    111  O         66.2080 -141.0960   42.8860 O.2   168  GLY168     -0.2866
@<TRIPOS>BOND
     1    33    32    1
     2    33    34    1
     3    34    35    2
     4    27    28    2
     5    27    26    1
     6    26    29    1
     7    26    25    1
     8    22    21    2
     9    29    31    1
    10    29    30    1
    11    21    25   am
    12    21    20    1
    13    24    23    1
    14    23    20    1
    15    20    19    1
    16    85    83    1
    17    19    10   am
    18    90    87    1
    19    88    87    1
    20    88    89    2
    21    40    37    1
    22    40    41    1
    23    36    37    1
    24    37    38    1
    25    13    14    1
    26    13    12    1
    27    83    84    1
    28    83    80    1
    29    86    87    1
    30    86    81   am
    31    15    14    1
    32    15    16    2
    33    18    16    1
    34    16    17    1
    35    10     9    1
    36    10    11    2
    37    80    81    1
    38    80    79    1
    39    81    82    2
    40     9    12    1
    41     9     8    1
    42    38    42   am
    43    38    39    2
    44    42    43    1
    45    78    77    2
    46    79    77   am
    47    77    76    1
    48   109   108    1
    49   109   110    1
    50   111   110    2
    51    91    92    1
    52    46    43    1
    53    43    44    1
    54    45    44    2
    55    96    95    1
    56    54    55    1
    57    54    53    1
    58    44    47   am
    59    76    75    1
    60    93    92    1
    61    93    94    2
    62    64    62   ar
    63    64    65   ar
    64    92    95    1
    65     6     5    1
    66    52    53    1
    67    52    51    1
    68    95    97    1
    69    62    61   ar
    70    75    72   am
    71    47    48    1
    72    65    63   ar
    73     1     2    1
    74   107   106    1
    75    48    51    1
    76    48    49    1
    77     5     2    1
    78     5     7    1
    79    72    73    2
    80    72    71    1
    81   106   103    1
    82     2     3    1
    83    61    63   ar
    84    61    60    1
    85    71    70    1
    86    71    74    1
    87    69    68    2
    88    49    50    2
    89    60    57    1
    90    70    68   am
    91    68    67    1
    92   103   102    1
    93   103   104    1
    94     3     4    2
    95    57    56    1
    96    57    58    1
    97   102   100   am
    98    67    66    1
    99   104   105    2
   100   100    99    1
   101   100   101    2
   102    58    59    2
   103    99    98    1
