@<TRIPOS>MOLECULE
tmp/3gq1B00.pdb
 114 112 0 0 0
SMALL
GASTEIGER

@<TRIPOS>ATOM
      1  N          7.4190  -12.8080   14.0160 N.3    11  ILE11      -0.1231
      2  CA         8.8560  -12.9150   13.8250 C.3    11  ILE11       0.1692
      3  C          9.5580  -12.1010   14.9050 C.2    11  ILE11       0.2592
      4  O          9.0150  -11.1250   15.4200 O.2    11  ILE11      -0.2718
      5  CB         9.3340  -12.5000   12.4320 C.3    11  ILE11       0.0266
      6  CG1        8.7650  -11.1630   12.0390 C.3    11  ILE11       0.0019
      7  CG2        8.9350  -13.5830   11.4460 C.3    11  ILE11       0.0020
      8  CD1        9.3900  -10.6210   10.7410 C.3    11  ILE11       0.0001
      9  N         10.7850  -12.4990   15.2140 N.am   12  LEU12      -0.1966
     10  CA        11.6150  -11.8440   16.2150 C.3    12  LEU12       0.1728
     11  C         12.7920  -11.1470   15.5320 C.2    12  LEU12       0.2616
     12  O         13.3430  -11.6350   14.5560 O.2    12  LEU12      -0.2715
     13  CB        12.1900  -12.8760   17.1900 C.3    12  LEU12       0.0311
     14  CG        11.3050  -13.5190   18.2460 C.3    12  LEU12       0.0022
     15  CD1       10.8470  -12.4320   19.2430 C.3    12  LEU12       0.0001
     16  CD2       10.1470  -14.2730   17.6240 C.3    12  LEU12       0.0001
     17  N         13.2140  -10.0110   16.0850 N.am   13  ASN13      -0.1958
     18  CA        14.3830   -9.3410   15.5610 C.3    13  ASN13       0.1819
     19  C         15.6360  -10.1400   15.8470 C.2    13  ASN13       0.2621
     20  O         15.7300  -10.8330   16.8680 O.2    13  ASN13      -0.2715
     21  CB        14.5310   -7.9410   16.1820 C.3    13  ASN13       0.1195
     22  CG        15.6070   -7.1410   15.5080 C.2    13  ASN13       0.2630
     23  OD1       15.5560   -6.9420   14.3100 O.2    13  ASN13      -0.2716
     24  ND2       16.6420   -6.7500   16.2580 N.am   13  ASN13      -0.0877
     25  N         16.5900   -9.9980   14.9560 N.am   14  ASP14      -0.1957
     26  CA        17.9330  -10.4420   15.2390 C.3    14  ASP14       0.1840
     27  C         18.9040   -9.4970   14.5300 C.2    14  ASP14       0.2622
     28  O         18.4890   -8.6380   13.7530 O.2    14  ASP14      -0.2715
     29  CB        18.1070  -11.9090   14.8560 C.3    14  ASP14       0.1450
     30  CG        18.0930  -12.1400   13.3760 C.2    14  ASP14       0.3671
     31  OD1       18.9410  -11.5780   12.6980 O.co2  14  ASP14      -0.2456
     32  OD2       17.2410  -12.8990   12.8710 O.co2  14  ASP14      -0.2456
     33  N         20.1920   -9.6330   14.8210 N.am   15  ASP15      -0.1957
     34  CA        21.1950   -8.7240   14.2670 C.3    15  ASP15       0.1840
     35  C         21.8600   -9.1980   12.9760 C.2    15  ASP15       0.2622
     36  O         22.7970   -8.5670   12.4850 O.2    15  ASP15      -0.2715
     37  CB        22.3220   -8.5080   15.3010 C.3    15  ASP15       0.1450
     38  CG        21.8620   -7.7850   16.5520 C.2    15  ASP15       0.3671
     39  OD1       20.7960   -7.1310   16.5500 O.co2  15  ASP15      -0.2456
     40  OD2       22.6130   -7.8570   17.5580 O.co2  15  ASP15      -0.2456
     41  N         21.3720  -10.3060   12.4340 N.am   16  TYR16      -0.1960
     42  CA        22.0140  -10.9970   11.3280 C.3    16  TYR16       0.1771
     43  C         21.2060  -11.0370   10.0040 C.2    16  TYR16       0.2620
     44  O         21.7520  -10.9110    8.9050 O.2    16  TYR16      -0.2715
     45  CB        22.2810  -12.4530   11.7450 C.3    16  TYR16       0.0574
     46  CG        22.9990  -12.6590   13.0810 C.ar   16  TYR16      -0.0198
     47  CD1       24.3160  -12.2940   13.2240 C.ar   16  TYR16      -0.0009
     48  CD2       22.3590  -13.2520   14.1760 C.ar   16  TYR16      -0.0009
     49  CE1       25.0040  -12.4720   14.4410 C.ar   16  TYR16       0.0417
     50  CE2       23.0290  -13.4740   15.3860 C.ar   16  TYR16       0.0417
     51  CZ        24.3620  -13.0770   15.5130 C.ar   16  TYR16       0.1957
     52  OH        25.0240  -13.3110   16.7080 O.3    16  TYR16      -0.2866
     53  N         19.9070  -11.2700   10.1190 N.am   17  THR17      -0.1937
     54  CA        19.0520  -11.3830    8.9400 C.3    17  THR17       0.2013
     55  C         18.9060  -10.0100    8.2910 C.2    17  THR17       0.2484
     56  O         18.5980   -9.0270    8.9740 O.2    17  THR17      -0.2729
     57  CB        17.6680  -11.9390    9.3110 C.3    17  THR17       0.1807
     58  OG1       17.8000  -13.2300    9.9280 O.3    17  THR17      -0.2208
     59  CG2       16.7820  -12.0520    8.0760 C.3    17  THR17       0.0379
     60  N         19.1480   -9.9310    6.9710 N.am   18  PRO18      -0.2715
     61  CA        19.0420   -8.6370    6.2750 C.3    18  PRO18       0.1536
     62  C         17.6020   -8.1130    6.2530 C.2    18  PRO18       0.2598
     63  O         16.6620   -8.8960    6.0780 O.2    18  PRO18      -0.2715
     64  CB        19.5060   -8.9510    4.8510 C.3    18  PRO18       0.0310
     65  CG        20.2540  -10.2090    4.9280 C.3    18  PRO18       0.0237
     66  CD        19.6910  -10.9750    6.0910 C.3    18  PRO18       0.0939
     67  N         17.4280   -6.7970    6.4230 N.am   19  MET19      -0.1978
     68  CA        16.1330   -6.1350    6.2230 C.3    19  MET19       0.1605
     69  C         15.4030   -6.5830    4.9600 C.2    19  MET19       0.2287
     70  O         14.2120   -6.8720    5.0120 O.2    19  MET19      -0.2864
     71  CB        16.3040   -4.5980    6.2080 C.3    19  MET19       0.0413
     72  CG        16.6960   -4.0870    7.5400 C.3    19  MET19       0.0598
     73  SD        16.5690   -2.2800    7.4880 S.3    19  MET19      -0.1393
     74  CE        16.4560   -1.8980    9.2560 C.3    19  MET19       0.0692
     75  N         13.6840   -9.9590    5.2130 N.3    22  VAL22      -0.1245
     76  CA        12.4680   -9.9010    6.0090 C.3    22  VAL22       0.1561
     77  C         11.3170   -9.3400    5.1670 C.2    22  VAL22       0.2260
     78  O         10.2020   -9.8810    5.2040 O.2    22  VAL22      -0.2867
     79  CB        12.6620   -9.0920    7.3110 C.3    22  VAL22       0.0252
     80  CG1       11.3540   -8.9580    8.0560 C.3    22  VAL22       0.0019
     81  CG2       13.7010   -9.7640    8.2460 C.3    22  VAL22       0.0019
     82  N          8.5320   -4.9380    8.9520 N.3    41  MET41      -0.1245
     83  CA         9.9740   -5.1700    9.0910 C.3    41  MET41       0.1570
     84  C         10.6050   -4.1500   10.0310 C.2    41  MET41       0.2261
     85  O         11.3380   -4.4890   10.9550 O.2    41  MET41      -0.2867
     86  CB        10.6430   -5.1600    7.7320 C.3    41  MET41       0.0387
     87  CG        12.1500   -5.3270    7.7400 C.3    41  MET41       0.0595
     88  SD        13.0490   -3.7970    8.0130 S.3    41  MET41      -0.1393
     89  CE        12.6710   -2.9230    6.4880 C.3    41  MET41       0.0692
     90  N          9.4620   -4.5930   13.6970 N.3    44  VAL44      -0.1231
     91  CA        10.0980   -5.7180   14.3800 C.3    44  VAL44       0.1692
     92  C         11.5090   -5.3250   14.8220 C.2    44  VAL44       0.2592
     93  O         11.9440   -5.6660   15.9350 O.2    44  VAL44      -0.2718
     94  CB        10.1670   -6.9920   13.4990 C.3    44  VAL44       0.0266
     95  CG1       11.0250   -8.0760   14.1580 C.3    44  VAL44       0.0020
     96  CG2        8.7860   -7.5340   13.1860 C.3    44  VAL44       0.0020
     97  N         12.2350   -4.6190   13.9760 N.am   45  HIS45      -0.1976
     98  CA        13.5300   -4.0640   14.3560 C.3    45  HIS45       0.1656
     99  C         13.4160   -3.1570   15.5960 C.2    45  HIS45       0.2291
    100  O         14.2040   -3.2700   16.5410 O.2    45  HIS45      -0.2864
    101  CB        14.0650   -3.3000   13.1660 C.3    45  HIS45       0.0771
    102  CG        15.4290   -2.7270   13.3360 C.ar   45  HIS45       0.0820
    103  ND1       16.5660   -3.3810   12.9100 N.ar   45  HIS45      -0.2267
    104  CD2       15.8360   -1.5230   13.8060 C.ar   45  HIS45       0.1154
    105  CE1       17.6200   -2.6200   13.1480 C.ar   45  HIS45       0.1986
    106  NE2       17.2040   -1.4880   13.6900 N.ar   45  HIS45      -0.2212
    107  N         16.7450  -16.0780   11.1720 N.3    78  LEU78      -0.1245
    108  CA        15.3980  -15.5490   11.4460 C.3    78  LEU78       0.1561
    109  C         14.5250  -16.5150   12.2360 C.2    78  LEU78       0.2260
    110  O         14.3140  -17.6560   11.8150 O.2    78  LEU78      -0.2867
    111  CB        14.6970  -15.1800   10.1530 C.3    78  LEU78       0.0270
    112  CG        13.2910  -14.5890   10.2570 C.3    78  LEU78       0.0019
    113  CD1       13.2710  -13.2670   11.0000 C.3    78  LEU78       0.0001
    114  CD2       12.6890  -14.4500    8.8810 C.3    78  LEU78       0.0001
@<TRIPOS>BOND
     1    64    65    1
     2    64    61    1
     3    65    66    1
     4    69    70    2
     5    69    68    1
     6    77    78    2
     7    77    76    1
     8    75    76    1
     9    76    79    1
    10    63    62    2
    11    66    60    1
    12    71    68    1
    13    71    72    1
    14    68    67    1
    15    62    61    1
    16    62    67   am
    17    61    60    1
    18    89    88    1
    19    60    55   am
    20    79    80    1
    21    79    81    1
    22    73    72    1
    23    73    74    1
    24    86    87    1
    25    86    83    1
    26    87    88    1
    27    59    57    1
    28    55    54    1
    29    55    56    2
    30   114   112    1
    31    44    43    2
    32    54    57    1
    33    54    53    1
    34    82    83    1
    35    83    84    1
    36    57    58    1
    37    43    53   am
    38    43    42    1
    39    84    85    2
    40   111   112    1
    41   111   108    1
    42   112   113    1
    43     8     6    1
    44   107   108    1
    45    42    45    1
    46    42    41    1
    47   108   109    1
    48     7     5    1
    49    45    46    1
    50   110   109    2
    51     6     5    1
    52     5     2    1
    53    41    35   am
    54    36    35    2
    55    31    30   ar
    56    32    30   ar
    57   103   105   ar
    58   103   102   ar
    59    35    34    1
    60    46    47   ar
    61    46    48   ar
    62   105   106   ar
    63   101   102    1
    64   101    98    1
    65    96    94    1
    66    47    49   ar
    67   102   104   ar
    68    30    29    1
    69    94    95    1
    70    94    91    1
    71   106   104   ar
    72    90    91    1
    73    28    27    2
    74     2     1    1
    75     2     3    1
    76    97    98    1
    77    97    92   am
    78    48    50   ar
    79    34    33    1
    80    34    37    1
    81    23    22    2
    82    98    99    1
    83    91    92    1
    84    49    51   ar
    85    27    33   am
    86    27    26    1
    87    12    11    2
    88    92    93    2
    89    29    26    1
    90     3     9   am
    91     3     4    2
    92    25    26    1
    93    25    19   am
    94     9    10    1
    95    37    38    1
    96    50    51   ar
    97    22    21    1
    98    22    24   am
    99    51    52    1
   100    11    17   am
   101    11    10    1
   102    18    19    1
   103    18    17    1
   104    18    21    1
   105    99   100    2
   106    19    20    2
   107    10    13    1
   108    39    38   ar
   109    38    40   ar
   110    13    14    1
   111    16    14    1
   112    14    15    1
