@<TRIPOS>MOLECULE
tmp/3gq8A00.pdb
 109 101 0 0 0
SMALL
GASTEIGER

@<TRIPOS>ATOM
      1  N         14.2140   30.2230  243.4760 N.3   164  TYR164     -0.1241
      2  CA        14.8260   29.6460  244.6700 C.3   164  TYR164      0.1605
      3  C         13.7040   29.1220  245.5520 C.2   164  TYR164      0.2264
      4  O         12.7200   29.8310  245.7650 O.2   164  TYR164     -0.2867
      5  CB        15.6420   30.6920  245.4400 C.3   164  TYR164      0.0534
      6  CG        16.8160   31.2440  244.6700 C.ar  164  TYR164     -0.0201
      7  CD1       16.9470   32.6160  244.4560 C.ar  164  TYR164     -0.0009
      8  CD2       17.7870   30.3950  244.1360 C.ar  164  TYR164     -0.0009
      9  CE1       18.0190   33.1360  243.7380 C.ar  164  TYR164      0.0417
     10  CE2       18.8680   30.9010  243.4200 C.ar  164  TYR164      0.0417
     11  CZ        18.9770   32.2720  243.2260 C.ar  164  TYR164      0.1957
     12  OH        20.0390   32.7800  242.5220 O.3   164  TYR164     -0.2866
     13  N         11.8470   28.1190  249.0050 N.3   166  TYR166     -0.1241
     14  CA        11.8570   28.4900  250.4100 C.3   166  TYR166      0.1605
     15  C         10.9640   27.5290  251.1750 C.2   166  TYR166      0.2264
     16  O          9.7730   27.7940  251.3650 O.2   166  TYR166     -0.2867
     17  CB        11.4330   29.9570  250.5850 C.3   166  TYR166      0.0534
     18  CG        12.3500   30.9150  249.8470 C.ar  166  TYR166     -0.0201
     19  CD1       11.9840   31.4440  248.6080 C.ar  166  TYR166     -0.0009
     20  CD2       13.6030   31.2650  250.3720 C.ar  166  TYR166     -0.0009
     21  CE1       12.8310   32.3130  247.9110 C.ar  166  TYR166      0.0417
     22  CE2       14.4550   32.1370  249.6840 C.ar  166  TYR166      0.0417
     23  CZ        14.0600   32.6530  248.4530 C.ar  166  TYR166      0.1957
     24  OH        14.8880   33.5130  247.7610 O.3   166  TYR166     -0.2866
     25  N         23.7740   41.2630  242.3010 N.3   192  ASP192     -0.1239
     26  CA        23.5980   40.6370  243.5950 C.3   192  ASP192      0.1674
     27  C         24.9650   40.1540  244.0710 C.2   192  ASP192      0.2266
     28  O         25.7040   40.9430  244.6550 O.2   192  ASP192     -0.2867
     29  CB        22.5670   39.5110  243.5270 C.3   192  ASP192      0.1410
     30  CG        21.9460   39.1980  244.8820 C.2   192  ASP192      0.3668
     31  OD1       20.8140   38.6690  244.9100 O.co2 192  ASP192     -0.2456
     32  OD2       22.5790   39.4660  245.9220 O.co2 192  ASP192     -0.2456
     33  N         22.7820   46.6120  248.0100 N.3   217  ALA217     -0.1231
     34  CA        21.9840   45.7670  248.9040 C.3   217  ALA217      0.1694
     35  C         22.8560   44.6250  249.5050 C.2   217  ALA217      0.2592
     36  O         24.0070   44.8640  249.8710 O.2   217  ALA217     -0.2718
     37  CB        20.7560   45.2130  248.1520 C.3   217  ALA217      0.0304
     38  N         22.3040   43.4140  249.6270 N.am  218  ASN218     -0.1974
     39  CA        23.0650   42.2590  250.1500 C.3   218  ASN218      0.1688
     40  C         23.9870   41.7000  249.0590 C.2   218  ASN218      0.2292
     41  O         23.7810   40.5840  248.5680 O.2   218  ASN218     -0.2864
     42  CB        22.1350   41.1600  250.6960 C.3   218  ASN218      0.1181
     43  CG        22.9010   40.0760  251.4880 C.2   218  ASN218      0.2629
     44  OD1       23.8130   40.3800  252.2490 O.2   218  ASN218     -0.2716
     45  ND2       22.5180   38.8120  251.3040 N.am  218  ASN218     -0.0877
     46  N         28.8110   34.2000  248.1890 N.3   223  GLU223     -0.1245
     47  CA        27.6780   33.9800  249.0660 C.3   223  GLU223      0.1567
     48  C         27.2890   32.5140  249.0790 C.2   223  GLU223      0.2260
     49  O         26.7730   31.9960  248.0990 O.2   223  GLU223     -0.2867
     50  CB        26.4810   34.8640  248.6870 C.3   223  GLU223      0.0388
     51  CG        25.4290   34.9070  249.8040 C.3   223  GLU223      0.1160
     52  CD        24.1750   35.6540  249.3990 C.2   223  GLU223      0.3649
     53  OE1       23.1320   34.9850  249.2080 O.co2 223  GLU223     -0.2457
     54  OE2       24.2300   36.8950  249.2660 O.co2 223  GLU223     -0.2457
     55  N         24.8010   30.3390  250.2630 N.3   225  ASP225     -0.1239
     56  CA        23.4480   30.7470  250.6630 C.3   225  ASP225      0.1674
     57  C         22.5620   29.5510  250.9630 C.2   225  ASP225      0.2266
     58  O         23.0340   28.4060  250.9880 O.2   225  ASP225     -0.2867
     59  CB        22.8350   31.5840  249.5330 C.3   225  ASP225      0.1410
     60  CG        21.7010   32.5010  250.0030 C.2   225  ASP225      0.3668
     61  OD1       21.4200   32.6010  251.2200 O.co2 225  ASP225     -0.2456
     62  OD2       21.0920   33.1440  249.1190 O.co2 225  ASP225     -0.2456
     63  N         25.0490   31.8480  254.9390 N.3   248  LYS248     -0.1245
     64  CA        23.7610   32.1470  255.5620 C.3   248  LYS248      0.1561
     65  C         22.5890   31.3460  255.0330 C.2   248  LYS248      0.2260
     66  O         22.7490   30.4950  254.1640 O.2   248  LYS248     -0.2867
     67  CB        23.4410   33.6420  255.3990 C.3   248  LYS248      0.0271
     68  CG        22.8290   34.0230  254.0580 C.3   248  LYS248      0.0035
     69  CD        21.9800   35.2990  254.2480 C.3   248  LYS248      0.0206
     70  CE        21.0110   35.5410  253.0970 C.3   248  LYS248      0.1093
     71  NZ        21.6710   35.4240  251.7790 N.3   248  LYS248     -0.1314
     72  N         18.1030   32.6490  254.4250 N.3   250  HIS250     -0.1241
     73  CA        16.9230   33.4480  254.7790 C.3   250  HIS250      0.1621
     74  C         16.1210   32.7160  255.8330 C.2   250  HIS250      0.2264
     75  O         16.3670   31.5310  256.0880 O.2   250  HIS250     -0.2867
     76  CB        16.0690   33.6740  253.5360 C.3   250  HIS250      0.0745
     77  CG        16.7550   34.5110  252.5120 C.ar  250  HIS250      0.0817
     78  ND1       17.4620   33.9680  251.4610 N.ar  250  HIS250     -0.2268
     79  CD2       16.9080   35.8520  252.4210 C.ar  250  HIS250      0.1154
     80  CE1       17.9840   34.9440  250.7400 C.ar  250  HIS250      0.1986
     81  NE2       17.6660   36.0970  251.3040 N.ar  250  HIS250     -0.2212
     82  N         25.4310   34.0430  259.2910 N.3   276  ARG276     -0.1245
     83  CA        24.1410   34.4080  259.9190 C.3   276  ARG276      0.1563
     84  C         23.0080   33.5170  259.4310 C.2   276  ARG276      0.2260
     85  O         23.1260   32.8700  258.3950 O.2   276  ARG276     -0.2867
     86  CB        23.8070   35.8890  259.6260 C.3   276  ARG276      0.0307
     87  CG        23.6820   36.2330  258.1300 C.3   276  ARG276      0.0489
     88  CD        23.8630   37.7330  257.9050 C.3   276  ARG276      0.2205
     89  NE        23.7150   38.1090  256.4960 N.pl3 276  ARG276     -0.0865
     90  CZ        22.6690   38.7720  256.0020 C.cat 276  ARG276      0.5346
     91  NH1       21.6600   39.1480  256.7950 N.pl3 276  ARG276      0.1354
     92  NH2       22.6440   39.0810  254.7180 N.pl3 276  ARG276      0.1354
     93  N         19.0470   34.5180  259.0560 N.3   278  ILE278     -0.1245
     94  CA        17.9420   35.4380  259.2440 C.3   278  ILE278      0.1561
     95  C         16.7390   34.7040  259.8300 C.2   278  ILE278      0.2260
     96  O         16.4360   33.5810  259.4240 O.2   278  ILE278     -0.2867
     97  CB        17.5730   36.1400  257.9110 C.3   278  ILE278      0.0252
     98  CG1       18.8260   36.8100  257.3210 C.3   278  ILE278      0.0019
     99  CG2       16.4630   37.1950  258.1410 C.3   278  ILE278      0.0019
    100  CD1       18.7290   37.1240  255.8310 C.3   278  ILE278      0.0001
    101  N         23.4620   47.9940  252.5290 N.3   311  GLN311     -0.1245
    102  CA        22.5570   47.4660  253.5500 C.3   311  GLN311      0.1566
    103  C         22.1450   48.5430  254.5520 C.2   311  GLN311      0.2260
    104  O         22.2350   48.3460  255.7740 O.2   311  GLN311     -0.2867
    105  CB        23.2270   46.2960  254.2910 C.3   311  GLN311      0.0367
    106  CG        23.3900   45.0380  253.4580 C.3   311  GLN311      0.0905
    107  CD        22.0830   44.2960  253.2690 C.2   311  GLN311      0.2608
    108  OE1       21.1030   44.8630  252.7970 O.2   311  GLN311     -0.2717
    109  NE2       22.0680   43.0170  253.6180 N.am  311  GLN311     -0.0878
@<TRIPOS>BOND
     1    25    26    1
     2    12    11    1
     3    11    10   ar
     4    11     9   ar
     5    10     8   ar
     6     1     2    1
     7    29    26    1
     8    29    30    1
     9    26    27    1
    10     9     7   ar
    11    27    28    2
    12     8     6   ar
    13     7     6   ar
    14     6     5    1
    15     2     5    1
    16     2     3    1
    17    30    31   ar
    18    30    32   ar
    19     3     4    2
    20    24    23    1
    21    21    23   ar
    22    21    19   ar
    23    33    34    1
    24    49    48    2
    25    37    34    1
    26    46    47    1
    27    23    22   ar
    28    41    40    2
    29    19    18   ar
    30    50    47    1
    31    50    51    1
    32    34    35    1
    33    13    14    1
    34    40    39    1
    35    47    48    1
    36    62    60   ar
    37    53    52   ar
    38    54    52   ar
    39    52    51    1
    40    35    38   am
    41    35    36    2
    42    59    60    1
    43    59    56    1
    44    38    39    1
    45    22    20   ar
    46    18    20   ar
    47    18    17    1
    48    60    61   ar
    49    39    42    1
    50    55    56    1
    51    14    17    1
    52    14    15    1
    53    56    57    1
    54    42    43    1
    55    80    81   ar
    56    80    78   ar
    57    57    58    2
    58    15    16    2
    59    81    79   ar
    60    45    43   am
    61    78    77   ar
    62    43    44    2
    63    71    70    1
    64    79    77   ar
    65    77    76    1
    66   101   102    1
    67   108   107    2
    68    70    69    1
    69   107   106    1
    70   107   109   am
    71   106   105    1
    72    76    73    1
    73   102   105    1
    74   102   103    1
    75    68    69    1
    76    68    67    1
    77    66    65    2
    78    72    73    1
    79   103   104    2
    80    92    90    1
    81    73    74    1
    82    63    64    1
    83    65    64    1
    84    67    64    1
    85   100    98    1
    86    74    75    2
    87    90    89    2
    88    90    91    1
    89    89    88    1
    90    98    97    1
    91    88    87    1
    92    97    99    1
    93    97    94    1
    94    87    86    1
    95    85    84    2
    96    93    94    1
    97    94    95    1
    98    82    83    1
    99    96    95    2
   100    84    83    1
   101    86    83    1
