@<TRIPOS>MOLECULE
tmp/3gq9A00.pdb
 96 88 0 0 0
SMALL
GASTEIGER

@<TRIPOS>ATOM
      1  N         31.1660   43.2720  254.8820 N.3   271  ARG271     -0.1245
      2  CA        31.3030   42.2210  255.9000 C.3   271  ARG271      0.1563
      3  C         32.0520   41.0900  255.2170 C.2   271  ARG271      0.2260
      4  O         31.4700   40.3250  254.4410 O.2   271  ARG271     -0.2867
      5  CB        29.9300   41.7690  256.4490 C.3   271  ARG271      0.0307
      6  CG        29.1670   42.8970  257.1570 C.3   271  ARG271      0.0489
      7  CD        27.9820   42.4550  258.0290 C.3   271  ARG271      0.2205
      8  NE        27.6460   43.5750  258.9130 N.pl3 271  ARG271     -0.0865
      9  CZ        26.9460   43.5070  260.0400 C.cat 271  ARG271      0.5346
     10  NH1       26.4400   42.3490  260.4730 N.pl3 271  ARG271      0.1354
     11  NH2       26.7600   44.6260  260.7420 N.pl3 271  ARG271      0.1354
     12  N         25.0130   33.6950  258.4020 N.3   276  ARG276     -0.1245
     13  CA        23.7400   34.0700  259.0520 C.3   276  ARG276      0.1563
     14  C         22.6000   33.1950  258.5450 C.2   276  ARG276      0.2260
     15  O         22.7370   32.5590  257.5090 O.2   276  ARG276     -0.2867
     16  CB        23.4330   35.5590  258.7900 C.3   276  ARG276      0.0307
     17  CG        23.2940   35.9350  257.3150 C.3   276  ARG276      0.0489
     18  CD        23.1900   37.4420  257.1680 C.3   276  ARG276      0.2205
     19  NE        23.1070   37.8570  255.7620 N.pl3 276  ARG276     -0.0865
     20  CZ        22.1060   38.5670  255.2460 C.cat 276  ARG276      0.5346
     21  NH1       21.0870   38.9540  256.0210 N.pl3 276  ARG276      0.1354
     22  NH2       22.1280   38.9020  253.9650 N.pl3 276  ARG276      0.1354
     23  N         17.4000   34.2450  264.0280 N.3   281  HIS281     -0.1241
     24  CA        18.2830   35.0480  264.8480 C.3   281  HIS281      0.1621
     25  C         17.6550   35.4300  266.1920 C.2   281  HIS281      0.2264
     26  O         18.3670   35.6480  267.1730 O.2   281  HIS281     -0.2867
     27  CB        18.6730   36.3130  264.0770 C.3   281  HIS281      0.0745
     28  CG        19.4990   36.0410  262.8540 C.ar  281  HIS281      0.0817
     29  ND1       19.2240   36.6030  261.6260 N.ar  281  HIS281     -0.2268
     30  CD2       20.5880   35.2520  262.6730 C.ar  281  HIS281      0.1154
     31  CE1       20.1100   36.1800  260.7410 C.ar  281  HIS281      0.1986
     32  NE2       20.9520   35.3610  261.3520 N.ar  281  HIS281     -0.2212
     33  N         26.6760   48.2770  259.0790 N.3   315  THR315     -0.1218
     34  CA        27.9860   48.5450  259.6660 C.3   315  THR315      0.1862
     35  C         28.9740   47.4540  259.2270 C.2   315  THR315      0.2287
     36  O         28.6150   46.2700  259.1380 O.2   315  THR315     -0.2866
     37  CB        27.9130   48.6120  261.2080 C.3   315  THR315      0.1770
     38  OG1       27.2720   47.4340  261.6930 O.3   315  THR315     -0.2211
     39  CG2       27.0980   49.8170  261.6730 C.3   315  THR315      0.0375
     40  N         32.1620   44.7520  259.0950 N.3   317  ARG317     -0.1245
     41  CA        32.6750   43.6900  259.9460 C.3   317  ARG317      0.1563
     42  C         33.8330   43.0190  259.2160 C.2   317  ARG317      0.2260
     43  O         33.7920   42.8690  257.9860 O.2   317  ARG317     -0.2867
     44  CB        31.6090   42.6100  260.1660 C.3   317  ARG317      0.0307
     45  CG        30.4460   42.9730  261.0910 C.3   317  ARG317      0.0489
     46  CD        30.8440   43.0090  262.5900 C.3   317  ARG317      0.2205
     47  NE        29.6460   43.2560  263.3750 N.pl3 317  ARG317     -0.0865
     48  CZ        29.0960   44.4590  263.5640 C.cat 317  ARG317      0.5346
     49  NH1       29.6730   45.5560  263.0770 N.pl3 317  ARG317      0.1354
     50  NH2       27.9680   44.5700  264.2700 N.pl3 317  ARG317      0.1354
     51  N         31.2520   38.2730  260.8340 N.3   320  ALA320     -0.1245
     52  CA        29.9750   38.3140  261.5490 C.3   320  ALA320      0.1562
     53  C         29.3270   36.9560  261.4860 C.2   320  ALA320      0.2260
     54  O         29.0220   36.4370  260.4080 O.2   320  ALA320     -0.2867
     55  CB        29.0380   39.3980  260.9770 C.3   320  ALA320      0.0290
     56  N         26.1290   34.7660  262.9060 N.3   322  SER322     -0.1217
     57  CA        24.8430   34.7200  263.5840 C.3   322  SER322      0.1889
     58  C         24.1200   33.4140  263.2000 C.2   322  SER322      0.2288
     59  O         24.4460   32.8040  262.1900 O.2   322  SER322     -0.2866
     60  CB        24.0190   35.9880  263.2360 C.3   322  SER322      0.2089
     61  OG        23.7860   36.0700  261.8350 O.3   322  SER322     -0.2183
     62  N         32.0730   50.2800  264.7550 N.3   344  GLU344     -0.1245
     63  CA        31.2470   49.5410  265.7020 C.3   344  GLU344      0.1567
     64  C         31.9520   48.3010  266.2830 C.2   344  GLU344      0.2260
     65  O         32.4890   48.3550  267.3820 O.2   344  GLU344     -0.2867
     66  CB        29.8870   49.1730  265.0790 C.3   344  GLU344      0.0388
     67  CG        28.9180   48.4950  266.0340 C.3   344  GLU344      0.1160
     68  CD        27.6140   48.0960  265.3380 C.2   344  GLU344      0.3649
     69  OE1       27.6240   47.2230  264.4340 O.co2 344  GLU344     -0.2457
     70  OE2       26.5750   48.6870  265.6970 O.co2 344  GLU344     -0.2457
     71  N         31.9450   39.8540  265.2830 N.3   348  SER348     -0.1217
     72  CA        30.7880   39.6190  266.1350 C.3   348  SER348      0.1889
     73  C         30.2730   38.1930  266.0530 C.2   348  SER348      0.2288
     74  O         30.2250   37.5830  264.9740 O.2   348  SER348     -0.2866
     75  CB        29.6610   40.6200  265.8250 C.3   348  SER348      0.2089
     76  OG        29.3050   40.6220  264.4420 O.3   348  SER348     -0.2183
     77  N         26.8880   36.5230  267.5320 N.3   350  GLN350     -0.1231
     78  CA        25.6480   36.9380  268.1750 C.3   350  GLN350      0.1698
     79  C         24.4450   36.2230  267.5790 C.2   350  GLN350      0.2592
     80  O         24.5850   35.3960  266.6920 O.2   350  GLN350     -0.2718
     81  CB        25.3840   38.4260  267.9240 C.3   350  GLN350      0.0381
     82  CG        26.4660   39.4220  268.2150 C.3   350  GLN350      0.0905
     83  CD        26.0350   40.8220  267.7640 C.2   350  GLN350      0.2608
     84  OE1       26.1810   41.2020  266.6000 O.2   350  GLN350     -0.2717
     85  NE2       25.4770   41.5630  268.6700 N.am  350  GLN350     -0.0878
     86  N         23.2530   36.5920  268.0500 N.am  351  PHE351     -0.1976
     87  CA        22.0010   36.2630  267.3490 C.3   351  PHE351      0.1639
     88  C         21.8900   34.7720  267.0610 C.2   351  PHE351      0.2290
     89  O         21.7350   34.3510  265.9130 O.2   351  PHE351     -0.2864
     90  CB        21.8740   37.0950  266.0660 C.3   351  PHE351      0.0560
     91  CG        21.7940   38.5760  266.3210 C.ar  351  PHE351     -0.0200
     92  CD1       22.7790   39.4310  265.8550 C.ar  351  PHE351     -0.0042
     93  CD2       20.7270   39.1070  267.0470 C.ar  351  PHE351     -0.0042
     94  CE1       22.7170   40.8140  266.1140 C.ar  351  PHE351     -0.0003
     95  CE2       20.6460   40.4740  267.3100 C.ar  351  PHE351     -0.0003
     96  CZ        21.6440   41.3340  266.8410 C.ar  351  PHE351     -0.0000
@<TRIPOS>BOND
     1    22    20    1
     2     4     3    2
     3     1     2    1
     4     3     2    1
     5    20    19    2
     6    20    21    1
     7    19    18    1
     8     2     5    1
     9     5     6    1
    10     6     7    1
    11    18    17    1
    12    17    16    1
    13    15    14    2
    14    43    42    2
    15     7     8    1
    16    12    13    1
    17    14    13    1
    18    16    13    1
    19     8     9    2
    20    33    34    1
    21    40    41    1
    22    36    35    2
    23    42    41    1
    24    35    34    1
    25    34    37    1
    26    41    44    1
    27     9    10    1
    28     9    11    1
    29    44    45    1
    30    54    53    2
    31    31    32   ar
    32    31    29   ar
    33    51    52    1
    34    55    52    1
    35    45    46    1
    36    37    39    1
    37    37    38    1
    38    32    30   ar
    39    53    52    1
    40    29    28   ar
    41    61    60    1
    42    59    58    2
    43    46    47    1
    44    30    28   ar
    45    28    27    1
    46    56    57    1
    47    49    48    1
    48    58    57    1
    49    60    57    1
    50    47    48    2
    51    48    50    1
    52    23    24    1
    53    27    24    1
    54    69    68   ar
    55    76    75    1
    56    62    63    1
    57    24    25    1
    58    74    73    2
    59    66    63    1
    60    66    67    1
    61    71    72    1
    62    68    70   ar
    63    68    67    1
    64    63    64    1
    65    75    72    1
    66    92    94   ar
    67    92    91   ar
    68    89    88    2
    69    73    72    1
    70    90    91    1
    71    90    87    1
    72    94    96   ar
    73    25    26    2
    74    64    65    2
    75    91    93   ar
    76    84    83    2
    77    80    79    2
    78    96    95   ar
    79    93    95   ar
    80    88    87    1
    81    87    86    1
    82    77    78    1
    83    79    86   am
    84    79    78    1
    85    83    82    1
    86    83    85   am
    87    81    78    1
    88    81    82    1
