@<TRIPOS>MOLECULE
tmp/3gqcB00.pdb
 172 165 0 0 0
SMALL
GASTEIGER

@<TRIPOS>ATOM
      1  N         25.9240   22.1030   14.8220 N.3    14  ARG14      -0.1231
      2  CA        24.7250   22.0250   13.9910 C.3    14  ARG14       0.1694
      3  C         23.4820   22.3990   14.8200 C.2    14  ARG14       0.2591
      4  O         22.6010   23.1140   14.3440 O.2    14  ARG14      -0.2718
      5  CB        24.6030   20.6360   13.3320 C.3    14  ARG14       0.0321
      6  CG        24.0420   19.5480   14.2360 C.3    14  ARG14       0.0489
      7  CD        24.4250   18.1410   13.8130 C.3    14  ARG14       0.2205
      8  NE        23.5480   17.1490   14.4370 N.pl3  14  ARG14      -0.0865
      9  CZ        23.6520   16.7340   15.6970 C.cat  14  ARG14       0.5346
     10  NH1       24.6090   17.2110   16.4770 N.pl3  14  ARG14       0.1354
     11  NH2       22.7990   15.8490   16.1830 N.pl3  14  ARG14       0.1354
     12  N         23.4420   21.9370   16.0690 N.am   15  LEU15      -0.1980
     13  CA        22.3320   22.2630   16.9560 C.3    15  LEU15       0.1596
     14  C         22.2070   23.7710   17.2040 C.2    15  LEU15       0.2287
     15  O         21.1120   24.3300   17.0440 O.2    15  LEU15      -0.2864
     16  CB        22.3800   21.4530   18.2480 C.3    15  LEU15       0.0297
     17  CG        22.2080   19.9320   18.0500 C.3    15  LEU15       0.0022
     18  CD1       22.4180   19.1840   19.3570 C.3    15  LEU15       0.0001
     19  CD2       20.8360   19.5530   17.4080 C.3    15  LEU15       0.0001
     20  N         20.6870   25.1460   13.8340 N.3    18  ILE18      -0.1245
     21  CA        19.2860   24.9660   13.5120 C.3    18  ILE18       0.1561
     22  C         18.3750   25.7910   14.4260 C.2    18  ILE18       0.2260
     23  O         17.2970   26.1980   14.0050 O.2    18  ILE18      -0.2867
     24  CB        18.8450   23.4680   13.4250 C.3    18  ILE18       0.0252
     25  CG1       18.7390   22.8160   14.7990 C.3    18  ILE18       0.0019
     26  CG2       19.7670   22.6640   12.4630 C.3    18  ILE18       0.0019
     27  CD1       18.2070   21.4180   14.7040 C.3    18  ILE18       0.0001
     28  N          7.9710   19.3460    4.3390 N.3    57  ASP57      -0.1225
     29  CA         9.1310   18.8090    5.0340 C.3    57  ASP57       0.1805
     30  C         10.2110   18.3850    4.0540 C.2    57  ASP57       0.2597
     31  O         10.0260   17.4480    3.2740 O.2    57  ASP57      -0.2718
     32  CB         8.6850   17.6180    5.8850 C.3    57  ASP57       0.1424
     33  CG         9.7940   17.0410    6.7660 C.2    57  ASP57       0.3668
     34  OD1       10.9840   17.4330    6.6680 O.co2  57  ASP57      -0.2456
     35  OD2        9.4480   16.1480    7.5770 O.co2  57  ASP57      -0.2456
     36  N         11.3460   19.0640    4.1150 N.am   58  MET58      -0.1979
     37  CA        12.4720   18.7920    3.2220 C.3    58  MET58       0.1605
     38  C         13.0970   17.4240    3.4900 C.2    58  MET58       0.2287
     39  O         13.2860   17.0530    4.6520 O.2    58  MET58      -0.2864
     40  CB        13.5240   19.8840    3.3930 C.3    58  MET58       0.0413
     41  CG        14.0560   20.4440    2.1030 C.3    58  MET58       0.0598
     42  SD        12.7900   21.2410    1.0920 S.3    58  MET58      -0.1393
     43  CE        11.7540   21.9190    2.3760 C.3    58  MET58       0.0692
     44  N         15.8030   14.4690    3.9100 N.3    60  CYS60      -0.1221
     45  CA        17.1870   14.3550    4.4060 C.3    60  CYS60       0.1808
     46  C         17.9350   15.6270    4.0760 C.2    60  CYS60       0.2601
     47  O         18.7800   15.6530    3.1860 O.2    60  CYS60      -0.2717
     48  CB        17.8880   13.1290    3.8260 C.3    60  CYS60       0.0970
     49  SG        17.8190   13.0130    2.0250 S.3    60  CYS60      -0.0800
     50  N         17.6010   16.6830    4.8120 N.am   61  PHE61      -0.1962
     51  CA        17.8240   18.0400    4.3540 C.3    61  PHE61       0.1771
     52  C         19.3020   18.3470    4.0840 C.2    61  PHE61       0.2619
     53  O         19.6460   18.7210    2.9630 O.2    61  PHE61      -0.2715
     54  CB        17.1610   19.0310    5.3090 C.3    61  PHE61       0.0574
     55  CG        17.4290   20.4770    4.9930 C.ar   61  PHE61      -0.0200
     56  CD1       16.9920   21.0370    3.8050 C.ar   61  PHE61      -0.0042
     57  CD2       18.0870   21.2820    5.9120 C.ar   61  PHE61      -0.0042
     58  CE1       17.2240   22.3730    3.5280 C.ar   61  PHE61      -0.0003
     59  CE2       18.3320   22.6230    5.6490 C.ar   61  PHE61      -0.0003
     60  CZ        17.9090   23.1740    4.4520 C.ar   61  PHE61      -0.0000
     61  N         20.1640   18.1560    5.0820 N.am   62  PHE62      -0.1974
     62  CA        21.5890   18.4880    4.9360 C.3    62  PHE62       0.1639
     63  C         22.2090   17.7330    3.7510 C.2    62  PHE62       0.2290
     64  O         22.9450   18.3180    2.9510 O.2    62  PHE62      -0.2864
     65  CB        22.3810   18.1970    6.2260 C.3    62  PHE62       0.0560
     66  CG        22.1110   19.1530    7.3620 C.ar   62  PHE62      -0.0200
     67  CD1       21.0660   20.0760    7.3060 C.ar   62  PHE62      -0.0042
     68  CD2       22.9020   19.1100    8.5160 C.ar   62  PHE62      -0.0042
     69  CE1       20.8070   20.9440    8.3720 C.ar   62  PHE62      -0.0003
     70  CE2       22.6640   19.9840    9.5940 C.ar   62  PHE62      -0.0003
     71  CZ        21.6110   20.9040    9.5170 C.ar   62  PHE62      -0.0000
     72  N         28.1100   12.2280   15.4540 N.3   119  GLU119     -0.1231
     73  CA        26.7070   11.9420   15.1470 C.3   119  GLU119      0.1699
     74  C         26.4920   11.9940   13.6580 C.2   119  GLU119      0.2592
     75  O         27.1950   12.7020   12.9600 O.2   119  GLU119     -0.2718
     76  CB        25.7640   12.9270   15.8410 C.3   119  GLU119      0.0402
     77  CG        25.2710   12.4860   17.2350 C.3   119  GLU119      0.1161
     78  CD        23.8120   12.8990   17.5060 C.2   119  GLU119      0.3649
     79  OE1       23.5640   13.7060   18.4380 O.co2 119  GLU119     -0.2457
     80  OE2       22.9070   12.4140   16.7810 O.co2 119  GLU119     -0.2457
     81  N         25.5520   11.1980   13.1630 N.am  120  ILE120     -0.1966
     82  CA        25.0220   11.4200   11.8180 C.3   120  ILE120      0.1727
     83  C         23.9020   12.4870   11.8970 C.2   120  ILE120      0.2616
     84  O         22.8900   12.2970   12.5760 O.2   120  ILE120     -0.2715
     85  CB        24.5590   10.1180   11.1460 C.3   120  ILE120      0.0290
     86  CG1       25.7620    9.1720   10.9800 C.3   120  ILE120      0.0022
     87  CG2       23.8520   10.4180    9.8190 C.3   120  ILE120      0.0023
     88  CD1       25.5780    8.0030    9.9840 C.3   120  ILE120      0.0001
     89  N         24.1250   13.6190   11.2300 N.am  121  ALA121     -0.1963
     90  CA        23.1370   14.6770   11.1640 C.3   121  ALA121      0.1728
     91  C         22.0160   14.2690   10.2240 C.2   121  ALA121      0.2616
     92  O         20.8260   14.4360   10.5270 O.2   121  ALA121     -0.2715
     93  CB        23.7860   15.9990   10.7040 C.3   121  ALA121      0.0334
     94  N         22.4120   13.6980    9.0930 N.am  122  SER122     -0.1950
     95  CA        21.4980   13.3980    8.0270 C.3   122  SER122      0.1924
     96  C         22.1300   12.3420    7.1370 C.2   122  SER122      0.2314
     97  O         23.3340   12.3770    6.8960 O.2   122  SER122     -0.2863
     98  CB        21.2260   14.6720    7.2360 C.3   122  SER122      0.2116
     99  OG        20.1600   14.4710    6.3350 O.3   122  SER122     -0.2180
    100  N         18.4980    8.5830    1.5430 N.3   125  TYR125     -0.1241
    101  CA        17.5460    7.4860    1.6390 C.3   125  TYR125      0.1605
    102  C         18.1460    6.1230    1.3200 C.2   125  TYR125      0.2264
    103  O         17.7890    5.1460    1.9600 O.2   125  TYR125     -0.2867
    104  CB        16.2430    7.7810    0.8900 C.3   125  TYR125      0.0534
    105  CG        15.3220    8.5590    1.7930 C.ar  125  TYR125     -0.0201
    106  CD1       14.3500    7.9110    2.5600 C.ar  125  TYR125     -0.0009
    107  CD2       15.4700    9.9400    1.9420 C.ar  125  TYR125     -0.0009
    108  CE1       13.5120    8.6310    3.4300 C.ar  125  TYR125      0.0417
    109  CE2       14.6510   10.6650    2.8000 C.ar  125  TYR125      0.0417
    110  CZ        13.6740   10.0070    3.5350 C.ar  125  TYR125      0.1957
    111  OH        12.8810   10.7340    4.3730 O.3   125  TYR125     -0.2866
    112  N         19.5240    4.9690    4.4760 N.3   128  ARG128     -0.1245
    113  CA        18.4190    4.6000    5.3830 C.3   128  ARG128      0.1563
    114  C         17.7810    3.2730    4.9920 C.2   128  ARG128      0.2260
    115  O         17.3900    2.4770    5.8380 O.2   128  ARG128     -0.2867
    116  CB        17.3350    5.6610    5.3810 C.3   128  ARG128      0.0307
    117  CG        17.7250    6.8740    6.1220 C.3   128  ARG128      0.0489
    118  CD        16.6440    7.8910    6.0620 C.3   128  ARG128      0.2205
    119  NE        17.1820    9.2110    6.3390 N.pl3 128  ARG128     -0.0865
    120  CZ        16.4290   10.2800    6.5350 C.cat 128  ARG128      0.5346
    121  NH1       15.1040   10.1620    6.4880 N.pl3 128  ARG128      0.1354
    122  NH2       17.0010   11.4540    6.7910 N.pl3 128  ARG128      0.1354
    123  N         19.3820    8.9670   11.2150 N.3   134  ASN134     -0.1225
    124  CA        19.8340   10.2180   11.8210 C.3   134  ASN134      0.1785
    125  C         20.1140   10.0150   13.2970 C.2   134  ASN134      0.2597
    126  O         19.4100    9.2680   13.9660 O.2   134  ASN134     -0.2718
    127  CB        18.8010   11.3230   11.6390 C.3   134  ASN134      0.1169
    128  CG        18.6640   11.7490   10.2100 C.2   134  ASN134      0.2627
    129  OD1       19.3260   11.1960    9.3250 O.2   134  ASN134     -0.2716
    130  ND2       17.8270   12.7590    9.9660 N.am  134  ASN134     -0.0877
    131  N         21.1730   10.6470   13.7870 N.am  135  GLY135     -0.1957
    132  CA        21.5830   10.4870   15.1660 C.3   135  GLY135      0.1869
    133  C         22.3750    9.2240   15.4630 C.2   135  GLY135      0.2309
    134  O         22.8550    9.0500   16.5790 O.2   135  GLY135     -0.2863
    135  N         10.7500   24.4480   11.5880 N.3   180  SER180     -0.1202
    136  CA        12.1930   24.4950   11.6620 C.3   180  SER180      0.2020
    137  C         12.6780   24.9290   10.3000 C.2   180  SER180      0.2619
    138  O         11.8820   25.3210    9.4490 O.2   180  SER180     -0.2717
    139  CB        12.7730   23.1290   12.0310 C.3   180  SER180      0.2103
    140  OG        12.3010   22.1300   11.1430 O.3   180  SER180     -0.2182
    141  N         13.9850   24.8350   10.0970 N.am  181  CYS181     -0.1955
    142  CA        14.6330   25.3690    8.9090 C.3   181  CYS181      0.1843
    143  C         14.1580   24.7200    7.6190 C.2   181  CYS181      0.2625
    144  O         14.1620   25.3680    6.5730 O.2   181  CYS181     -0.2714
    145  CB        16.1540   25.2650    9.0420 C.3   181  CYS181      0.0997
    146  SG        16.7520   23.5760    9.2030 S.3   181  CYS181     -0.0797
    147  N         13.7200   23.4630    7.7020 N.am  182  ASP182     -0.1957
    148  CA        13.3480   22.6850    6.5250 C.3   182  ASP182      0.1840
    149  C         11.9140   22.1450    6.5770 C.2   182  ASP182      0.2621
    150  O         11.5860   21.1320    5.9480 O.2   182  ASP182     -0.2715
    151  CB        14.3190   21.5200    6.3810 C.3   182  ASP182      0.1450
    152  CG        13.9930   20.3690    7.3130 C.2   182  ASP182      0.3671
    153  OD1       13.7460   20.6080    8.5240 O.co2 182  ASP182     -0.2456
    154  OD2       13.9650   19.2150    6.8240 O.co2 182  ASP182     -0.2456
    155  N         11.0540   22.8240    7.3180 N.am  183  GLU183     -0.1977
    156  CA         9.7950   22.2240    7.7120 C.3   183  GLU183      0.1602
    157  C          8.8110   23.3060    8.0870 C.2   183  GLU183      0.2287
    158  O          9.0950   24.1330    8.9470 O.2   183  GLU183     -0.2864
    159  CB        10.0490   21.3140    8.9020 C.3   183  GLU183      0.0415
    160  CG         8.9360   20.3830    9.2470 C.3   183  GLU183      0.1163
    161  CD         9.3310   19.3870   10.3350 C.2   183  GLU183      0.3649
    162  OE1       10.4920   18.9090   10.3130 O.co2 183  GLU183     -0.2457
    163  OE2        8.4770   19.0770   11.2060 O.co2 183  GLU183     -0.2457
    164  N          7.0080   10.4750    2.6010 N.3   237  LYS237     -0.1245
    165  CA         8.4550   10.4340    2.4020 C.3   237  LYS237      0.1561
    166  C          8.8790    9.1110    1.7830 C.2   237  LYS237      0.2260
    167  O          8.3860    8.0610    2.2050 O.2   237  LYS237     -0.2867
    168  CB         9.1940   10.6390    3.7220 C.3   237  LYS237      0.0271
    169  CG         9.2460   12.0730    4.1900 C.3   237  LYS237      0.0035
    170  CD        10.1160   12.2320    5.4330 C.3   237  LYS237      0.0206
    171  CE        10.1930   13.7080    5.8840 C.3   237  LYS237      0.1093
    172  NZ        11.0040   14.6310    4.9870 N.3   237  LYS237     -0.1314
@<TRIPOS>BOND
     1   104   101    1
     2   104   105    1
     3    42    41    1
     4    42    43    1
     5   102   101    1
     6   102   103    2
     7   100   101    1
     8   166   167    2
     9   166   165    1
    10   105   107   ar
    11   105   106   ar
    12   107   109   ar
    13    49    48    1
    14    41    40    1
    15   165   164    1
    16   165   168    1
    17   106   108   ar
    18   109   110   ar
    19    64    63    2
    20    53    52    2
    21    47    46    2
    22    37    40    1
    23    37    38    1
    24    37    36    1
    25    31    30    2
    26   108   110   ar
    27    38    39    2
    28    58    56   ar
    29    58    60   ar
    30   110   111    1
    31   168   169    1
    32    63    62    1
    33    56    55   ar
    34    48    45    1
    35    44    45    1
    36    30    36   am
    37    30    29    1
    38    46    45    1
    39    46    50   am
    40    52    51    1
    41    52    61   am
    42   169   170    1
    43    28    29    1
    44    51    50    1
    45    51    54    1
    46    60    59   ar
    47   112   113    1
    48    62    61    1
    49    62    65    1
    50   172   171    1
    51   114   113    1
    52   114   115    2
    53    55    54    1
    54    55    57   ar
    55    29    32    1
    56   116   113    1
    57   116   117    1
    58   170   171    1
    59    59    57   ar
    60    32    33    1
    61   150   149    2
    62   118   117    1
    63   118   119    1
    64    65    66    1
    65    99    98    1
    66   119   120    2
    67   151   148    1
    68   151   152    1
    69   121   120    1
    70   148   149    1
    71   148   147    1
    72   120   122    1
    73   144   143    2
    74   149   155   am
    75    34    33   ar
    76    33    35   ar
    77   154   152   ar
    78    97    96    2
    79    96    95    1
    80    98    95    1
    81    67    66   ar
    82    67    69   ar
    83   152   153   ar
    84   155   156    1
    85    66    68   ar
    86   143   147   am
    87   143   142    1
    88   156   157    1
    89   156   159    1
    90    95    94    1
    91   157   158    2
    92    69    71   ar
    93    68    70   ar
    94   159   160    1
    95   142   145    1
    96   142   141    1
    97   145   146    1
    98    94    91   am
    99   160   161    1
   100   129   128    2
   101   138   137    2
   102    71    70   ar
   103    87    85    1
   104   130   128   am
   105    88    86    1
   106   141   137   am
   107   128   127    1
   108    91    92    2
   109    91    90    1
   110   137   136    1
   111   162   161   ar
   112   161   163   ar
   113    93    90    1
   114    86    85    1
   115   140   139    1
   116    85    82    1
   117    90    89    1
   118   123   124    1
   119    89    83   am
   120   135   136    1
   121   127   124    1
   122   136   139    1
   123    82    83    1
   124    82    81    1
   125   124   125    1
   126    83    84    2
   127    26    24    1
   128    75    74    2
   129    81    74   am
   130   125   131   am
   131   125   126    2
   132     5     2    1
   133     5     6    1
   134    24    21    1
   135    24    25    1
   136    21    20    1
   137    21    22    1
   138    74    73    1
   139   131   132    1
   140     7     6    1
   141     7     8    1
   142     2     3    1
   143     2     1    1
   144    23    22    2
   145     4     3    2
   146     8     9    2
   147    27    25    1
   148     3    12   am
   149    73    72    1
   150    73    76    1
   151   132   133    1
   152   133   134    2
   153     9    11    1
   154     9    10    1
   155    76    77    1
   156    12    13    1
   157    80    78   ar
   158    13    14    1
   159    13    16    1
   160    15    14    2
   161    77    78    1
   162    19    17    1
   163    78    79   ar
   164    17    16    1
   165    17    18    1
