@<TRIPOS>MOLECULE
tmp/3gqeA00.pdb
 100 98 0 0 0
SMALL
GASTEIGER

@<TRIPOS>ATOM
      1  N         61.4940   23.8490   10.0420 N.3    24  ALA24      -0.1231
      2  CA        60.5360   24.3700   10.9940 C.3    24  ALA24       0.1694
      3  C         61.1590   25.6740   11.4640 C.2    24  ALA24       0.2592
      4  O         62.0190   25.6700   12.3180 O.2    24  ALA24      -0.2718
      5  CB        60.3690   23.3890   12.1460 C.3    24  ALA24       0.0304
      6  N         60.7680   26.7780   10.8440 N.am   25  ALA25      -0.1966
      7  CA        61.4300   28.0350   11.0480 C.3    25  ALA25       0.1728
      8  C         60.6810   28.9370   12.0640 C.2    25  ALA25       0.2616
      9  O         59.5350   28.6550   12.4470 O.2    25  ALA25      -0.2715
     10  CB        61.5760   28.7620    9.7010 C.3    25  ALA25       0.0334
     11  N         61.3580   29.9950   12.4970 N.am   26  ASN26      -0.1972
     12  CA        60.6880   31.1120   13.1290 C.3    26  ASN26       0.1688
     13  C         60.3720   32.1070   12.0170 C.2    26  ASN26       0.2292
     14  O         60.7420   31.8840   10.8610 O.2    26  ASN26      -0.2864
     15  CB        61.5360   31.7350   14.2580 C.3    26  ASN26       0.1181
     16  CG        62.8450   32.3620   13.7650 C.2    26  ASN26       0.2629
     17  OD1       63.0450   32.5720   12.5620 O.2    26  ASN26      -0.2716
     18  ND2       63.7360   32.6880   14.7100 N.am   26  ASN26      -0.0877
     19  N         64.7410   31.4970   10.2270 N.3    30  GLN30      -0.1231
     20  CA        65.8230   30.7130   10.8210 C.3    30  GLN30       0.1683
     21  C         65.3730   29.3920   11.4420 C.2    30  GLN30       0.2434
     22  O         64.2800   29.2980   11.9940 O.2    30  GLN30      -0.2733
     23  CB        66.5800   31.5320   11.8580 C.3    30  GLN30       0.0380
     24  CG        67.5280   32.5610   11.2660 C.3    30  GLN30       0.0905
     25  CD        68.2390   33.3430   12.3270 C.2    30  GLN30       0.2608
     26  OE1       67.9310   33.2110   13.5140 O.2    30  GLN30      -0.2717
     27  NE2       69.1820   34.1840   11.9170 N.am   30  GLN30      -0.0878
     28  N         66.2310   28.3630   11.3540 N.am   31  PRO31      -0.2718
     29  CA        65.9940   27.1610   12.1200 C.3    31  PRO31       0.1535
     30  C         66.3630   27.4120   13.5770 C.2    31  PRO31       0.2599
     31  O         66.8570   28.5050   13.9260 O.2    31  PRO31      -0.2715
     32  CB        66.9840   26.1620   11.5110 C.3    31  PRO31       0.0310
     33  CG        68.0990   26.9980   11.0180 C.3    31  PRO31       0.0237
     34  CD        67.5330   28.3420   10.6630 C.3    31  PRO31       0.0939
     35  N         66.1550   26.4010   14.4110 N.am   32  GLY32      -0.1955
     36  CA        66.6640   26.4170   15.7830 C.3    32  GLY32       0.1869
     37  C         68.1700   26.6370   15.8380 C.2    32  GLY32       0.2309
     38  O         68.9210   26.0510   15.0540 O.2    32  GLY32      -0.2863
     39  N         59.7970   17.4920    9.8070 N.3   109  PRO109     -0.2102
     40  CA        59.7200   17.3070   11.2380 C.3   109  PRO109      0.1504
     41  C         58.3230   17.6850   11.8100 C.2   109  PRO109      0.2575
     42  O         57.4410   18.1350   11.0870 O.2   109  PRO109     -0.2718
     43  CB        60.7720   18.2990   11.7660 C.3   109  PRO109      0.0282
     44  CG        60.5660   19.4930   10.9000 C.3   109  PRO109      0.0208
     45  CD        60.2660   18.8580    9.4800 C.3   109  PRO109      0.0893
     46  N         58.1520   17.4880   13.1070 N.am  110  LEU110     -0.1980
     47  CA        56.9180   17.8260   13.7960 C.3   110  LEU110      0.1596
     48  C         56.9310   19.2990   14.2360 C.2   110  LEU110      0.2287
     49  O         57.5620   19.6360   15.2130 O.2   110  LEU110     -0.2864
     50  CB        56.7590   16.8760   14.9970 C.3   110  LEU110      0.0297
     51  CG        56.5610   15.3830   14.6850 C.3   110  LEU110      0.0022
     52  CD1       56.3260   14.5680   15.9710 C.3   110  LEU110      0.0001
     53  CD2       55.3950   15.1390   13.7180 C.3   110  LEU110      0.0001
     54  N         56.3800   22.8410   15.8870 N.3   112  SER112     -0.1202
     55  CA        55.9580   23.3700   17.1840 C.3   112  SER112      0.2020
     56  C         56.0750   22.3580   18.3290 C.2   112  SER112      0.2619
     57  O         55.3520   22.4450   19.3170 O.2   112  SER112     -0.2717
     58  CB        54.5210   23.9090   17.0980 C.3   112  SER112      0.2103
     59  OG        54.4190   25.0130   16.2090 O.3   112  SER112     -0.2182
     60  N         56.9780   21.3850   18.1870 N.am  113  THR113     -0.1938
     61  CA        57.1940   20.3760   19.2410 C.3   113  THR113      0.2028
     62  C         58.5170   20.5780   19.9590 C.2   113  THR113      0.2643
     63  O         58.8680   19.7730   20.8290 O.2   113  THR113     -0.2714
     64  CB        57.2040   18.9600   18.6940 C.3   113  THR113      0.1808
     65  OG1       58.2790   18.8310   17.7550 O.3   113  THR113     -0.2208
     66  CG2       55.8920   18.6300   18.0250 C.3   113  THR113      0.0379
     67  N         59.2610   21.6260   19.5900 N.am  114  GLY114     -0.1939
     68  CA        60.5180   21.9690   20.3050 C.3   114  GLY114      0.2014
     69  C         60.4260   23.3010   21.0720 C.2   114  GLY114      0.2639
     70  O         59.6950   23.4170   22.0700 O.2   114  GLY114     -0.2714
     71  N         61.1520   24.3070   20.5850 N.am  115  ILE115     -0.1963
     72  CA        61.2240   25.6510   21.1870 C.3   115  ILE115      0.1727
     73  C         59.8660   26.3750   21.1750 C.2   115  ILE115      0.2616
     74  O         59.5920   27.2500   22.0130 O.2   115  ILE115     -0.2715
     75  CB        62.2750   26.4840   20.4150 C.3   115  ILE115      0.0290
     76  CG1       62.3770   27.9180   20.9130 C.3   115  ILE115      0.0022
     77  CG2       61.9460   26.5280   18.9670 C.3   115  ILE115      0.0023
     78  CD1       62.5280   28.9060   19.7780 C.3   115  ILE115      0.0001
     79  N         59.0200   25.9840   20.2230 N.am  116  PHE116     -0.1974
     80  CA        57.6760   26.5330   20.0670 C.3   116  PHE116      0.1639
     81  C         56.5870   25.7370   20.8360 C.2   116  PHE116      0.2290
     82  O         55.4300   26.1120   20.8170 O.2   116  PHE116     -0.2864
     83  CB        57.3370   26.6710   18.5730 C.3   116  PHE116      0.0560
     84  CG        57.9440   27.8960   17.9080 C.ar  116  PHE116     -0.0200
     85  CD1       58.8230   28.7270   18.6010 C.ar  116  PHE116     -0.0042
     86  CD2       57.6400   28.2070   16.5840 C.ar  116  PHE116     -0.0042
     87  CE1       59.3720   29.8510   18.0040 C.ar  116  PHE116     -0.0003
     88  CE2       58.1890   29.3380   15.9670 C.ar  116  PHE116     -0.0003
     89  CZ        59.0550   30.1570   16.6840 C.ar  116  PHE116     -0.0000
     90  N         64.0340   13.6340   16.7950 N.3   146  ARG146     -0.1245
     91  CA        65.3130   13.4340   17.4880 C.3   146  ARG146      0.1563
     92  C         65.2700   12.3600   18.5810 C.2   146  ARG146      0.2260
     93  O         66.2270   11.6000   18.7480 O.2   146  ARG146     -0.2867
     94  CB        65.8240   14.7440   18.0770 C.3   146  ARG146      0.0307
     95  CG        67.1750   14.9250   17.4440 C.3   146  ARG146      0.0489
     96  CD        67.0960   15.8010   16.1950 C.3   146  ARG146      0.2205
     97  NE        68.2790   16.6630   16.0830 N.pl3 146  ARG146     -0.0865
     98  CZ        68.3910   17.8700   16.6430 C.cat 146  ARG146      0.5346
     99  NH1       67.3900   18.3810   17.3550 N.pl3 146  ARG146      0.1354
    100  NH2       69.5050   18.5750   16.4870 N.pl3 146  ARG146      0.1354
@<TRIPOS>BOND
     1    45    39    1
     2    45    44    1
     3    10     7    1
     4    39    40    1
     5     1     2    1
     6    19    20    1
     7    34    33    1
     8    34    28    1
     9    20    21    1
    10    20    23    1
    11     6     7    1
    12     6     3   am
    13    14    13    2
    14    44    43    1
    15     2     3    1
    16     2     5    1
    17    33    32    1
    18     7     8    1
    19    42    41    2
    20    40    43    1
    21    40    41    1
    22    24    23    1
    23    24    25    1
    24    28    21   am
    25    28    29    1
    26    21    22    2
    27     3     4    2
    28    32    29    1
    29    41    46   am
    30    27    25   am
    31    13    12    1
    32     8     9    2
    33     8    11   am
    34    29    30    1
    35    25    26    2
    36    11    12    1
    37    17    16    2
    38    46    47    1
    39    12    15    1
    40    30    31    2
    41    30    35   am
    42    53    51    1
    43    16    15    1
    44    16    18   am
    45    47    48    1
    46    47    50    1
    47    48    49    2
    48    35    36    1
    49    51    50    1
    50    51    52    1
    51    38    37    2
    52    36    37    1
    53    54    55    1
    54    88    86   ar
    55    88    89   ar
    56    97    96    1
    57    97    98    2
    58    96    95    1
    59    59    58    1
    60   100    98    1
    61    86    84   ar
    62    98    99    1
    63    89    87   ar
    64    90    91    1
    65    58    55    1
    66    55    56    1
    67    95    94    1
    68    91    94    1
    69    91    92    1
    70    65    64    1
    71    84    83    1
    72    84    85   ar
    73    87    85   ar
    74    66    64    1
    75    60    56   am
    76    60    61    1
    77    56    57    2
    78    83    80    1
    79    92    93    2
    80    64    61    1
    81    77    75    1
    82    61    62    1
    83    67    62   am
    84    67    68    1
    85    78    76    1
    86    62    63    2
    87    80    79    1
    88    80    81    1
    89    79    73   am
    90    68    69    1
    91    75    76    1
    92    75    72    1
    93    71    69   am
    94    71    72    1
    95    82    81    2
    96    69    70    2
    97    73    72    1
    98    73    74    2
