@<TRIPOS>MOLECULE
tmp/3gqlA00.pdb
 175 163 0 0 0
SMALL
GASTEIGER

@<TRIPOS>ATOM
      1  N         52.5880  -12.6700   -2.2100 N.3    22  LEU22      -0.1231
      2  CA        52.3980  -11.8810   -0.9960 C.3    22  LEU22       0.1693
      3  C         51.2890  -12.4530   -0.1650 C.2    22  LEU22       0.2593
      4  O         50.9050  -11.9010    0.8560 O.2    22  LEU22      -0.2718
      5  CB        52.0630  -10.4320   -1.3420 C.3    22  LEU22       0.0284
      6  CG        53.2190   -9.6890   -1.9980 C.3    22  LEU22       0.0019
      7  CD1       52.7260   -8.3930   -2.5860 C.3    22  LEU22       0.0001
      8  CD2       54.3170   -9.4730   -0.9730 C.3    22  LEU22       0.0001
      9  N         50.7770  -13.5840   -0.6060 N.am   23  GLY23      -0.1942
     10  CA        49.7010  -14.2180    0.1170 C.3    23  GLY23       0.2014
     11  C         48.5160  -14.4330   -0.7910 C.2    23  GLY23       0.2639
     12  O         48.6460  -14.5970   -2.0100 O.2    23  GLY23      -0.2714
     13  N         47.3400  -14.4340   -0.1990 N.am   24  GLU24      -0.1963
     14  CA        46.1480  -14.6340   -0.9840 C.3    24  GLU24       0.1733
     15  C         44.9450  -13.9970   -0.2800 C.2    24  GLU24       0.2616
     16  O         44.7380  -14.1910    0.9240 O.2    24  GLU24      -0.2715
     17  CB        45.9500  -16.1480   -1.2540 C.3    24  GLU24       0.0429
     18  CG        45.7090  -17.0190   -0.0360 C.3    24  GLU24       0.1163
     19  CD        44.2690  -17.5230    0.0390 C.2    24  GLU24       0.3649
     20  OE1       43.8760  -18.1010    1.0760 O.co2  24  GLU24      -0.2457
     21  OE2       43.5210  -17.3470   -0.9480 O.co2  24  GLU24      -0.2457
     22  N         44.1810  -13.2060   -1.0300 N.am   25  GLY25      -0.1955
     23  CA        43.0050  -12.5690   -0.4750 C.3    25  GLY25       0.1869
     24  C         41.9750  -13.6560   -0.2290 C.2    25  GLY25       0.2309
     25  O         42.3160  -14.8400   -0.2020 O.2    25  GLY25      -0.2863
     26  N         47.2620  -12.6860   -4.1470 N.3    30  VAL30      -0.1245
     27  CA        48.0720  -11.5220   -4.5060 C.3    30  VAL30       0.1561
     28  C         49.5620  -11.8580   -4.4980 C.2    30  VAL30       0.2260
     29  O         50.0640  -12.4820   -3.5690 O.2    30  VAL30      -0.2867
     30  CB        47.8360  -10.3640   -3.5210 C.3    30  VAL30       0.0252
     31  CG1       48.5580   -9.1290   -3.9960 C.3    30  VAL30       0.0019
     32  CG2       46.3460  -10.1080   -3.3650 C.3    30  VAL30       0.0019
     33  N         51.8370   -4.6860   -6.4430 N.3    50  ALA50      -0.1245
     34  CA        51.0730   -5.7940   -5.9010 C.3    50  ALA50       0.1562
     35  C         50.0160   -6.1390   -6.9370 C.2    50  ALA50       0.2260
     36  O         49.2250   -5.2830   -7.3160 O.2    50  ALA50      -0.2867
     37  CB        50.4070   -5.3800   -4.6060 C.3    50  ALA50       0.0290
     38  N         46.7570   -8.4940   -7.8100 N.3    52  LYS52      -0.1245
     39  CA        45.7380   -9.4280   -7.3470 C.3    52  LYS52       0.1561
     40  C         45.2100  -10.1920   -8.5510 C.2    52  LYS52       0.2260
     41  O         45.0830   -9.6350   -9.6470 O.2    52  LYS52      -0.2867
     42  CB        44.6090   -8.6710   -6.6640 C.3    52  LYS52       0.0271
     43  CG        43.5590   -9.5590   -6.0590 C.3    52  LYS52       0.0035
     44  CD        42.6630   -8.7860   -5.1160 C.3    52  LYS52       0.0206
     45  CE        41.7540   -9.7300   -4.3980 C.3    52  LYS52       0.1093
     46  NZ        40.6910   -9.0520   -3.6290 N.3    52  LYS52      -0.1314
     47  N         35.5980   -5.1480   -7.9800 N.3    69  GLU69      -0.1245
     48  CA        36.4940   -4.4820   -7.0550 C.3    69  GLU69       0.1567
     49  C         37.3660   -3.4680   -7.7930 C.2    69  GLU69       0.2260
     50  O         37.6280   -2.3820   -7.2960 O.2    69  GLU69      -0.2867
     51  CB        37.3670   -5.5190   -6.3830 C.3    69  GLU69       0.0388
     52  CG        38.2150   -4.9830   -5.2700 C.3    69  GLU69       0.1160
     53  CD        39.2290   -6.0000   -4.8240 C.2    69  GLU69       0.3649
     54  OE1       38.8620   -7.1890   -4.7320 O.co2  69  GLU69      -0.2457
     55  OE2       40.3850   -5.6180   -4.5610 O.co2  69  GLU69      -0.2457
     56  N         37.5150    0.7930   -7.3610 N.3    73  MET73      -0.1245
     57  CA        38.7560    1.4860   -7.1000 C.3    73  MET73       0.1570
     58  C         38.9390    2.6010   -8.1100 C.2    73  MET73       0.2261
     59  O         39.5160    3.6350   -7.7960 O.2    73  MET73      -0.2867
     60  CB        39.9330    0.5140   -7.1560 C.3    73  MET73       0.0387
     61  CG        39.9620   -0.4920   -6.0240 C.3    73  MET73       0.0595
     62  SD        41.6660   -0.9570   -5.5910 S.3    73  MET73      -0.1393
     63  CE        42.0000   -2.1550   -6.7980 C.3    73  MET73       0.0692
     64  N         45.2990    2.2110   -0.4710 N.3    83  ILE83      -0.1245
     65  CA        46.0150    1.4210   -1.4860 C.3    83  ILE83       0.1561
     66  C         45.3580    1.8230   -2.8100 C.2    83  ILE83       0.2260
     67  O         44.1530    1.6650   -2.9650 O.2    83  ILE83      -0.2867
     68  CB        45.8510   -0.1090   -1.2540 C.3    83  ILE83       0.0252
     69  CG1       46.5060   -0.5210    0.0670 C.3    83  ILE83       0.0019
     70  CG2       46.4990   -0.8670   -2.3730 C.3    83  ILE83       0.0019
     71  CD1       48.0140   -0.2460    0.0890 C.3    83  ILE83       0.0001
     72  N         44.7690   -7.2440  -11.5960 N.3    97  VAL97      -0.1245
     73  CA        44.4850   -5.9310  -11.0230 C.3    97  VAL97       0.1561
     74  C         45.7540   -5.4670  -10.2890 C.2    97  VAL97       0.2260
     75  O         46.1130   -6.0150   -9.2600 O.2    97  VAL97      -0.2867
     76  CB        43.3350   -6.0040  -10.0170 C.3    97  VAL97       0.0252
     77  CG1       42.9200   -4.6170   -9.6090 C.3    97  VAL97       0.0019
     78  CG2       42.1660   -6.7410  -10.6240 C.3    97  VAL97       0.0019
     79  N         47.9210   -2.9130   -8.0160 N.3    99  VAL99      -0.1231
     80  CA        47.7850   -1.8480   -7.0300 C.3    99  VAL99       0.1692
     81  C         49.1030   -1.5070   -6.3760 C.2    99  VAL99       0.2592
     82  O         50.1440   -1.9810   -6.7870 O.2    99  VAL99      -0.2718
     83  CB        46.7710   -2.1980   -5.9670 C.3    99  VAL99       0.0266
     84  CG1       45.4730   -2.5680   -6.6540 C.3    99  VAL99       0.0020
     85  CG2       47.2880   -3.3310   -5.0720 C.3    99  VAL99       0.0020
     86  N         49.0790   -0.6730   -5.3540 N.am  100  GLU100     -0.1966
     87  CA        50.3480   -0.2700   -4.7470 C.3   100  GLU100      0.1733
     88  C         50.9270   -1.3330   -3.8250 C.2   100  GLU100      0.2616
     89  O         50.1890   -2.0730   -3.1670 O.2   100  GLU100     -0.2715
     90  CB        50.1780    1.0670   -4.0010 C.3   100  GLU100      0.0429
     91  CG        49.8080    2.2170   -4.8990 C.3   100  GLU100      0.1163
     92  CD        49.4770    3.5110   -4.1440 C.2   100  GLU100      0.3649
     93  OE1       48.4990    3.5330   -3.3600 O.co2 100  GLU100     -0.2457
     94  OE2       50.1970    4.5160   -4.3520 O.co2 100  GLU100     -0.2457
     95  N         52.2530   -1.3920   -3.7780 N.am  101  TYR101     -0.1960
     96  CA        52.9580   -2.3460   -2.9260 C.3   101  TYR101      0.1771
     97  C         53.3500   -1.7280   -1.5980 C.2   101  TYR101      0.2619
     98  O         53.8750   -0.6230   -1.5730 O.2   101  TYR101     -0.2715
     99  CB        54.2030   -2.8490   -3.6450 C.3   101  TYR101      0.0574
    100  CG        55.0870   -3.7380   -2.8200 C.ar  101  TYR101     -0.0198
    101  CD1       54.5520   -4.7580   -2.0300 C.ar  101  TYR101     -0.0009
    102  CD2       56.4680   -3.5870   -2.8740 C.ar  101  TYR101     -0.0009
    103  CE1       55.3830   -5.6160   -1.3100 C.ar  101  TYR101      0.0417
    104  CE2       57.3050   -4.4260   -2.1710 C.ar  101  TYR101      0.0417
    105  CZ        56.7660   -5.4390   -1.3920 C.ar  101  TYR101      0.1957
    106  OH        57.6340   -6.2730   -0.7120 O.3   101  TYR101     -0.2866
    107  N         53.0610   -2.4550   -0.5190 N.am  102  ALA102     -0.1977
    108  CA        53.3610   -2.0570    0.8610 C.3   102  ALA102      0.1597
    109  C         54.4100   -3.0220    1.4020 C.2   102  ALA102      0.2287
    110  O         54.0550   -4.0860    1.9370 O.2   102  ALA102     -0.2864
    111  CB        52.1110   -2.1620    1.7040 C.3   102  ALA102      0.0319
    112  N         54.3600   -4.8400    5.4450 N.3   105  GLY105     -0.1210
    113  CA        53.2330   -5.5460    6.0380 C.3   105  GLY105      0.1956
    114  C         52.1160   -4.6600    6.5360 C.2   105  GLY105      0.2611
    115  O         52.0990   -3.4860    6.2180 O.2   105  GLY105     -0.2717
    116  N         51.1750   -5.2230    7.2940 N.am  106  ASN106     -0.1974
    117  CA        50.0720   -4.4460    7.8180 C.3   106  ASN106      0.1688
    118  C         50.4710   -3.7160    9.1000 C.2   106  ASN106      0.2292
    119  O         51.4970   -4.0050    9.7170 O.2   106  ASN106     -0.2864
    120  CB        48.8760   -5.3370    8.0790 C.3   106  ASN106      0.1181
    121  CG        49.1270   -6.3340    9.1900 C.2   106  ASN106      0.2629
    122  OD1       49.4040   -5.9650   10.3520 O.2   106  ASN106     -0.2716
    123  ND2       49.0270   -7.6160    8.8460 N.am  106  ASN106     -0.0877
    124  N         51.4110   -5.9860   12.2330 N.3   109  GLU109     -0.1245
    125  CA        52.7140   -6.6000   12.1600 C.3   109  GLU109      0.1567
    126  C         53.7760   -5.5440   12.4350 C.2   109  GLU109      0.2260
    127  O         54.6560   -5.7400   13.2690 O.2   109  GLU109     -0.2867
    128  CB        52.9070   -7.2260   10.7910 C.3   109  GLU109      0.0388
    129  CG        51.7790   -8.1400   10.4160 C.3   109  GLU109      0.1160
    130  CD        52.0730   -8.9210    9.1460 C.2   109  GLU109      0.3649
    131  OE1       52.8300   -9.9160    9.2520 O.co2 109  GLU109     -0.2457
    132  OE2       51.5740   -8.5470    8.0450 O.co2 109  GLU109     -0.2457
    133  N         45.1290   -4.7010   10.7540 N.3   152  ARG152     -0.1245
    134  CA        45.5080   -5.7150    9.7860 C.3   152  ARG152      0.1563
    135  C         45.1310   -5.3090    8.3670 C.2   152  ARG152      0.2260
    136  O         45.7640   -5.7300    7.4070 O.2   152  ARG152     -0.2867
    137  CB        44.8600   -7.0490   10.1270 C.3   152  ARG152      0.0307
    138  CG        43.3700   -6.9820   10.2830 C.3   152  ARG152      0.0489
    139  CD        42.7390   -8.3610   10.3700 C.3   152  ARG152      0.2205
    140  NE        41.3350   -8.2630   10.7440 N.pl3 152  ARG152     -0.0865
    141  CZ        40.9160   -8.1340   11.9930 C.cat 152  ARG152      0.5346
    142  NH1       41.8010   -8.1070   12.9920 N.pl3 152  ARG152      0.1354
    143  NH2       39.6140   -7.9840   12.2350 N.pl3 152  ARG152      0.1354
    144  N         47.9240   -1.1290    5.6010 N.3   155  LEU155     -0.1245
    145  CA        49.2720   -1.5120    5.2250 C.3   155  LEU155      0.1561
    146  C         50.2210   -0.3480    5.2600 C.2   155  LEU155      0.2260
    147  O         49.8220    0.8060    5.0800 O.2   155  LEU155     -0.2867
    148  CB        49.2840   -2.1360    3.8230 C.3   155  LEU155      0.0270
    149  CG        48.3520   -3.3310    3.5400 C.3   155  LEU155      0.0019
    150  CD1       48.6960   -3.9220    2.1720 C.3   155  LEU155      0.0001
    151  CD2       48.4820   -4.4040    4.6380 C.3   155  LEU155      0.0001
    152  N         43.3830   -0.7350    3.2460 N.3   165  ALA165     -0.1231
    153  CA        43.1450   -1.7670    2.2300 C.3   165  ALA165      0.1694
    154  C         41.7810   -2.4170    2.2960 C.2   165  ALA165      0.2592
    155  O         41.0850   -2.3100    3.3270 O.2   165  ALA165     -0.2718
    156  CB        44.1990   -2.8300    2.3140 C.3   165  ALA165      0.0304
    157  N         41.4130   -3.0710    1.1770 N.am  166  ASP166     -0.1960
    158  CA        40.1370   -3.7920    1.0030 C.3   166  ASP166      0.1840
    159  C         38.9470   -2.9430    1.2950 C.2   166  ASP166      0.2622
    160  O         37.9900   -3.3950    1.9490 O.2   166  ASP166     -0.2715
    161  CB        40.0640   -5.0290    1.8870 C.3   166  ASP166      0.1450
    162  CG        41.1860   -5.9950    1.5930 C.2   166  ASP166      0.3671
    163  OD1       41.5380   -6.1060    0.3870 O.co2 166  ASP166     -0.2456
    164  OD2       41.7160   -6.6310    2.5460 O.co2 166  ASP166     -0.2456
    165  N         39.0120   -1.7120    0.8060 N.am  167  PHE167     -0.1974
    166  CA        37.9640   -0.7230    0.9980 C.3   167  PHE167      0.1639
    167  C         36.9160   -0.7770   -0.1120 C.2   167  PHE167      0.2290
    168  O         35.8460   -0.1910    0.0160 O.2   167  PHE167     -0.2864
    169  CB        38.5950    0.6610    1.0780 C.3   167  PHE167      0.0560
    170  CG        39.4380    1.0070   -0.1200 C.ar  167  PHE167     -0.0200
    171  CD1       38.8470    1.2830   -1.3680 C.ar  167  PHE167     -0.0042
    172  CD2       40.8290    1.0350   -0.0050 C.ar  167  PHE167     -0.0042
    173  CE1       39.6230    1.5830   -2.4890 C.ar  167  PHE167     -0.0003
    174  CE2       41.6450    1.3340   -1.1170 C.ar  167  PHE167     -0.0003
    175  CZ        41.0370    1.6140   -2.3770 C.ar  167  PHE167     -0.0000
@<TRIPOS>BOND
     1    72    73    1
     2    73    74    1
     3    73    76    1
     4    78    76    1
     5    74    75    2
     6    76    77    1
     7    41    40    2
     8    40    39    1
     9    58    59    2
    10    58    57    1
    11    79    80    1
    12    47    48    1
    13    38    39    1
    14    49    50    2
    15    49    48    1
    16    56    57    1
    17    39    42    1
    18    36    35    2
    19    60    57    1
    20    60    61    1
    21    48    51    1
    22    80    81    1
    23    80    83    1
    24    35    34    1
    25    63    62    1
    26    82    81    2
    27    42    43    1
    28    84    83    1
    29    33    34    1
    30    51    52    1
    31    81    86   am
    32    43    44    1
    33    61    62    1
    34    83    85    1
    35    34    37    1
    36    86    87    1
    37    52    53    1
    38    44    45    1
    39    91    92    1
    40    91    90    1
    41    53    54   ar
    42    53    55   ar
    43    87    90    1
    44    87    88    1
    45    27    28    1
    46    27    26    1
    47    27    30    1
    48    28    29    2
    49    45    46    1
    50    94    92   ar
    51    92    93   ar
    52    31    30    1
    53    88    95   am
    54    88    89    2
    55    95    96    1
    56    99    96    1
    57    99   100    1
    58    30    32    1
    59    67    66    2
    60    96    97    1
    61   102   100   ar
    62   102   104   ar
    63   100   101   ar
    64    66    65    1
    65     7     6    1
    66   173   175   ar
    67   173   171   ar
    68   175   174   ar
    69    70    68    1
    70     1     2    1
    71   104   105   ar
    72   101   103   ar
    73    12    11    2
    74     6     5    1
    75     6     8    1
    76    97    98    2
    77    97   107   am
    78    65    68    1
    79    65    64    1
    80   105   103   ar
    81   105   106    1
    82   171   170   ar
    83     5     2    1
    84    68    69    1
    85    17    14    1
    86    17    18    1
    87   174   172   ar
    88    22    23    1
    89    22    15   am
    90     2     3    1
    91    14    15    1
    92    14    13    1
    93    21    19   ar
    94    11    13   am
    95    11    10    1
    96     9     3   am
    97     9    10    1
    98   107   108    1
    99    23    24    1
   100    15    16    2
   101    24    25    2
   102     3     4    2
   103   170   172   ar
   104   170   169    1
   105   167   168    2
   106   167   166    1
   107    18    19    1
   108    19    20   ar
   109    69    71    1
   110   163   162   ar
   111   165   166    1
   112   165   159   am
   113   108   109    1
   114   108   111    1
   115   166   169    1
   116   158   157    1
   117   158   159    1
   118   158   161    1
   119   157   154   am
   120   159   160    2
   121   109   110    2
   122   162   161    1
   123   162   164   ar
   124   150   149    1
   125   153   154    1
   126   153   156    1
   127   153   152    1
   128   154   155    2
   129   149   148    1
   130   149   151    1
   131   148   145    1
   132   147   146    2
   133   145   146    1
   134   145   144    1
   135   112   113    1
   136   113   114    1
   137   115   114    2
   138   114   116   am
   139   116   117    1
   140   136   135    2
   141   117   120    1
   142   117   118    1
   143   132   130   ar
   144   120   121    1
   145   135   134    1
   146   123   121   am
   147   118   119    2
   148   130   131   ar
   149   130   129    1
   150   121   122    2
   151   134   137    1
   152   134   133    1
   153   137   138    1
   154   138   139    1
   155   139   140    1
   156   129   128    1
   157   140   141    2
   158   128   125    1
   159   141   143    1
   160   141   142    1
   161   125   124    1
   162   125   126    1
   163   126   127    2
