@<TRIPOS>MOLECULE
tmp/3gqoB00.pdb
 191 187 0 0 0
SMALL
GASTEIGER

@<TRIPOS>ATOM
      1  N        -42.0590   -5.2180   17.3560 N.3     9  GLY9       -0.1210
      2  CA       -43.2270   -4.4280   17.7070 C.3     9  GLY9        0.1956
      3  C        -43.8890   -3.8300   16.4970 C.2     9  GLY9        0.2612
      4  O        -43.5550   -4.1870   15.3700 O.2     9  GLY9       -0.2717
      5  N        -44.8300   -2.9200   16.7340 N.am   10  ASP10      -0.1959
      6  CA       -45.6400   -2.3640   15.6590 C.3    10  ASP10       0.1840
      7  C        -44.9040   -1.1970   15.0080 C.2    10  ASP10       0.2621
      8  O        -44.6750   -0.1620   15.6350 O.2    10  ASP10      -0.2715
      9  CB       -47.0120   -1.9450   16.2040 C.3    10  ASP10       0.1450
     10  CG       -47.9200   -1.3300   15.1460 C.2    10  ASP10       0.3671
     11  OD1      -47.6290   -1.4260   13.9460 O.co2  10  ASP10      -0.2456
     12  OD2      -48.9470   -0.7380   15.5240 O.co2  10  ASP10      -0.2456
     13  N        -44.5470   -1.3640   13.7480 N.am   11  ILE11      -0.1977
     14  CA       -43.7980   -0.3410   13.0190 C.3    11  ILE11       0.1596
     15  C        -44.5190    1.0160   12.9660 C.2    11  ILE11       0.2287
     16  O        -43.8870    2.0590   12.7970 O.2    11  ILE11      -0.2864
     17  CB       -43.4150   -0.8290   11.5880 C.3    11  ILE11       0.0276
     18  CG1      -42.3260    0.0640   10.9850 C.3    11  ILE11       0.0022
     19  CG2      -44.6560   -0.9760   10.7090 C.3    11  ILE11       0.0022
     20  CD1      -41.6760   -0.4850    9.7340 C.3    11  ILE11       0.0001
     21  N        -44.8160   -1.5390    3.4700 N.3    22  ALA22      -0.1231
     22  CA       -44.8150   -2.6630    2.5360 C.3    22  ALA22       0.1694
     23  C        -46.1610   -2.5910    1.8440 C.2    22  ALA22       0.2592
     24  O        -47.1500   -3.1700    2.3080 O.2    22  ALA22      -0.2718
     25  CB       -44.6510   -3.9640    3.2680 C.3    22  ALA22       0.0304
     26  N        -46.1880   -1.8360    0.7500 N.am   23  ALA23      -0.1966
     27  CA       -47.4150   -1.4100    0.1160 C.3    23  ALA23       0.1728
     28  C        -47.8780   -2.3710   -0.9690 C.2    23  ALA23       0.2616
     29  O        -47.1600   -3.3120   -1.3130 O.2    23  ALA23      -0.2715
     30  CB       -47.2220   -0.0400   -0.4450 C.3    23  ALA23       0.0334
     31  N        -49.0950   -2.1340   -1.4780 N.am   24  ASN24      -0.1972
     32  CA       -49.6200   -2.8480   -2.6450 C.3    24  ASN24       0.1688
     33  C        -49.3890   -2.0290   -3.9110 C.2    24  ASN24       0.2292
     34  O        -49.3180   -0.8010   -3.8450 O.2    24  ASN24      -0.2864
     35  CB       -51.1070   -3.1560   -2.4880 C.3    24  ASN24       0.1181
     36  CG       -51.6150   -4.1820   -3.5230 C.2    24  ASN24       0.2629
     37  OD1      -51.7990   -3.8710   -4.7150 O.2    24  ASN24      -0.2716
     38  ND2      -51.8580   -5.4010   -3.0620 N.am   24  ASN24      -0.0877
     39  N        -53.8320    1.0330   -2.1680 N.3    28  GLN28      -0.1245
     40  CA       -54.8360    1.1260   -1.1010 C.3    28  GLN28       0.1566
     41  C        -54.3350    0.4300    0.1530 C.2    28  GLN28       0.2260
     42  O        -53.5050   -0.4720    0.0700 O.2    28  GLN28      -0.2867
     43  CB       -56.1560    0.5070   -1.5430 C.3    28  GLN28       0.0367
     44  CG       -56.6020    0.8440   -2.9560 C.3    28  GLN28       0.0905
     45  CD       -56.5670    2.3320   -3.2540 C.2    28  GLN28       0.2608
     46  OE1      -57.2030    3.1310   -2.5650 O.2    28  GLN28      -0.2717
     47  NE2      -55.8180    2.7100   -4.2940 N.am   28  GLN28      -0.0878
     48  N        -54.7860   -2.4340    2.8930 N.3    30  GLY30      -0.1210
     49  CA       -53.9330   -2.4780    4.0050 C.3    30  GLY30       0.1956
     50  C        -54.4100   -3.4050    5.0950 C.2    30  GLY30       0.2612
     51  O        -55.1450   -3.0410    5.9440 O.2    30  GLY30      -0.2717
     52  N        -53.9060   -4.6140    5.0770 N.am   31  GLY31      -0.1942
     53  CA       -53.6990   -5.4280    6.2350 C.3    31  GLY31       0.2014
     54  C        -52.2620   -5.1640    6.5370 C.2    31  GLY31       0.2639
     55  O        -51.6570   -4.4090    5.8680 O.2    31  GLY31      -0.2714
     56  N        -51.7080   -5.8010    7.5310 N.am   32  GLY32      -0.1939
     57  CA       -50.2840   -5.8070    7.7340 C.3    32  GLY32       0.2014
     58  C        -49.6970   -4.5460    8.2690 C.2    32  GLY32       0.2639
     59  O        -50.2860   -3.9140    9.0660 O.2    32  GLY32      -0.2714
     60  N        -48.5100   -4.1980    7.8210 N.am   33  VAL33      -0.1963
     61  CA       -47.9310   -2.8860    8.1340 C.3    33  VAL33       0.1727
     62  C        -48.6970   -1.7930    7.4030 C.2    33  VAL33       0.2616
     63  O        -49.0340   -0.7700    7.9980 O.2    33  VAL33      -0.2715
     64  CB       -46.3530   -2.7720    7.9710 C.3    33  VAL33       0.0290
     65  CG1      -45.6820   -4.1240    7.8870 C.3    33  VAL33       0.0023
     66  CG2      -45.9400   -1.8920    6.8070 C.3    33  VAL33       0.0023
     67  N        -49.0300   -2.0350    6.1400 N.am   34  CYS34      -0.1968
     68  CA       -49.8190   -1.0810    5.3680 C.3    34  CYS34       0.1712
     69  C        -51.0800   -0.6250    6.0670 C.2    34  CYS34       0.2296
     70  O        -51.3800    0.5590    6.0830 O.2    34  CYS34      -0.2864
     71  CB       -50.2110   -1.6710    4.0360 C.3    34  CYS34       0.0983
     72  SG       -50.9790   -0.4450    3.0440 S.3    34  CYS34      -0.0798
     73  N        -51.7110   -1.0140    9.4300 N.3    36  ALA36      -0.1245
     74  CA       -51.3770   -0.3450   10.6890 C.3    36  ALA36       0.1562
     75  C        -50.9860    1.1080   10.4280 C.2    36  ALA36       0.2260
     76  O        -51.4050    2.0140   11.1600 O.2    36  ALA36      -0.2867
     77  CB       -50.2760   -1.0800   11.4310 C.3    36  ALA36       0.0290
     78  N        -43.3440   -4.6820   -2.6980 N.3    70  GLY70      -0.1225
     79  CA       -42.6340   -5.9280   -2.8280 C.3    70  GLY70       0.1811
     80  C        -43.4270   -6.8440   -3.7310 C.2    70  GLY70       0.2280
     81  O        -44.5920   -6.5960   -4.0000 O.2    70  GLY70      -0.2866
     82  N        -39.9580   -2.5320    7.3930 N.3   107  PRO107     -0.2102
     83  CA       -40.4280   -3.8850    7.5860 C.3   107  PRO107      0.1504
     84  C        -39.7460   -4.7870    6.5670 C.2   107  PRO107      0.2576
     85  O        -39.1280   -4.2940    5.6200 O.2   107  PRO107     -0.2718
     86  CB       -41.9200   -3.7710    7.2670 C.3   107  PRO107      0.0282
     87  CG       -41.9880   -2.7240    6.2190 C.3   107  PRO107      0.0208
     88  CD       -40.8180   -1.7880    6.4500 C.3   107  PRO107      0.0893
     89  N        -39.8470   -6.0960    6.7590 N.am  108  LEU108     -0.1966
     90  CA       -39.2730   -7.0200    5.8030 C.3   108  LEU108      0.1728
     91  C        -40.2910   -7.2610    4.7180 C.2   108  LEU108      0.2616
     92  O        -41.2270   -8.0370    4.8930 O.2   108  LEU108     -0.2715
     93  CB       -38.8610   -8.3260    6.4770 C.3   108  LEU108      0.0311
     94  CG       -37.6740   -8.2370    7.4330 C.3   108  LEU108      0.0022
     95  CD1      -37.5640   -9.5040    8.2740 C.3   108  LEU108      0.0001
     96  CD2      -36.4030   -8.0020    6.6620 C.3   108  LEU108      0.0001
     97  N        -40.1100   -6.5620    3.6080 N.am  109  LEU109     -0.1963
     98  CA       -40.9620   -6.6950    2.4350 C.3   109  LEU109      0.1728
     99  C        -41.2130   -8.1500    2.0470 C.2   109  LEU109      0.2617
    100  O        -40.3120   -8.9900    2.1250 O.2   109  LEU109     -0.2715
    101  CB       -40.3510   -5.9570    1.2440 C.3   109  LEU109      0.0311
    102  CG       -40.3290   -4.4260    1.2860 C.3   109  LEU109      0.0022
    103  CD1      -39.8620   -3.8880   -0.0320 C.3   109  LEU109      0.0001
    104  CD2      -41.6990   -3.8740    1.5810 C.3   109  LEU109      0.0001
    105  N        -42.4580   -8.4260    1.6670 N.am  110  SER110     -0.1936
    106  CA       -42.8590   -9.6920    1.0650 C.3   110  SER110      0.2055
    107  C        -42.7490  -10.9180    1.9790 C.2   110  SER110      0.2644
    108  O        -42.6330  -12.0310    1.4790 O.2   110  SER110     -0.2714
    109  CB       -42.0980   -9.9160   -0.2450 C.3   110  SER110      0.2130
    110  OG       -42.3580   -8.8700   -1.1730 O.3   110  SER110     -0.2179
    111  N        -42.7900  -10.7140    3.2990 N.am  111  THR111     -0.1936
    112  CA       -42.6550  -11.8100    4.2800 C.3   111  THR111      0.2028
    113  C        -43.9580  -12.0850    5.0490 C.2   111  THR111      0.2643
    114  O        -44.0260  -13.0080    5.8700 O.2   111  THR111     -0.2714
    115  CB       -41.4970  -11.5670    5.2960 C.3   111  THR111      0.1808
    116  OG1      -41.7570  -10.3920    6.0690 O.3   111  THR111     -0.2208
    117  CG2      -40.1630  -11.4050    4.5890 C.3   111  THR111      0.0379
    118  N        -44.9950  -11.2940    4.7610 N.am  112  GLY112     -0.1939
    119  CA       -46.2800  -11.4540    5.4120 C.3   112  GLY112      0.2014
    120  C        -47.3420  -11.8560    4.4240 C.2   112  GLY112      0.2639
    121  O        -47.3400  -12.9840    3.9160 O.2   112  GLY112     -0.2714
    122  N        -48.2400  -10.9190    4.1380 N.am  113  ILE113     -0.1963
    123  CA       -49.3420  -11.1350    3.2110 C.3   113  ILE113      0.1727
    124  C        -48.8670  -11.4890    1.7920 C.2   113  ILE113      0.2616
    125  O        -49.5280  -12.2290    1.0770 O.2   113  ILE113     -0.2715
    126  CB       -50.2920   -9.9080    3.2280 C.3   113  ILE113      0.0290
    127  CG1      -50.8950   -9.7690    4.6390 C.3   113  ILE113      0.0022
    128  CG2      -51.3670  -10.0030    2.1180 C.3   113  ILE113      0.0023
    129  CD1      -51.3580   -8.3580    5.0110 C.3   113  ILE113      0.0001
    130  N        -47.6940  -10.9950    1.4190 N.am  114  PHE114     -0.1974
    131  CA       -47.1170  -11.2100    0.0990 C.3   114  PHE114      0.1639
    132  C        -46.1660  -12.4180   -0.0250 C.2   114  PHE114      0.2290
    133  O        -45.5670  -12.6340   -1.0860 O.2   114  PHE114     -0.2864
    134  CB       -46.3770   -9.9380   -0.2990 C.3   114  PHE114      0.0560
    135  CG       -47.2130   -8.9670   -1.0840 C.ar  114  PHE114     -0.0200
    136  CD1      -48.5640   -9.1920   -1.2750 C.ar  114  PHE114     -0.0042
    137  CD2      -46.6450   -7.8190   -1.6200 C.ar  114  PHE114     -0.0042
    138  CE1      -49.3320   -8.2960   -1.9940 C.ar  114  PHE114     -0.0003
    139  CE2      -47.4150   -6.9280   -2.3530 C.ar  114  PHE114     -0.0003
    140  CZ       -48.7580   -7.1680   -2.5330 C.ar  114  PHE114     -0.0000
    141  N        -38.0060   -3.7360   11.5120 N.3   142  TYR142     -0.1227
    142  CA       -39.1370   -4.0480   12.3780 C.3   142  TYR142      0.1736
    143  C        -39.7240   -5.4190   12.1190 C.2   142  TYR142      0.2596
    144  O        -39.7850   -5.8820   10.9860 O.2   142  TYR142     -0.2718
    145  CB       -40.2180   -2.9690   12.2710 C.3   142  TYR142      0.0548
    146  CG       -40.0740   -1.8660   13.2970 C.ar  142  TYR142     -0.0200
    147  CD1      -39.0620   -0.9150   13.1830 C.ar  142  TYR142     -0.0009
    148  CD2      -40.9380   -1.7800   14.3950 C.ar  142  TYR142     -0.0009
    149  CE1      -38.9220    0.0990   14.1140 C.ar  142  TYR142      0.0417
    150  CE2      -40.8050   -0.7610   15.3290 C.ar  142  TYR142      0.0417
    151  CZ       -39.7870    0.1750   15.1810 C.ar  142  TYR142      0.1957
    152  OH       -39.6160    1.1970   16.0960 O.3   142  TYR142     -0.2866
    153  N        -40.1380   -6.0730   13.1930 N.am  143  CYS143     -0.1956
    154  CA       -40.7820   -7.3670   13.1040 C.3   143  CYS143      0.1843
    155  C        -41.8110   -7.5070   14.2290 C.2   143  CYS143      0.2625
    156  O        -41.8310   -6.7090   15.1670 O.2   143  CYS143     -0.2714
    157  CB       -39.7390   -8.4970   13.1240 C.3   143  CYS143      0.0997
    158  SG       -38.9100   -8.8450   14.7100 S.3   143  CYS143     -0.0797
    159  N        -42.6760   -8.5100   14.1120 N.am  144  ARG144     -0.1963
    160  CA       -43.7110   -8.7590   15.1100 C.3   144  ARG144      0.1729
    161  C        -43.6170  -10.1380   15.7690 C.2   144  ARG144      0.2616
    162  O        -44.2610  -10.3850   16.7860 O.2   144  ARG144     -0.2715
    163  CB       -45.0880   -8.5380   14.4960 C.3   144  ARG144      0.0348
    164  CG       -45.5940   -7.1230   14.6760 C.3   144  ARG144      0.0492
    165  CD       -47.0690   -7.0130   14.3520 C.3   144  ARG144      0.2205
    166  NE       -47.7710   -6.1900   15.3360 N.pl3 144  ARG144     -0.0865
    167  CZ       -49.0780   -5.9410   15.3080 C.cat 144  ARG144      0.5346
    168  NH1      -49.8380   -6.4420   14.3360 N.pl3 144  ARG144      0.1354
    169  NH2      -49.6240   -5.1900   16.2520 N.pl3 144  ARG144      0.1354
    170  N        -42.7920  -11.0110   15.1910 N.am  145  ASP145     -0.1971
    171  CA       -42.5910  -12.3860   15.6530 C.3   145  ASP145      0.1709
    172  C        -41.3320  -12.5300   16.5180 C.2   145  ASP145      0.2293
    173  O        -40.3030  -11.9290   16.2180 O.2   145  ASP145     -0.2864
    174  CB       -42.5080  -13.3170   14.4400 C.3   145  ASP145      0.1436
    175  CG       -42.1930  -14.7570   14.8170 C.2   145  ASP145      0.3671
    176  OD1      -42.9420  -15.6650   14.3890 O.co2 145  ASP145     -0.2456
    177  OD2      -41.1980  -14.9890   15.5350 O.co2 145  ASP145     -0.2456
    178  N        -38.5070  -14.8260   14.8180 N.3   148  TRP148     -0.1241
    179  CA       -37.9480  -14.0040   13.7550 C.3   148  TRP148      0.1605
    180  C        -36.9810  -12.9400   14.2780 C.2   148  TRP148      0.2264
    181  O        -35.9280  -12.7210   13.6770 O.2   148  TRP148     -0.2867
    182  CB       -39.0630  -13.3800   12.9070 C.3   148  TRP148      0.0550
    183  CG       -39.6110  -14.3200   11.8540 C.ar  148  TRP148      0.0003
    184  CD1      -39.9060  -15.6500   12.0070 C.ar  148  TRP148      0.0946
    185  CD2      -39.9420  -13.9950   10.4980 C.ar  148  TRP148      0.0152
    186  NE1      -40.3830  -16.1710   10.8290 N.ar  148  TRP148     -0.2442
    187  CE2      -40.4230  -15.1760    9.8890 C.ar  148  TRP148      0.0810
    188  CE3      -39.8720  -12.8240    9.7380 C.ar  148  TRP148      0.0012
    189  CZ2      -40.8360  -15.2170    8.5540 C.ar  148  TRP148      0.0191
    190  CZ3      -40.2780  -12.8650    8.4130 C.ar  148  TRP148      0.0001
    191  CH2      -40.7530  -14.0540    7.8350 C.ar  148  TRP148      0.0015
@<TRIPOS>BOND
     1    37    36    2
     2    47    45   am
     3    81    80    2
     4    33    34    2
     5    33    32    1
     6    80    79    1
     7    36    38   am
     8    36    35    1
     9    45    44    1
    10    45    46    2
    11    44    43    1
    12    79    78    1
    13    32    35    1
    14    32    31    1
    15   140   139   ar
    16   140   138   ar
    17   139   137   ar
    18    39    40    1
    19   138   136   ar
    20   137   135   ar
    21    43    40    1
    22    31    28   am
    23    29    28    2
    24   136   135   ar
    25   110   109    1
    26    40    41    1
    27   133   132    2
    28   135   134    1
    29    28    27    1
    30    30    27    1
    31   134   131    1
    32   109   106    1
    33   103   102    1
    34   132   131    1
    35    42    41    2
    36   131   130    1
    37    27    26    1
    38    26    23   am
    39   106   105    1
    40   106   107    1
    41   125   124    2
    42   101   102    1
    43   101    98    1
    44   102   104    1
    45   130   124   am
    46   108   107    2
    47   105    99   am
    48   124   123    1
    49    23    24    2
    50    23    22    1
    51   107   111   am
    52    99   100    2
    53    99    98    1
    54   128   126    1
    55    98    97    1
    56    22    25    1
    57    22    21    1
    58    48    49    1
    59    72    71    1
    60   123   126    1
    61   123   122    1
    62   126   127    1
    63   111   112    1
    64    97    91   am
    65   121   120    2
    66    49    50    1
    67    71    68    1
    68   122   120   am
    69   112   113    1
    70   112   115    1
    71   120   119    1
    72   117   115    1
    73   127   129    1
    74    91    92    2
    75    91    90    1
    76   118   113   am
    77   118   119    1
    78   113   114    2
    79    52    50   am
    80    52    53    1
    81    50    51    2
    82   115   116    1
    83    68    69    1
    84    68    67    1
    85    85    84    2
    86    90    93    1
    87    90    89    1
    88    55    54    2
    89    69    70    2
    90    67    62   am
    91    87    88    1
    92    87    86    1
    93    53    54    1
    94    88    82    1
    95    93    94    1
    96    54    56   am
    97    84    89   am
    98    84    83    1
    99    96    94    1
   100    66    64    1
   101    86    83    1
   102    82    83    1
   103    62    63    2
   104    62    61    1
   105    94    95    1
   106    56    57    1
   107    57    58    1
   108    60    61    1
   109    60    58   am
   110   191   190   ar
   111   191   189   ar
   112    65    64    1
   113    64    61    1
   114    58    59    2
   115   190   188   ar
   116   189   187   ar
   117    73    74    1
   118    20    18    1
   119   188   185   ar
   120   187   185   ar
   121   187   186   ar
   122    75    74    1
   123    75    76    2
   124   185   183   ar
   125    74    77    1
   126    19    17    1
   127   186   184   ar
   128    18    17    1
   129   144   143    2
   130   141   142    1
   131    17    14    1
   132   183   184   ar
   133   183   182    1
   134   143   142    1
   135   143   153   am
   136   145   142    1
   137   145   146    1
   138    16    15    2
   139   182   179    1
   140    15    14    1
   141    14    13    1
   142   154   157    1
   143   154   153    1
   144   154   155    1
   145   157   158    1
   146   147   146   ar
   147   147   149   ar
   148   146   148   ar
   149   181   180    2
   150    13     7   am
   151   179   180    1
   152   179   178    1
   153    11    10   ar
   154   159   155   am
   155   159   160    1
   156   149   151   ar
   157   155   156    2
   158   168   167    1
   159   165   164    1
   160   165   166    1
   161   176   175   ar
   162   148   150   ar
   163   174   175    1
   164   174   171    1
   165   163   164    1
   166   163   160    1
   167   175   177   ar
   168     7     8    2
   169     7     6    1
   170   160   161    1
   171    10    12   ar
   172    10     9    1
   173   151   150   ar
   174   151   152    1
   175   170   171    1
   176   170   161   am
   177   167   166    2
   178   167   169    1
   179     4     3    2
   180   171   172    1
   181     6     9    1
   182     6     5    1
   183   161   162    2
   184   173   172    2
   185     3     5   am
   186     3     2    1
   187     1     2    1
