@<TRIPOS>MOLECULE
tmp/3gqtB00.pdb
 157 149 0 0 0
SMALL
GASTEIGER

@<TRIPOS>ATOM
      1  N          2.8920   10.0730  -44.2660 N.3    94  ARG94      -0.1245
      2  CA         4.0350    9.8290  -43.3980 C.3    94  ARG94       0.1563
      3  C          4.7260    8.5100  -43.7710 C.2    94  ARG94       0.2260
      4  O          5.9530    8.4150  -43.7810 O.2    94  ARG94      -0.2867
      5  CB         3.5840    9.8440  -41.9050 C.3    94  ARG94       0.0307
      6  CG         4.7310    9.7070  -40.8890 C.3    94  ARG94       0.0489
      7  CD         5.0480    8.2580  -40.5390 C.3    94  ARG94       0.2205
      8  NE         3.8290    7.5820  -40.0950 N.pl3  94  ARG94      -0.0865
      9  CZ         3.5220    6.3270  -40.3540 C.cat  94  ARG94       0.5346
     10  NH1        2.3480    5.8390  -39.9420 N.pl3  94  ARG94       0.1354
     11  NH2        4.3870    5.5630  -41.0010 N.pl3  94  ARG94       0.1354
     12  N          8.4800    7.6680  -44.3980 N.3    98  SER98      -0.1202
     13  CA         9.1070    6.7380  -43.4560 C.3    98  SER98       0.2020
     14  C          9.9010    5.6800  -44.1920 C.2    98  SER98       0.2618
     15  O         11.0530    5.3340  -43.8210 O.2    98  SER98      -0.2717
     16  CB         8.0320    6.0150  -42.6380 C.3    98  SER98       0.2103
     17  OG         7.6780    6.7300  -41.4990 O.3    98  SER98      -0.2182
     18  N          9.2660    5.1360  -45.2130 N.am   99  VAL99      -0.1979
     19  CA         9.9140    4.1530  -46.0700 C.3    99  VAL99       0.1595
     20  C         11.2120    4.7400  -46.7170 C.2    99  VAL99       0.2287
     21  O         12.3080    4.1550  -46.6220 O.2    99  VAL99      -0.2864
     22  CB         8.9100    3.6600  -47.1620 C.3    99  VAL99       0.0276
     23  CG1        9.6090    2.8310  -48.1930 C.3    99  VAL99       0.0022
     24  CG2        7.7990    2.8470  -46.5170 C.3    99  VAL99       0.0022
     25  N         13.6420    3.1060  -44.0510 N.3   103  LEU103     -0.1245
     26  CA        13.6570    1.7560  -44.5820 C.3   103  LEU103      0.1561
     27  C         14.5060    1.6000  -45.8350 C.2   103  LEU103      0.2260
     28  O         14.7110    0.4780  -46.2970 O.2   103  LEU103     -0.2867
     29  CB        12.2220    1.2920  -44.8590 C.3   103  LEU103      0.0270
     30  CG        11.3000    1.3080  -43.6190 C.3   103  LEU103      0.0019
     31  CD1        9.9160    0.7480  -43.9800 C.3   103  LEU103      0.0001
     32  CD2       11.8980    0.5140  -42.4420 C.3   103  LEU103      0.0001
     33  N         10.8710   -1.1200  -49.4010 N.3   133  PHE133     -0.1241
     34  CA        11.5340   -2.0000  -48.4320 C.3   133  PHE133      0.1605
     35  C         10.8010   -3.3350  -48.3980 C.2   133  PHE133      0.2264
     36  O          9.6500   -3.3870  -47.9590 O.2   133  PHE133     -0.2867
     37  CB        11.4270   -1.3130  -47.0650 C.3   133  PHE133      0.0534
     38  CG        11.9710   -2.1010  -45.8660 C.ar  133  PHE133     -0.0203
     39  CD1       11.0880   -2.6380  -44.9140 C.ar  133  PHE133     -0.0042
     40  CD2       13.3390   -2.1820  -45.6260 C.ar  133  PHE133     -0.0042
     41  CE1       11.5700   -3.2900  -43.7640 C.ar  133  PHE133     -0.0003
     42  CE2       13.8500   -2.8140  -44.4770 C.ar  133  PHE133     -0.0003
     43  CZ        12.9700   -3.3810  -43.5410 C.ar  133  PHE133     -0.0000
     44  N         10.4610   -6.5910  -46.7300 N.3   135  LEU135     -0.1231
     45  CA        10.7070   -7.4790  -45.5890 C.3   135  LEU135      0.1693
     46  C          9.5030   -8.4250  -45.3650 C.2   135  LEU135      0.2592
     47  O          9.6770   -9.6400  -45.3140 O.2   135  LEU135     -0.2718
     48  CB        10.9740   -6.6910  -44.3070 C.3   135  LEU135      0.0284
     49  CG        11.1700   -7.5380  -43.0250 C.3   135  LEU135      0.0019
     50  CD1       12.4100   -8.4570  -43.1150 C.3   135  LEU135      0.0001
     51  CD2       11.2360   -6.6880  -41.7580 C.3   135  LEU135      0.0001
     52  N          8.3120   -7.8290  -45.2450 N.am  136  THR136     -0.1953
     53  CA         7.0350   -8.5240  -44.9840 C.3   136  THR136      0.1897
     54  C          6.6690   -9.5270  -46.0660 C.2   136  THR136      0.2313
     55  O          6.6080   -9.1820  -47.2500 O.2   136  THR136     -0.2863
     56  CB         5.8710   -7.4920  -44.8500 C.3   136  THR136      0.1794
     57  OG1        6.1770   -6.5470  -43.8150 O.3   136  THR136     -0.2208
     58  CG2        4.5200   -8.1800  -44.5350 C.3   136  THR136      0.0378
     59  N          2.4070   -6.1510  -48.8440 N.3   158  TRP158     -0.1227
     60  CA         2.1330   -4.8630  -48.1630 C.3   158  TRP158      0.1737
     61  C          3.3460   -3.9400  -48.2230 C.2   158  TRP158      0.2595
     62  O          3.8050   -3.4610  -47.1820 O.2   158  TRP158     -0.2718
     63  CB         1.7090   -5.0530  -46.6810 C.3   158  TRP158      0.0564
     64  CG         0.4170   -5.8140  -46.5400 C.ar  158  TRP158      0.0003
     65  CD1        0.2430   -7.0570  -45.9750 C.ar  158  TRP158      0.0946
     66  CD2       -0.8770   -5.4020  -47.0110 C.ar  158  TRP158      0.0152
     67  NE1       -1.0850   -7.4290  -46.0590 N.ar  158  TRP158     -0.2442
     68  CE2       -1.7910   -6.4340  -46.6820 C.ar  158  TRP158      0.0810
     69  CE3       -1.3570   -4.2480  -47.6560 C.ar  158  TRP158      0.0012
     70  CZ2       -3.1510   -6.3630  -47.0040 C.ar  158  TRP158      0.0191
     71  CZ3       -2.7090   -4.1770  -47.9770 C.ar  158  TRP158      0.0001
     72  CH2       -3.5880   -5.2340  -47.6490 C.ar  158  TRP158      0.0015
     73  N          3.8440   -3.6630  -49.4270 N.am  159  ILE159     -0.1966
     74  CA         5.0840   -2.9000  -49.5650 C.3   159  ILE159      0.1727
     75  C          4.7250   -1.5030  -50.0610 C.2   159  ILE159      0.2616
     76  O          4.2900   -1.3300  -51.2130 O.2   159  ILE159     -0.2715
     77  CB         6.1290   -3.6040  -50.5330 C.3   159  ILE159      0.0290
     78  CG1        6.3060   -5.1020  -50.1990 C.3   159  ILE159      0.0022
     79  CG2        7.4950   -2.8450  -50.5610 C.3   159  ILE159      0.0023
     80  CD1        6.8510   -5.4570  -48.7770 C.3   159  ILE159      0.0001
     81  N          4.8670   -0.5290  -49.1670 N.am  160  THR160     -0.1951
     82  CA         4.5610    0.8700  -49.4740 C.3   160  THR160      0.1897
     83  C          5.5490    1.3650  -50.5190 C.2   160  THR160      0.2313
     84  O          6.7440    1.0690  -50.3950 O.2   160  THR160     -0.2863
     85  CB         4.7380    1.7390  -48.2210 C.3   160  THR160      0.1794
     86  OG1        3.8490    1.2490  -47.2200 O.3   160  THR160     -0.2208
     87  CG2        4.4420    3.2640  -48.5050 C.3   160  THR160      0.0378
     88  N         13.6940   -1.1080  -38.8300 N.3   235  LEU235     -0.1245
     89  CA        12.4070   -1.0130  -38.1190 C.3   235  LEU235      0.1561
     90  C         12.5190   -0.1060  -36.8970 C.2   235  LEU235      0.2260
     91  O         11.5950    0.6450  -36.6040 O.2   235  LEU235     -0.2867
     92  CB        11.8630   -2.4050  -37.7450 C.3   235  LEU235      0.0270
     93  CG        11.5900   -3.3390  -38.9400 C.3   235  LEU235      0.0019
     94  CD1       10.9500   -4.6380  -38.4720 C.3   235  LEU235      0.0001
     95  CD2       10.6900   -2.6180  -39.9460 C.3   235  LEU235      0.0001
     96  N         12.3090    3.4980  -38.0860 N.3   238  ALA238     -0.1231
     97  CA        10.9300    3.7790  -38.5340 C.3   238  ALA238      0.1694
     98  C          9.9520    3.8640  -37.3520 C.2   238  ALA238      0.2591
     99  O          9.0860    4.7300  -37.3280 O.2   238  ALA238     -0.2718
    100  CB        10.4650    2.6990  -39.4810 C.3   238  ALA238      0.0304
    101  N         10.1080    2.9680  -36.3810 N.am  239  ARG239     -0.1980
    102  CA         9.2610    2.9680  -35.1770 C.3   239  ARG239      0.1597
    103  C          9.3790    4.2790  -34.4440 C.2   239  ARG239      0.2287
    104  O          8.3810    4.8000  -33.9540 O.2   239  ARG239     -0.2864
    105  CB         9.6860    1.8500  -34.2190 C.3   239  ARG239      0.0334
    106  CG         9.1960    0.4800  -34.6810 C.3   239  ARG239      0.0492
    107  CD         9.8370   -0.6020  -33.8580 C.3   239  ARG239      0.2205
    108  NE         9.4880   -1.9220  -34.3600 N.pl3 239  ARG239     -0.0865
    109  CZ        10.2310   -3.0120  -34.1790 C.cat 239  ARG239      0.5346
    110  NH1       11.3780   -2.9360  -33.5090 N.pl3 239  ARG239      0.1354
    111  NH2        9.8050   -4.1820  -34.6390 N.pl3 239  ARG239      0.1354
    112  N          7.3970    6.7830  -36.3720 N.3   242  ILE242     -0.1245
    113  CA         5.9560    6.5490  -36.2310 C.3   242  ILE242      0.1561
    114  C          5.4700    6.9970  -34.8400 C.2   242  ILE242      0.2260
    115  O          4.3570    7.4750  -34.7080 O.2   242  ILE242     -0.2867
    116  CB         5.6120    5.0450  -36.5310 C.3   242  ILE242      0.0252
    117  CG1        5.9030    4.7410  -37.9980 C.3   242  ILE242      0.0019
    118  CG2        4.1440    4.7220  -36.2240 C.3   242  ILE242      0.0019
    119  CD1        6.1040    3.2140  -38.3150 C.3   242  ILE242      0.0001
    120  N          6.7950    3.7760  -29.1310 N.3   316  LYS316     -0.1245
    121  CA         6.0090    3.2950  -30.2530 C.3   316  LYS316      0.1561
    122  C          4.6600    2.7280  -29.8120 C.2   316  LYS316      0.2260
    123  O          3.6210    3.0670  -30.3610 O.2   316  LYS316     -0.2867
    124  CB         6.8180    2.3080  -31.0930 C.3   316  LYS316      0.0271
    125  CG         6.0190    1.4820  -32.0610 C.3   316  LYS316      0.0035
    126  CD         5.5490    2.2970  -33.2620 C.3   316  LYS316      0.0206
    127  CE         4.6530    1.3840  -34.1300 C.3   316  LYS316      0.1093
    128  NZ         3.1920    1.4680  -33.8250 N.3   316  LYS316     -0.1314
    129  N          0.7220   -2.7290  -37.5420 N.3   351  TYR351     -0.1227
    130  CA         1.8820   -2.8340  -38.4380 C.3   351  TYR351      0.1736
    131  C          2.7890   -3.9920  -38.0350 C.2   351  TYR351      0.2595
    132  O          3.4700   -4.6080  -38.8690 O.2   351  TYR351     -0.2718
    133  CB         2.7870   -1.5980  -38.3320 C.3   351  TYR351      0.0548
    134  CG         2.5440   -0.4080  -39.2300 C.ar  351  TYR351     -0.0200
    135  CD1        1.8830   -0.5190  -40.4700 C.ar  351  TYR351     -0.0009
    136  CD2        3.0210    0.8350  -38.8380 C.ar  351  TYR351     -0.0009
    137  CE1        1.7150    0.6070  -41.2870 C.ar  351  TYR351      0.0417
    138  CE2        2.8490    1.9750  -39.6340 C.ar  351  TYR351      0.0417
    139  CZ         2.2080    1.8500  -40.8510 C.ar  351  TYR351      0.1957
    140  OH         2.0650    2.9970  -41.5810 O.3   351  TYR351     -0.2866
    141  N          2.8680   -4.2250  -36.7380 N.am  352  GLU352     -0.1979
    142  CA         3.8360   -5.1700  -36.2250 C.3   352  GLU352      0.1602
    143  C          3.1440   -6.4470  -35.8460 C.2   352  GLU352      0.2287
    144  O          3.7190   -7.2510  -35.1110 O.2   352  GLU352     -0.2864
    145  CB         4.5400   -4.6040  -34.9970 C.3   352  GLU352      0.0415
    146  CG         4.9400   -3.1610  -35.1560 C.3   352  GLU352      0.1163
    147  CD         6.4130   -2.9420  -34.9490 C.2   352  GLU352      0.3649
    148  OE1        7.2240   -3.7890  -35.4020 O.co2 352  GLU352     -0.2457
    149  OE2        6.7590   -1.9190  -34.3370 O.co2 352  GLU352     -0.2457
    150  N          3.8690   -7.0290  -29.6510 N.3   357  ILE357     -0.1245
    151  CA         5.2960   -7.3240  -29.6420 C.3   357  ILE357      0.1561
    152  C          6.0590   -6.3980  -28.6740 C.2   357  ILE357      0.2260
    153  O          6.9980   -6.8280  -28.0140 O.2   357  ILE357     -0.2867
    154  CB         5.9160   -7.2210  -31.0900 C.3   357  ILE357      0.0252
    155  CG1        7.4010   -7.5650  -31.0900 C.3   357  ILE357      0.0019
    156  CG2        5.7390   -5.8060  -31.6710 C.3   357  ILE357      0.0019
    157  CD1        8.0500   -7.4960  -32.4910 C.3   357  ILE357      0.0001
@<TRIPOS>BOND
     1    76    75    2
     2    79    77    1
     3    77    78    1
     4    77    74    1
     5    83    84    2
     6    83    82    1
     7    78    80    1
     8    75    74    1
     9    75    81   am
    10    74    73    1
    11    82    81    1
    12    82    85    1
    13    73    61   am
    14    33    34    1
    15    59    60    1
    16    87    85    1
    17    34    35    1
    18    34    37    1
    19    35    36    2
    20    61    60    1
    21    61    62    2
    22    85    86    1
    23    23    22    1
    24    60    63    1
    25    71    69   ar
    26    71    72   ar
    27    69    66   ar
    28    72    70   ar
    29    55    54    2
    30    22    24    1
    31    22    19    1
    32    37    38    1
    33    66    68   ar
    34    66    64   ar
    35    70    68   ar
    36    44    45    1
    37    20    21    2
    38    20    19    1
    39    68    67   ar
    40    63    64    1
    41    64    65   ar
    42    28    27    2
    43    19    18    1
    44    54    53    1
    45    67    65   ar
    46    38    40   ar
    47    38    39   ar
    48    27    26    1
    49    40    42   ar
    50    45    46    1
    51    45    48    1
    52    46    47    2
    53    46    52   am
    54    52    53    1
    55    18    14   am
    56    53    56    1
    57    39    41   ar
    58    29    26    1
    59    29    30    1
    60    56    58    1
    61    56    57    1
    62    26    25    1
    63    42    43   ar
    64    12    13    1
    65    48    49    1
    66     1     2    1
    67    14    15    2
    68    14    13    1
    69    31    30    1
    70     4     3    2
    71     3     2    1
    72    41    43   ar
    73    30    32    1
    74    13    16    1
    75     2     5    1
    76    50    49    1
    77    49    51    1
    78    16    17    1
    79     5     6    1
    80   140   139    1
    81   137   139   ar
    82   137   135   ar
    83    11     9    1
    84     6     7    1
    85   139   138   ar
    86     7     8    1
    87   135   134   ar
    88     9     8    2
    89     9    10    1
    90    95    93    1
    91   138   136   ar
    92   100    97    1
    93   134   136   ar
    94   134   133    1
    95    93    94    1
    96    93    92    1
    97   132   131    2
    98    88    89    1
    99    97    96    1
   100    97    98    1
   101   130   133    1
   102   130   131    1
   103   130   129    1
   104   119   117    1
   105    89    92    1
   106    89    90    1
   107   131   141   am
   108   117   116    1
   109    98    99    2
   110    98   101   am
   111    90    91    2
   112   141   142    1
   113   116   113    1
   114   116   118    1
   115   101   102    1
   116   112   113    1
   117   113   114    1
   118   142   143    1
   119   142   145    1
   120   143   144    2
   121   148   147   ar
   122   102   103    1
   123   102   105    1
   124   146   145    1
   125   146   147    1
   126   147   149   ar
   127   114   115    2
   128   106   105    1
   129   106   107    1
   130   111   109    1
   131   103   104    2
   132   108   109    2
   133   108   107    1
   134   109   110    1
   135   127   128    1
   136   127   126    1
   137   126   125    1
   138   157   155    1
   139   125   124    1
   140   156   154    1
   141   124   121    1
   142   154   155    1
   143   154   151    1
   144   123   122    2
   145   121   122    1
   146   121   120    1
   147   150   151    1
   148   151   152    1
   149   152   153    2
