@<TRIPOS>MOLECULE
tmp/3gqtC00.pdb
 94 87 0 0 0
SMALL
GASTEIGER

@<TRIPOS>ATOM
      1  N         -8.5930  -26.3890   -1.8650 N.3   136  THR136     -0.1218
      2  CA        -7.4790  -25.4540   -2.1320 C.3   136  THR136      0.1862
      3  C         -6.2270  -25.8240   -1.3360 C.2   136  THR136      0.2287
      4  O         -6.3080  -26.0630   -0.1310 O.2   136  THR136     -0.2866
      5  CB        -7.8860  -24.0030   -1.7520 C.3   136  THR136      0.1770
      6  OG1       -9.1010  -23.6390   -2.4150 O.3   136  THR136     -0.2211
      7  CG2       -6.8150  -22.9970   -2.1360 C.3   136  THR136      0.0375
      8  N         -6.6440  -24.2800   -6.4800 N.3   142  SER142     -0.1217
      9  CA        -7.8580  -25.1010   -6.4270 C.3   142  SER142      0.1889
     10  C         -8.0330  -26.1090   -7.5750 C.2   142  SER142      0.2288
     11  O         -9.0820  -26.7540   -7.6800 O.2   142  SER142     -0.2866
     12  CB        -9.0990  -24.2090   -6.2880 C.3   142  SER142      0.2089
     13  OG        -9.0640  -23.5330   -5.0430 O.3   142  SER142     -0.2183
     14  N         -6.8420  -21.3400    2.9880 N.3   166  TRP166     -0.1241
     15  CA        -7.9840  -20.4210    2.6980 C.3   166  TRP166      0.1605
     16  C         -9.3230  -21.1250    2.7710 C.2   166  TRP166      0.2264
     17  O        -10.1170  -21.0850    1.8190 O.2   166  TRP166     -0.2867
     18  CB        -7.8450  -19.7080    1.3230 C.3   166  TRP166      0.0550
     19  CG        -6.5570  -18.9160    1.2170 C.ar  166  TRP166      0.0003
     20  CD1       -5.4790  -19.1990    0.4140 C.ar  166  TRP166      0.0946
     21  CD2       -6.2050  -17.7510    1.9700 C.ar  166  TRP166      0.0152
     22  NE1       -4.4800  -18.2810    0.6190 N.ar  166  TRP166     -0.2442
     23  CE2       -4.8960  -17.3740    1.5630 C.ar  166  TRP166      0.0810
     24  CE3       -6.8710  -16.9760    2.9360 C.ar  166  TRP166      0.0012
     25  CZ2       -4.2300  -16.2800    2.1070 C.ar  166  TRP166      0.0191
     26  CZ3       -6.2190  -15.8840    3.4790 C.ar  166  TRP166      0.0001
     27  CH2       -4.8980  -15.5410    3.0580 C.ar  166  TRP166      0.0015
     28  N        -12.7550  -21.2540    4.3170 N.3   168  THR168     -0.1218
     29  CA       -13.8060  -20.5030    5.0430 C.3   168  THR168      0.1862
     30  C        -14.5090  -21.3960    6.0980 C.2   168  THR168      0.2287
     31  O        -14.9270  -22.5030    5.7910 O.2   168  THR168     -0.2866
     32  CB       -14.8170  -19.9280    4.0250 C.3   168  THR168      0.1770
     33  OG1      -14.1470  -18.9570    3.2050 O.3   168  THR168     -0.2211
     34  CG2      -16.0550  -19.2470    4.7070 C.3   168  THR168      0.0375
     35  N         -6.3460  -10.4660    7.4710 N.3   210  LYS210     -0.1245
     36  CA        -6.7970  -10.4790    6.0780 C.3   210  LYS210      0.1561
     37  C         -7.0680   -9.0420    5.5940 C.2   210  LYS210      0.2260
     38  O         -7.2800   -8.1370    6.4060 O.2   210  LYS210     -0.2867
     39  CB        -8.0230  -11.3740    5.8900 C.3   210  LYS210      0.0271
     40  CG        -7.8100  -12.8030    6.3920 C.3   210  LYS210      0.0035
     41  CD        -8.8890  -13.7960    6.0050 C.3   210  LYS210      0.0206
     42  CE       -10.3470  -13.3660    6.2900 C.3   210  LYS210      0.1093
     43  NZ       -10.6400  -13.1890    7.7470 N.3   210  LYS210     -0.1314
     44  N         -9.3860   -8.5030    2.7300 N.3   212  GLY212     -0.1210
     45  CA       -10.8190   -8.6010    2.4340 C.3   212  GLY212      0.1956
     46  C        -11.4400   -9.8000    3.1500 C.2   212  GLY212      0.2611
     47  O        -10.7270  -10.6410    3.6900 O.2   212  GLY212     -0.2717
     48  N        -12.7650   -9.8680    3.1350 N.am  213  LEU213     -0.1979
     49  CA       -13.5340  -10.9490    3.7420 C.3   213  LEU213      0.1596
     50  C        -13.2280  -11.1220    5.2570 C.2   213  LEU213      0.2287
     51  O        -13.3380  -12.2110    5.7970 O.2   213  LEU213     -0.2864
     52  CB       -13.3510  -12.2620    2.9590 C.3   213  LEU213      0.0297
     53  CG       -13.6430  -12.2660    1.4480 C.3   213  LEU213      0.0022
     54  CD1      -13.3550  -13.6480    0.8190 C.3   213  LEU213      0.0001
     55  CD2      -15.1040  -11.9110    1.2530 C.3   213  LEU213      0.0001
     56  N        -15.4570  -12.9440    8.0140 N.3   216  SER216     -0.1217
     57  CA       -15.6250  -14.3780    7.9080 C.3   216  SER216      0.1889
     58  C        -14.3910  -15.0730    8.4340 C.2   216  SER216      0.2288
     59  O        -13.2960  -14.9490    7.8540 O.2   216  SER216     -0.2866
     60  CB       -15.8940  -14.7820    6.4350 C.3   216  SER216      0.2089
     61  OG       -15.8310  -16.1860    6.2570 O.3   216  SER216     -0.2183
     62  N        -11.6390  -17.6620    8.7800 N.3   218  THR218     -0.1218
     63  CA       -11.0410  -18.4600    7.7180 C.3   218  THR218      0.1862
     64  C         -9.7770  -19.0880    8.2900 C.2   218  THR218      0.2287
     65  O         -9.0710  -18.4450    9.0540 O.2   218  THR218     -0.2866
     66  CB       -10.6460  -17.5610    6.5090 C.3   218  THR218      0.1770
     67  OG1      -11.7660  -16.7630    6.1330 O.3   218  THR218     -0.2211
     68  CG2      -10.2300  -18.3890    5.3140 C.3   218  THR218      0.0375
     69  N        -11.0290   -9.6760   -3.1920 N.3   360  VAL360     -0.1245
     70  CA       -10.7180  -11.0820   -2.8870 C.3   360  VAL360      0.1561
     71  C        -11.6230  -12.0800   -3.6300 C.2   360  VAL360      0.2260
     72  O        -11.1280  -13.0410   -4.2260 O.2   360  VAL360     -0.2867
     73  CB       -10.7600  -11.3860   -1.3440 C.3   360  VAL360      0.0252
     74  CG1      -10.4910  -12.8570   -1.0850 C.3   360  VAL360      0.0019
     75  CG2       -9.6800  -10.5580   -0.6240 C.3   360  VAL360      0.0019
     76  N        -10.5880  -13.0980   -6.9230 N.3   363  THR363     -0.1203
     77  CA        -9.4530  -14.0190   -7.0190 C.3   363  THR363      0.1994
     78  C         -9.7250  -15.3970   -6.4000 C.2   363  THR363      0.2617
     79  O         -8.7990  -16.2080   -6.2700 O.2   363  THR363     -0.2717
     80  CB        -8.1730  -13.4140   -6.3760 C.3   363  THR363      0.1784
     81  OG1       -8.3460  -13.3190   -4.9440 O.3   363  THR363     -0.2211
     82  CG2       -7.9430  -12.0210   -6.9270 C.3   363  THR363      0.0376
     83  N        -10.9740  -15.6850   -6.0450 N.am  364  TYR364     -0.1975
     84  CA       -11.3080  -16.9780   -5.4460 C.3   364  TYR364      0.1639
     85  C        -10.7100  -18.1100   -6.2660 C.2   364  TYR364      0.2290
     86  O        -10.2780  -19.1170   -5.7250 O.2   364  TYR364     -0.2864
     87  CB       -12.8240  -17.2370   -5.4780 C.3   364  TYR364      0.0560
     88  CG       -13.6580  -16.7420   -4.3030 C.ar  364  TYR364     -0.0198
     89  CD1      -13.1190  -16.5850   -3.0030 C.ar  364  TYR364     -0.0009
     90  CD2      -15.0190  -16.4600   -4.4990 C.ar  364  TYR364     -0.0009
     91  CE1      -13.9550  -16.1410   -1.9180 C.ar  364  TYR364      0.0417
     92  CE2      -15.8480  -16.0270   -3.4420 C.ar  364  TYR364      0.0417
     93  CZ       -15.3310  -15.8690   -2.1740 C.ar  364  TYR364      0.1957
     94  OH       -16.2350  -15.4390   -1.2060 O.3   364  TYR364     -0.2866
@<TRIPOS>BOND
     1    11    10    2
     2    10     9    1
     3    77    76    1
     4    77    78    1
     5    77    80    1
     6    82    80    1
     7     8     9    1
     8     9    12    1
     9    78    79    2
    10    78    83   am
    11    80    81    1
    12    12    13    1
    13    85    86    2
    14    85    84    1
    15    83    84    1
    16    87    84    1
    17    87    88    1
    18    90    88   ar
    19    90    92   ar
    20    88    89   ar
    21    72    71    2
    22    71    70    1
    23    92    93   ar
    24    69    70    1
    25    89    91   ar
    26    70    73    1
    27     6     5    1
    28    93    91   ar
    29    93    94    1
    30     7     5    1
    31     2     1    1
    32     2     5    1
    33     2     3    1
    34    73    74    1
    35    73    75    1
    36     3     4    2
    37    20    22   ar
    38    20    19   ar
    39    22    23   ar
    40    54    53    1
    41    19    18    1
    42    19    21   ar
    43    55    53    1
    44    18    15    1
    45    53    52    1
    46    23    21   ar
    47    23    25   ar
    48    17    16    2
    49    21    24   ar
    50    25    27   ar
    51    45    44    1
    52    45    46    1
    53    15    16    1
    54    15    14    1
    55    24    26   ar
    56    52    49    1
    57    27    26   ar
    58    48    46   am
    59    48    49    1
    60    46    47    2
    61    33    32    1
    62    49    50    1
    63    32    34    1
    64    32    29    1
    65    28    29    1
    66    29    30    1
    67    50    51    2
    68    68    66    1
    69    37    36    1
    70    37    38    2
    71    31    30    2
    72    39    36    1
    73    39    40    1
    74    41    42    1
    75    41    40    1
    76    36    35    1
    77    67    66    1
    78    61    60    1
    79    42    43    1
    80    60    57    1
    81    66    63    1
    82    63    64    1
    83    63    62    1
    84    59    58    2
    85    57    56    1
    86    57    58    1
    87    64    65    2
