@<TRIPOS>MOLECULE
tmp/3gqyA01.pdb
 123 110 0 0 0
SMALL
GASTEIGER

@<TRIPOS>ATOM
      1  N        -17.7750    7.9390   -1.1690 N.3    60  ARG60      -0.1245
      2  CA       -18.0960    9.0350   -0.2620 C.3    60  ARG60       0.1563
      3  C        -18.9370   10.0790   -0.9950 C.2    60  ARG60       0.2260
      4  O        -18.5810   10.4970   -2.0990 O.2    60  ARG60      -0.2867
      5  CB       -16.8020    9.6840    0.2690 C.3    60  ARG60       0.0307
      6  CG       -16.9900   10.9610    1.0780 C.3    60  ARG60       0.0489
      7  CD       -15.6430   11.5010    1.5240 C.3    60  ARG60       0.2205
      8  NE       -15.7550   12.8100    2.1560 N.pl3  60  ARG60      -0.0865
      9  CZ       -15.4610   13.9760    1.5910 C.cat  60  ARG60       0.5346
     10  NH1      -15.0310   14.0590    0.3440 N.pl3  60  ARG60       0.1354
     11  NH2      -15.6040   15.0800    2.2910 N.pl3  60  ARG60       0.1354
     12  N        -20.2320   13.9130   -0.5010 N.3    62  ASN62      -0.1240
     13  CA       -20.0080   15.1270    0.2550 C.3    62  ASN62       0.1653
     14  C        -21.2510   16.0280    0.2390 C.2    62  ASN62       0.2266
     15  O        -21.5800   16.6460   -0.7820 O.2    62  ASN62      -0.2867
     16  CB       -18.7930   15.8900   -0.3020 C.3    62  ASN62       0.1155
     17  CG       -18.3770   17.0420    0.5850 C.2    62  ASN62       0.2627
     18  OD1      -19.1220   17.4540    1.4580 O.2    62  ASN62      -0.2716
     19  ND2      -17.1760   17.5670    0.3630 N.am   62  ASN62      -0.0877
     20  N        -21.7280   18.8380    1.7050 N.3    64  SER64      -0.1217
     21  CA       -21.4670   20.2780    1.5670 C.3    64  SER64       0.1889
     22  C        -22.0770   20.8220    0.2580 C.2    64  SER64       0.2288
     23  O        -22.4160   21.9900    0.1750 O.2    64  SER64      -0.2866
     24  CB       -19.9670   20.5800    1.6060 C.3    64  SER64       0.2089
     25  OG       -19.4140   20.2880    2.8840 O.3    64  SER64      -0.2183
     26  N        -20.9900   12.0820    4.0310 N.3   100  ASP100     -0.1239
     27  CA       -20.1130   13.0300    4.7090 C.3   100  ASP100      0.1674
     28  C        -20.9000   14.3150    4.8840 C.2   100  ASP100      0.2266
     29  O        -21.3140   14.9260    3.9000 O.2   100  ASP100     -0.2867
     30  CB       -18.8280   13.2490    3.8820 C.3   100  ASP100      0.1410
     31  CG       -17.7970   14.1250    4.5870 C.2   100  ASP100      0.3668
     32  OD1      -18.1300   15.2460    5.0110 O.co2 100  ASP100     -0.2456
     33  OD2      -16.6150   13.6970    4.6730 O.co2 100  ASP100     -0.2456
     34  N        -20.1410   24.5640    8.8500 N.3   105  GLU105     -0.1245
     35  CA       -19.3110   25.2620    7.8680 C.3   105  GLU105      0.1567
     36  C        -19.6510   26.7250    7.7850 C.2   105  GLU105      0.2260
     37  O        -20.7950   27.1190    7.9940 O.2   105  GLU105     -0.2867
     38  CB       -19.5370   24.6940    6.4710 C.3   105  GLU105      0.0388
     39  CG       -18.7310   23.5330    6.1470 C.3   105  GLU105      0.1160
     40  CD       -18.8750   23.1120    4.7030 C.2   105  GLU105      0.3649
     41  OE1      -18.1220   22.2330    4.2870 O.co2 105  GLU105     -0.2457
     42  OE2      -19.7470   23.6460    3.9880 O.co2 105  GLU105     -0.2457
     43  N        -18.6230   15.8980   10.1160 N.3   226  SER226     -0.1202
     44  CA       -17.6790   17.0090    9.9950 C.3   226  SER226      0.2020
     45  C        -17.5580   17.8410   11.2660 C.2   226  SER226      0.2618
     46  O        -18.5520   18.0710   11.9750 O.2   226  SER226     -0.2717
     47  CB       -18.0440   17.9270    8.8060 C.3   226  SER226      0.2103
     48  OG       -17.9830   17.2170    7.5820 O.3   226  SER226     -0.2182
     49  N        -16.3250   18.2690   11.5460 N.am  227  PHE227     -0.1975
     50  CA       -16.0030   19.2190   12.6230 C.3   227  PHE227      0.1639
     51  C        -16.3810   18.7770   14.0270 C.2   227  PHE227      0.2290
     52  O        -16.7610   19.6070   14.8540 O.2   227  PHE227     -0.2864
     53  CB       -16.6420   20.5920   12.3610 C.3   227  PHE227      0.0560
     54  CG       -16.3360   21.1570   11.0150 C.ar  227  PHE227     -0.0200
     55  CD1      -17.2880   21.1290    9.9990 C.ar  227  PHE227     -0.0042
     56  CD2      -15.1010   21.7300   10.7590 C.ar  227  PHE227     -0.0042
     57  CE1      -17.0030   21.6550    8.7480 C.ar  227  PHE227     -0.0003
     58  CE2      -14.8070   22.2540    9.5020 C.ar  227  PHE227     -0.0003
     59  CZ       -15.7550   22.2200    8.4990 C.ar  227  PHE227     -0.0000
     60  N        -14.8110   13.2470   12.1520 N.3   253  LYS253     -0.1245
     61  CA       -13.8000   13.9940   11.4100 C.3   253  LYS253      0.1561
     62  C        -13.1570   15.0200   12.3310 C.2   253  LYS253      0.2260
     63  O        -13.8360   15.8880   12.8780 O.2   253  LYS253     -0.2867
     64  CB       -14.4210   14.6990   10.1900 C.3   253  LYS253      0.0271
     65  CG       -15.0220   13.7550    9.1540 C.3   253  LYS253      0.0035
     66  CD       -15.8220   14.4600    8.0580 C.3   253  LYS253      0.0206
     67  CE       -14.9950   15.4410    7.2150 C.3   253  LYS253      0.1093
     68  NZ       -15.8640   16.1430    6.2080 N.3   253  LYS253     -0.1314
     69  N        -10.9630   18.1550   12.5210 N.3   255  GLU255     -0.1245
     70  CA       -10.5800   19.2390   11.6040 C.3   255  GLU255      0.1567
     71  C        -10.3200   20.5520   12.3010 C.2   255  GLU255      0.2260
     72  O        -10.2330   21.5840   11.6400 O.2   255  GLU255     -0.2867
     73  CB       -11.6700   19.4910   10.5430 C.3   255  GLU255      0.0388
     74  CG       -12.6940   18.4290   10.3930 C.3   255  GLU255      0.1160
     75  CD       -13.6560   18.7020    9.2510 C.2   255  GLU255      0.3649
     76  OE1      -13.3120   19.4760    8.3290 O.co2 255  GLU255     -0.2457
     77  OE2      -14.7520   18.1260    9.2810 O.co2 255  GLU255     -0.2457
     78  N        -11.6570   10.1690   11.0940 N.3   274  MET274     -0.1245
     79  CA       -10.9920   10.6810    9.9050 C.3   274  MET274      0.1570
     80  C        -10.0840   11.8260   10.2850 C.2   274  MET274      0.2261
     81  O        -10.5040   12.7900   10.9190 O.2   274  MET274     -0.2867
     82  CB       -11.9900   11.1510    8.8450 C.3   274  MET274      0.0387
     83  CG       -11.2900   11.6610    7.5520 C.3   274  MET274      0.0595
     84  SD       -12.3500   12.6680    6.5020 S.3   274  MET274     -0.1393
     85  CE       -13.6520   11.5090    6.1370 C.3   274  MET274      0.0692
     86  N         -8.9940   14.7710    8.9990 N.3   276  ALA276     -0.1245
     87  CA        -9.4700   15.6580    7.9520 C.3   276  ALA276      0.1562
     88  C         -8.5100   16.8100    7.8070 C.2   276  ALA276      0.2260
     89  O         -8.7890   17.9290    8.2140 O.2   276  ALA276     -0.2867
     90  CB       -10.9080   16.1660    8.2810 C.3   276  ALA276      0.0290
     91  N         -7.3900   18.8470    5.6290 N.3   278  GLY278     -0.1210
     92  CA        -7.6630   20.0730    4.8800 C.3   278  GLY278      0.1956
     93  C         -7.9010   21.2360    5.8090 C.2   278  GLY278      0.2611
     94  O         -7.0880   22.1650    5.8800 O.2   278  GLY278     -0.2717
     95  N         -9.0090   21.1740    6.5510 N.am  279  ASP279     -0.1973
     96  CA        -9.3120   22.2030    7.5450 C.3   279  ASP279      0.1709
     97  C         -8.3770   22.1590    8.7380 C.2   279  ASP279      0.2293
     98  O         -8.0170   23.1930    9.2700 O.2   279  ASP279     -0.2864
     99  CB       -10.7620   22.1080    8.0180 C.3   279  ASP279      0.1436
    100  CG       -11.6880   22.9130    7.1620 C.2   279  ASP279      0.3671
    101  OD1      -12.3540   23.7960    7.7030 O.co2 279  ASP279     -0.2456
    102  OD2      -11.7250   22.6850    5.9430 O.co2 279  ASP279     -0.2456
    103  N         -7.4540   13.9020    2.3910 N.3   311  THR311     -0.1218
    104  CA        -7.3220   15.2510    1.7970 C.3   311  THR311      0.1862
    105  C         -5.9430   15.5710    1.1760 C.2   311  THR311      0.2287
    106  O         -4.9190   15.5670    1.8620 O.2   311  THR311     -0.2866
    107  CB        -7.7930   16.3550    2.7740 C.3   311  THR311      0.1770
    108  OG1       -9.1150   16.0230    3.2230 O.3   311  THR311     -0.2211
    109  CG2       -7.8390   17.7320    2.0840 C.3   311  THR311      0.0375
    110  N         -7.9400    8.2080    1.3410 N.3   343  MET343     -0.1245
    111  CA        -9.0690    8.8660    0.6930 C.3   343  MET343      0.1570
    112  C         -8.6680    9.7450   -0.4840 C.2   343  MET343      0.2261
    113  O         -7.5760   10.3530   -0.5050 O.2   343  MET343     -0.2867
    114  CB        -9.8280    9.7150    1.7160 C.3   343  MET343      0.0387
    115  CG       -11.2390   10.1230    1.2670 C.3   343  MET343      0.0595
    116  SD       -12.2740   10.6920    2.6430 S.3   343  MET343     -0.1393
    117  CE       -12.1130   12.4550    2.4850 C.3   343  MET343      0.0692
    118  N        -10.5260   12.9250   -2.7750 N.3   345  SER345     -0.1217
    119  CA       -11.5900   13.9000   -2.7720 C.3   345  SER345      0.1889
    120  C        -11.7500   14.4720   -4.1750 C.2   345  SER345      0.2288
    121  O        -12.3530   13.8250   -5.0270 O.2   345  SER345     -0.2866
    122  CB       -11.3240   14.9540   -1.7070 C.3   345  SER345      0.2089
    123  OG       -11.4280   14.3660   -0.4120 O.3   345  SER345     -0.2183
@<TRIPOS>BOND
     1   121   120    2
     2   120   119    1
     3   118   119    1
     4   119   122    1
     5     4     3    2
     6   122   123    1
     7     1     2    1
     8     3     2    1
     9    15    14    2
    10   113   112    2
    11    12    13    1
    12   112   111    1
    13    16    13    1
    14    16    17    1
    15     2     5    1
    16    23    22    2
    17    14    13    1
    18    22    21    1
    19     5     6    1
    20    10     9    1
    21    19    17   am
    22    17    18    2
    23   111   110    1
    24   111   114    1
    25     6     7    1
    26   105   104    1
    27   105   106    2
    28   115   114    1
    29   115   116    1
    30     7     8    1
    31    21    24    1
    32    21    20    1
    33     9     8    2
    34     9    11    1
    35    24    25    1
    36   104   103    1
    37   104   107    1
    38   109   107    1
    39   117   116    1
    40   107   108    1
    41    30    31    1
    42    30    27    1
    43    29    28    2
    44    42    40   ar
    45    26    27    1
    46    41    40   ar
    47    31    33   ar
    48    31    32   ar
    49    40    39    1
    50    27    28    1
    51    92    91    1
    52    92    93    1
    53    93    94    2
    54    93    95   am
    55   102   100   ar
    56    85    84    1
    57    39    38    1
    58    68    67    1
    59    38    35    1
    60    84    83    1
    61    95    96    1
    62   100   101   ar
    63   100    99    1
    64    67    66    1
    65    96    99    1
    66    96    97    1
    67    83    82    1
    68    48    47    1
    69    36    35    1
    70    36    37    2
    71    88    87    1
    72    88    89    2
    73    35    34    1
    74    87    90    1
    75    87    86    1
    76    66    65    1
    77    76    75   ar
    78    59    57   ar
    79    59    58   ar
    80    97    98    2
    81    57    55   ar
    82    47    44    1
    83    82    79    1
    84    65    64    1
    85    75    77   ar
    86    75    74    1
    87    58    56   ar
    88    79    80    1
    89    79    78    1
    90    44    43    1
    91    44    45    1
    92    55    54   ar
    93    64    61    1
    94    80    81    2
    95    74    73    1
    96    73    70    1
    97    56    54   ar
    98    54    53    1
    99    45    49   am
   100    45    46    2
   101    61    60    1
   102    61    62    1
   103    49    50    1
   104    70    71    1
   105    70    69    1
   106    72    71    2
   107    62    63    2
   108    53    50    1
   109    50    51    1
   110    51    52    2
