@<TRIPOS>MOLECULE
tmp/3gqyA00.pdb
 159 155 0 0 0
SMALL
GASTEIGER

@<TRIPOS>ATOM
      1  N        -15.0050  -16.3620    9.3950 N.3   414  LEU414     -0.1231
      2  CA       -16.4680  -16.2880    9.3200 C.3   414  LEU414      0.1693
      3  C        -16.9550  -15.2940   10.3640 C.2   414  LEU414      0.2593
      4  O        -16.5280  -15.3340   11.5200 O.2   414  LEU414     -0.2718
      5  CB       -17.1200  -17.6620    9.5550 C.3   414  LEU414      0.0284
      6  CG       -16.6730  -18.8710    8.7180 C.3   414  LEU414      0.0019
      7  CD1      -17.8020  -19.8940    8.6700 C.3   414  LEU414      0.0001
      8  CD2      -16.2180  -18.5240    7.3070 C.3   414  LEU414      0.0001
      9  N        -17.8470  -14.3930    9.9700 N.am  415  THR415     -0.1939
     10  CA       -18.3210  -13.3770   10.8960 C.3   415  THR415      0.2028
     11  C        -19.6790  -12.8540   10.4700 C.2   415  THR415      0.2642
     12  O        -19.9130  -12.6310    9.2880 O.2   415  THR415     -0.2714
     13  CB       -17.3090  -12.2110   11.0030 C.3   415  THR415      0.1808
     14  OG1      -17.7790  -11.2560   11.9490 O.3   415  THR415     -0.2208
     15  CG2      -17.0910  -11.5240    9.6340 C.3   415  THR415      0.0379
     16  N        -20.5760  -12.6780   11.4380 N.am  416  LYS416     -0.1963
     17  CA       -21.9200  -12.1590   11.1630 C.3   416  LYS416      0.1728
     18  C        -21.9250  -10.6510   11.2480 C.2   416  LYS416      0.2616
     19  O        -22.4500   -9.9650   10.3640 O.2   416  LYS416     -0.2715
     20  CB       -22.9390  -12.7380   12.1430 C.3   416  LYS416      0.0311
     21  CG       -23.1130  -14.2550   12.0310 C.3   416  LYS416      0.0038
     22  CD       -24.1460  -14.6420   10.9650 C.3   416  LYS416      0.0206
     23  CE       -24.0410  -13.8210    9.6810 C.3   416  LYS416      0.1093
     24  NZ       -23.6730  -14.7110    8.5690 N.3   416  LYS416     -0.1314
     25  N        -21.3290  -10.1390   12.3160 N.am  417  SER417     -0.1950
     26  CA       -21.3120   -8.7090   12.6020 C.3   417  SER417      0.1924
     27  C        -20.0340   -8.0160   12.1260 C.2   417  SER417      0.2314
     28  O        -19.9690   -6.7950   12.1220 O.2   417  SER417     -0.2863
     29  CB       -21.4490   -8.4870   14.1060 C.3   417  SER417      0.2116
     30  OG       -20.2100   -8.7460   14.7720 O.3   417  SER417     -0.2180
     31  N        -17.1690   -8.3220   13.8160 N.3   419  ARG419     -0.1231
     32  CA       -16.2970   -8.1920   14.9840 C.3   419  ARG419      0.1694
     33  C        -15.0880   -9.1510   14.9730 C.2   419  ARG419      0.2592
     34  O        -13.9600   -8.7110   15.2250 O.2   419  ARG419     -0.2718
     35  CB       -17.1020   -8.3480   16.2770 C.3   419  ARG419      0.0321
     36  CG       -16.2720   -8.2840   17.5470 C.3   419  ARG419      0.0489
     37  CD       -15.6030   -6.9230   17.7260 C.3   419  ARG419      0.2205
     38  NE       -14.6920   -6.9090   18.8710 N.pl3 419  ARG419     -0.0865
     39  CZ       -15.0610   -7.1070   20.1340 C.cat 419  ARG419      0.5346
     40  NH1      -16.3340   -7.3340   20.4360 N.pl3 419  ARG419      0.1354
     41  NH2      -14.1520   -7.0890   21.1000 N.pl3 419  ARG419      0.1354
     42  N        -15.3120  -10.4390   14.6610 N.am  420  SER420     -0.1952
     43  CA       -14.2160  -11.4270   14.6510 C.3   420  SER420      0.1924
     44  C        -13.0830  -10.9980   13.7120 C.2   420  SER420      0.2314
     45  O        -11.9000  -11.1300   14.0550 O.2   420  SER420     -0.2863
     46  CB       -14.7090  -12.8320   14.2650 C.3   420  SER420      0.2116
     47  OG       -15.6210  -13.3440   15.2340 O.3   420  SER420     -0.2180
     48  N        -22.7720  -13.4460    5.4810 N.3   438  ARG438     -0.1245
     49  CA       -24.0360  -13.3700    4.7430 C.3   438  ARG438      0.1563
     50  C        -24.7230  -12.0200    4.9680 C.2   438  ARG438      0.2260
     51  O        -25.7330  -11.7290    4.3470 O.2   438  ARG438     -0.2867
     52  CB       -24.9770  -14.5090    5.1540 C.3   438  ARG438      0.0307
     53  CG       -24.5470  -15.8730    4.6940 C.3   438  ARG438      0.0489
     54  CD       -25.6990  -16.8590    4.8100 C.3   438  ARG438      0.2205
     55  NE       -25.4090  -18.1400    4.1550 N.pl3 438  ARG438     -0.0865
     56  CZ       -24.9790  -19.2410    4.7690 C.cat 438  ARG438      0.5346
     57  NH1      -24.7690  -20.3440    4.0550 N.pl3 438  ARG438      0.1354
     58  NH2      -24.7590  -19.2610    6.0880 N.pl3 438  ARG438      0.1354
     59  N        -25.3130  -27.4270   10.4640 N.3   465  TRP465     -0.1241
     60  CA       -24.5400  -26.1970   10.6850 C.3   465  TRP465      0.1605
     61  C        -23.0540  -26.3560   10.3430 C.2   465  TRP465      0.2264
     62  O        -22.4570  -25.4600    9.7330 O.2   465  TRP465     -0.2867
     63  CB       -24.6980  -25.7170   12.1290 C.3   465  TRP465      0.0550
     64  CG       -23.9370  -24.4610   12.4140 C.ar  465  TRP465      0.0003
     65  CD1      -24.2840  -23.1920   12.0500 C.ar  465  TRP465      0.0946
     66  CD2      -22.6900  -24.3530   13.1140 C.ar  465  TRP465      0.0152
     67  NE1      -23.3360  -22.2960   12.4890 N.ar  465  TRP465     -0.2442
     68  CE2      -22.3460  -22.9820   13.1430 C.ar  465  TRP465      0.0810
     69  CE3      -21.8300  -25.2820   13.7210 C.ar  465  TRP465      0.0012
     70  CZ2      -21.1800  -22.5140   13.7570 C.ar  465  TRP465      0.0191
     71  CZ3      -20.6710  -24.8170   14.3300 C.ar  465  TRP465      0.0001
     72  CH2      -20.3580  -23.4440   14.3410 C.ar  465  TRP465      0.0015
     73  N        -22.7160  -25.9980    6.8140 N.3   468  ASP468     -0.1225
     74  CA       -22.8720  -24.5740    6.4990 C.3   468  ASP468      0.1805
     75  C        -21.5420  -23.8350    6.7070 C.2   468  ASP468      0.2597
     76  O        -21.1540  -22.9730    5.9000 O.2   468  ASP468     -0.2718
     77  CB       -23.9620  -23.9390    7.3700 C.3   468  ASP468      0.1424
     78  CG       -24.4680  -22.6320    6.8040 C.2   468  ASP468      0.3668
     79  OD1      -24.8470  -22.6170    5.6110 O.co2 468  ASP468     -0.2456
     80  OD2      -24.4910  -21.6180    7.5480 O.co2 468  ASP468     -0.2456
     81  N        -20.8450  -24.1890    7.7850 N.am  469  VAL469     -0.1980
     82  CA       -19.5350  -23.6170    8.0840 C.3   469  VAL469      0.1595
     83  C        -18.5170  -23.9870    6.9920 C.2   469  VAL469      0.2287
     84  O        -17.8370  -23.1030    6.4530 O.2   469  VAL469     -0.2864
     85  CB       -19.0390  -24.0450    9.5030 C.3   469  VAL469      0.0276
     86  CG1      -17.5650  -23.7170    9.7010 C.3   469  VAL469      0.0022
     87  CG2      -19.8940  -23.3760   10.5860 C.3   469  VAL469      0.0022
     88  N        -19.0220  -22.0530    3.5970 N.3   472  ARG472     -0.1245
     89  CA       -18.5010  -20.6830    3.5630 C.3   472  ARG472      0.1563
     90  C        -16.9720  -20.6250    3.5310 C.2   472  ARG472      0.2260
     91  O        -16.3970  -19.7590    2.8770 O.2   472  ARG472     -0.2867
     92  CB       -19.0330  -19.8990    4.7530 C.3   472  ARG472      0.0307
     93  CG       -20.5090  -19.6240    4.6510 C.3   472  ARG472      0.0489
     94  CD       -21.0360  -19.0260    5.9100 C.3   472  ARG472      0.2205
     95  NE       -21.3120  -20.0420    6.9220 N.pl3 472  ARG472     -0.0865
     96  CZ       -21.6950  -19.7740    8.1680 C.cat 472  ARG472      0.5346
     97  NH1      -21.8280  -18.5060    8.5830 N.pl3 472  ARG472      0.1354
     98  NH2      -21.9350  -20.7730    9.0110 N.pl3 472  ARG472      0.1354
     99  N        -13.2920  -19.9250   12.8490 N.3   496  THR496     -0.1203
    100  CA       -14.7050  -20.2860   12.9100 C.3   496  THR496      0.1994
    101  C        -15.1100  -20.2880   14.3830 C.2   496  THR496      0.2618
    102  O        -14.2660  -20.0630   15.2580 O.2   496  THR496     -0.2717
    103  CB       -14.9570  -21.6810   12.2930 C.3   496  THR496      0.1784
    104  OG1      -14.1340  -22.6590   12.9410 O.3   496  THR496     -0.2211
    105  CG2      -14.6330  -21.6850   10.8140 C.3   496  THR496      0.0376
    106  N        -16.3880  -20.5330   14.6630 N.am  497  GLY497     -0.1956
    107  CA       -16.8570  -20.6350   16.0500 C.3   497  GLY497      0.1869
    108  C        -17.3390  -22.0320   16.3640 C.2   497  GLY497      0.2309
    109  O        -17.3150  -22.9140   15.5040 O.2   497  GLY497     -0.2863
    110  N        -20.4490  -22.6330   17.7100 N.3   499  ARG499     -0.1231
    111  CA       -21.9130  -22.6540   17.5650 C.3   499  ARG499      0.1679
    112  C        -22.4020  -21.4350   16.7540 C.2   499  ARG499      0.2434
    113  O        -21.6350  -20.4890   16.5380 O.2   499  ARG499     -0.2733
    114  CB       -22.5770  -22.6770   18.9410 C.3   499  ARG499      0.0321
    115  CG       -22.2830  -21.4370   19.7640 C.3   499  ARG499      0.0489
    116  CD       -23.2540  -21.2860   20.8960 C.3   499  ARG499      0.2205
    117  NE       -24.6100  -21.0510   20.3640 N.pl3 499  ARG499     -0.0865
    118  CZ       -25.6610  -20.7740   21.1210 C.cat 499  ARG499      0.5346
    119  NH1      -25.5300  -20.7120   22.4390 N.pl3 499  ARG499      0.1354
    120  NH2      -26.8520  -20.4810   20.5580 N.pl3 499  ARG499      0.1354
    121  N        -23.6800  -21.4510   16.3060 N.am  500  PRO500     -0.2718
    122  CA       -24.1930  -20.3060   15.5270 C.3   500  PRO500      0.1535
    123  C        -24.3650  -19.0410   16.3660 C.2   500  PRO500      0.2599
    124  O        -24.4070  -19.1150   17.5980 O.2   500  PRO500     -0.2715
    125  CB       -25.5620  -20.8000   15.0150 C.3   500  PRO500      0.0310
    126  CG       -25.5990  -22.2870   15.3090 C.3   500  PRO500      0.0237
    127  CD       -24.6990  -22.5120   16.4570 C.3   500  PRO500      0.0939
    128  N        -24.4680  -17.8940   15.6960 N.am  501  GLY501     -0.1941
    129  CA       -24.6380  -16.6020   16.3720 C.3   501  GLY501      0.2014
    130  C        -23.3060  -15.9050   16.6110 C.2   501  GLY501      0.2640
    131  O        -22.2540  -16.5400   16.5640 O.2   501  GLY501     -0.2714
    132  N        -23.3650  -14.5940   16.8720 N.am  502  SER502     -0.1935
    133  CA       -22.1610  -13.7740   17.1030 C.3   502  SER502      0.2055
    134  C        -21.5460  -14.0270   18.4810 C.2   502  SER502      0.2644
    135  O        -22.2590  -14.3200   19.4540 O.2   502  SER502     -0.2714
    136  CB       -22.4880  -12.2680   16.9740 C.3   502  SER502      0.2130
    137  OG       -22.7060  -11.8910   15.6260 O.3   502  SER502     -0.2179
    138  N        -20.2180  -13.9030   18.5560 N.am  503  GLY503     -0.1939
    139  CA       -19.4990  -13.9310   19.8330 C.3   503  GLY503      0.2014
    140  C        -18.9020  -15.2710   20.2550 C.2   503  GLY503      0.2639
    141  O        -18.4550  -15.4020   21.3960 O.2   503  GLY503     -0.2714
    142  N        -18.8730  -16.2530   19.3440 N.am  504  PHE504     -0.1959
    143  CA       -18.3970  -17.6070   19.6780 C.3   504  PHE504      0.1771
    144  C        -17.2040  -18.0650   18.8440 C.2   504  PHE504      0.2620
    145  O        -16.9210  -19.2590   18.7800 O.2   504  PHE504     -0.2715
    146  CB       -19.5470  -18.6170   19.5580 C.3   504  PHE504      0.0574
    147  CG       -20.7410  -18.2540   20.3800 C.ar  504  PHE504     -0.0200
    148  CD1      -20.6650  -18.2660   21.7710 C.ar  504  PHE504     -0.0042
    149  CD2      -21.9300  -17.8760   19.7780 C.ar  504  PHE504     -0.0042
    150  CE1      -21.7730  -17.9150   22.5530 C.ar  504  PHE504     -0.0003
    151  CE2      -23.0460  -17.5230   20.5550 C.ar  504  PHE504     -0.0003
    152  CZ       -22.9600  -17.5430   21.9400 C.ar  504  PHE504     -0.0000
    153  N        -16.4970  -17.1240   18.2150 N.am  505  THR505     -0.1951
    154  CA       -15.3120  -17.4690   17.4510 C.3   505  THR505      0.1897
    155  C        -14.2600  -17.9690   18.4300 C.2   505  THR505      0.2313
    156  O        -13.9000  -17.2620   19.3800 O.2   505  THR505     -0.2863
    157  CB       -14.7720  -16.2740   16.6310 C.3   505  THR505      0.1794
    158  OG1      -15.7630  -15.8770   15.6630 O.3   505  THR505     -0.2208
    159  CG2      -13.4860  -16.6670   15.8990 C.3   505  THR505      0.0378
@<TRIPOS>BOND
     1    91    90    2
     2    90    89    1
     3    89    88    1
     4    89    92    1
     5    57    56    1
     6    55    56    2
     7    55    54    1
     8    51    50    2
     9    93    92    1
    10    93    94    1
    11    53    54    1
    12    53    52    1
    13    49    50    1
    14    49    52    1
    15    49    48    1
    16    56    58    1
    17    79    78   ar
    18    76    75    2
    19    94    95    1
    20    84    83    2
    21    74    75    1
    22    74    73    1
    23    74    77    1
    24    75    81   am
    25    78    77    1
    26    78    80   ar
    27    95    96    2
    28    83    82    1
    29     8     6    1
    30    81    82    1
    31    82    85    1
    32    96    97    1
    33    96    98    1
    34    24    23    1
    35     7     6    1
    36     6     5    1
    37    12    11    2
    38     2     1    1
    39     2     5    1
    40     2     3    1
    41    85    86    1
    42    85    87    1
    43    15    13    1
    44    23    22    1
    45    62    61    2
    46     9     3   am
    47     9    10    1
    48    61    60    1
    49    19    18    2
    50     3     4    2
    51    59    60    1
    52    11    10    1
    53    11    16   am
    54    60    63    1
    55   105   103    1
    56    10    13    1
    57    22    21    1
    58    13    14    1
    59    17    18    1
    60    17    16    1
    61    17    20    1
    62    18    25   am
    63    21    20    1
    64    65    64   ar
    65    65    67   ar
    66    28    27    2
    67    27    26    1
    68    63    64    1
    69   103   100    1
    70   103   104    1
    71    25    26    1
    72    64    66   ar
    73    67    68   ar
    74    26    29    1
    75    99   100    1
    76   100   101    1
    77    66    68   ar
    78    66    69   ar
    79    68    70   ar
    80    44    45    2
    81    44    43    1
    82    69    71   ar
    83    70    72   ar
    84    31    32    1
    85    29    30    1
    86    46    43    1
    87    46    47    1
    88    71    72   ar
    89   101   106   am
    90   101   102    2
    91    43    42    1
    92    42    33   am
    93   106   107    1
    94    33    32    1
    95    33    34    2
    96    32    35    1
    97   125   126    1
    98   125   122    1
    99   126   127    1
   100   109   108    2
   101   122   121    1
   102   122   123    1
   103   137   136    1
   104   158   157    1
   105   128   123   am
   106   128   129    1
   107   159   157    1
   108   107   108    1
   109    35    36    1
   110   121   127    1
   111   121   112   am
   112   123   124    2
   113   129   130    1
   114   113   112    2
   115   131   130    2
   116   130   132   am
   117   157   154    1
   118   112   111    1
   119   132   133    1
   120   136   133    1
   121   133   134    1
   122   154   153    1
   123   154   155    1
   124    36    37    1
   125   111   110    1
   126   111   114    1
   127    37    38    1
   128   153   144   am
   129   155   156    2
   130   134   138   am
   131   134   135    2
   132   138   139    1
   133   145   144    2
   134   144   143    1
   135    38    39    2
   136   114   115    1
   137   142   143    1
   138   142   140   am
   139   146   143    1
   140   146   147    1
   141   115   116    1
   142   149   147   ar
   143   149   151   ar
   144   139   140    1
   145    39    40    1
   146    39    41    1
   147   140   141    2
   148   117   116    1
   149   117   118    2
   150   147   148   ar
   151   151   152   ar
   152   120   118    1
   153   118   119    1
   154   148   150   ar
   155   152   150   ar
