@<TRIPOS>MOLECULE
tmp/3gqyA02.pdb
 113 107 0 0 0
SMALL
GASTEIGER

@<TRIPOS>ATOM
      1  N         14.9990   -1.5290   13.1320 N.3    13  PHE13      -0.1227
      2  CA        14.2630   -0.7340   12.1480 C.3    13  PHE13       0.1736
      3  C         15.2280   -0.1070   11.1350 C.2    13  PHE13       0.2595
      4  O         14.9410   -0.0510    9.9440 O.2    13  PHE13      -0.2718
      5  CB        13.4240    0.3600   12.7950 C.3    13  PHE13       0.0547
      6  CG        12.5670    1.1060   11.8010 C.ar   13  PHE13      -0.0202
      7  CD1       12.9190    2.3720   11.3670 C.ar   13  PHE13      -0.0042
      8  CD2       11.4370    0.5020   11.2500 C.ar   13  PHE13      -0.0042
      9  CE1       12.1300    3.0500   10.4190 C.ar   13  PHE13      -0.0003
     10  CE2       10.6560    1.1670   10.3030 C.ar   13  PHE13      -0.0003
     11  CZ        10.9980    2.4390    9.8940 C.ar   13  PHE13      -0.0000
     12  N         16.3610    0.3830   11.6180 N.am   14  LEU14      -0.1980
     13  CA        17.3620    0.9480   10.7250 C.3    14  LEU14       0.1596
     14  C         17.7550   -0.0670    9.6570 C.2    14  LEU14       0.2287
     15  O         17.7170    0.2360    8.4670 O.2    14  LEU14      -0.2864
     16  CB        18.5880    1.4390   11.5080 C.3    14  LEU14       0.0297
     17  CG        19.7340    2.0420   10.6700 C.3    14  LEU14       0.0022
     18  CD1       19.2120    2.9520    9.5900 C.3    14  LEU14       0.0001
     19  CD2       20.6930    2.7930   11.5670 C.3    14  LEU14       0.0001
     20  N         14.9450   -0.5720    7.1430 N.3    17  MET17      -0.1245
     21  CA        15.0120    0.4890    6.0980 C.3    17  MET17       0.1570
     22  C         16.0910    0.1890    5.0610 C.2    17  MET17       0.2261
     23  O         15.8420    0.2500    3.8520 O.2    17  MET17      -0.2867
     24  CB        15.3250    1.8560    6.7120 C.3    17  MET17       0.0387
     25  CG        14.2440    2.4390    7.5840 C.3    17  MET17       0.0595
     26  SD        14.6110    4.1450    8.0930 S.3    17  MET17      -0.1393
     27  CE        14.6160    5.0380    6.5370 C.3    17  MET17       0.0692
     28  N         -1.9830    6.5180   15.6310 N.3   298  GLY298     -0.1225
     29  CA        -1.4260    5.7340   16.7300 C.3   298  GLY298      0.1811
     30  C         -2.4790    5.3470   17.7630 C.2   298  GLY298      0.2280
     31  O         -2.6230    4.1640   18.1260 O.2   298  GLY298     -0.2866
     32  N         -4.9740    2.9110   16.2300 N.3   301  ASN301     -0.1240
     33  CA        -4.3670    1.5720   16.2140 C.3   301  ASN301      0.1653
     34  C         -4.4010    0.9290   17.6110 C.2   301  ASN301      0.2266
     35  O         -4.7130   -0.2450   17.7400 O.2   301  ASN301     -0.2867
     36  CB        -2.9050    1.6130   15.7470 C.3   301  ASN301      0.1155
     37  CG        -2.7450    1.9110   14.2530 C.2   301  ASN301      0.2627
     38  OD1       -1.6160    2.0250   13.7770 O.2   301  ASN301     -0.2716
     39  ND2       -3.8640    2.0360   13.5120 N.am  301  ASN301     -0.0877
     40  N          2.2220    3.3630    6.2460 N.3   336  LEU336     -0.1231
     41  CA         3.2640    3.0260    7.2360 C.3   336  LEU336      0.1693
     42  C          2.9170    3.5630    8.6320 C.2   336  LEU336      0.2592
     43  O          3.2460    2.9370    9.6310 O.2   336  LEU336     -0.2718
     44  CB         4.6490    3.5260    6.7690 C.3   336  LEU336      0.0284
     45  CG         5.2010    2.8630    5.5020 C.3   336  LEU336      0.0019
     46  CD1        6.4030    3.6450    4.9480 C.3   336  LEU336      0.0001
     47  CD2        5.5990    1.4140    5.7770 C.3   336  LEU336      0.0001
     48  N          2.2300    4.7070    8.7040 N.am  337  ASP337     -0.1960
     49  CA         1.7420    5.2190    9.9900 C.3   337  ASP337      0.1840
     50  C          0.7670    4.2170   10.6530 C.2   337  ASP337      0.2622
     51  O          0.7080    4.1280   11.8750 O.2   337  ASP337     -0.2715
     52  CB         0.9960    6.5590    9.8250 C.3   337  ASP337      0.1450
     53  CG         1.9140    7.7440    9.5940 C.2   337  ASP337      0.3671
     54  OD1        3.1420    7.6550    9.8280 O.co2 337  ASP337     -0.2456
     55  OD2        1.3820    8.7950    9.1630 O.co2 337  ASP337     -0.2456
     56  N         -0.0120    3.5070    9.8390 N.am  338  GLY338     -0.1954
     57  CA        -1.0460    2.5810   10.3420 C.3   338  GLY338      0.1869
     58  C         -2.4940    2.9280    9.9520 C.2   338  GLY338      0.2309
     59  O         -3.4340    2.3820   10.5300 O.2   338  GLY338     -0.2863
     60  N          6.0370   -2.4490    5.7360 N.3   372  ILE372     -0.1231
     61  CA         5.7520   -2.3340    7.1570 C.3   372  ILE372      0.1692
     62  C          6.7080   -3.2500    7.9290 C.2   372  ILE372      0.2592
     63  O          7.0380   -4.3380    7.4580 O.2   372  ILE372     -0.2718
     64  CB         4.2710   -2.7300    7.4610 C.3   372  ILE372      0.0266
     65  CG1        3.3150   -1.6500    6.9380 C.3   372  ILE372      0.0019
     66  CG2        4.0560   -2.9340    8.9430 C.3   372  ILE372      0.0020
     67  CD1        1.8660   -2.0950    6.8690 C.3   372  ILE372      0.0001
     68  N          7.1530   -2.8020    9.1010 N.am  373  TYR373     -0.1976
     69  CA         8.0450   -3.6180    9.9410 C.3   373  TYR373      0.1639
     70  C          7.1840   -4.3810   10.9360 C.2   373  TYR373      0.2290
     71  O          7.0480   -3.9860   12.1010 O.2   373  TYR373     -0.2864
     72  CB         9.0640   -2.7270   10.6470 C.3   373  TYR373      0.0560
     73  CG        10.2000   -3.4500   11.3530 C.ar  373  TYR373     -0.0198
     74  CD1       10.8760   -4.5080   10.7490 C.ar  373  TYR373     -0.0009
     75  CD2       10.6410   -3.0220   12.6010 C.ar  373  TYR373     -0.0009
     76  CE1       11.9540   -5.1570   11.4000 C.ar  373  TYR373      0.0417
     77  CE2       11.7110   -3.6590   13.2590 C.ar  373  TYR373      0.0417
     78  CZ        12.3540   -4.7220   12.6530 C.ar  373  TYR373      0.1957
     79  OH        13.4040   -5.3380   13.3080 O.3   373  TYR373     -0.2866
     80  N          8.3210   -5.5080   14.7920 N.3   376  GLN376     -0.1231
     81  CA         8.1060   -4.5620   15.8840 C.3   376  GLN376      0.1698
     82  C          6.6380   -4.1910   16.0650 C.2   376  GLN376      0.2592
     83  O          6.1630   -4.0920   17.1940 O.2   376  GLN376     -0.2718
     84  CB         8.9350   -3.2850   15.6850 C.3   376  GLN376      0.0381
     85  CG         8.8290   -2.3030   16.8510 C.3   376  GLN376      0.0905
     86  CD         9.9420   -1.2470   16.8680 C.2   376  GLN376      0.2608
     87  OE1       10.9280   -1.3390   16.1350 O.2   376  GLN376     -0.2717
     88  NE2        9.7770   -0.2490   17.7130 N.am  376  GLN376     -0.0878
     89  N          5.9320   -3.9580   14.9570 N.am  377  LEU377     -0.1980
     90  CA         4.5220   -3.5460   15.0100 C.3   377  LEU377      0.1596
     91  C          3.6860   -4.5620   15.8010 C.2   377  LEU377      0.2287
     92  O          2.9300   -4.2030   16.7190 O.2   377  LEU377     -0.2864
     93  CB         3.9590   -3.3930   13.5820 C.3   377  LEU377      0.0297
     94  CG         2.4890   -2.9570   13.4370 C.3   377  LEU377      0.0022
     95  CD1        2.1750   -1.7810   14.3420 C.3   377  LEU377      0.0001
     96  CD2        2.1630   -2.6140   11.9740 C.3   377  LEU377      0.0001
     97  N          4.6090   -4.7200   19.5610 N.3   380  GLU380     -0.1231
     98  CA         4.0650   -3.6100   20.3510 C.3   380  GLU380      0.1699
     99  C          2.5430   -3.6940   20.5120 C.2   380  GLU380      0.2592
    100  O          2.0090   -3.3370   21.5650 O.2   380  GLU380     -0.2718
    101  CB         4.4780   -2.2570   19.7550 C.3   380  GLU380      0.0402
    102  CG         5.9640   -1.9600   19.9340 C.3   380  GLU380      0.1161
    103  CD         6.3820   -0.5890   19.4130 C.2   380  GLU380      0.3649
    104  OE1        5.4940    0.2170   19.0220 O.co2 380  GLU380     -0.2457
    105  OE2        7.6130   -0.3140   19.4150 O.co2 380  GLU380     -0.2457
    106  N          1.8490   -4.1810   19.4860 N.am  381  LEU381     -0.1980
    107  CA         0.3920   -4.3320   19.5800 C.3   381  LEU381      0.1596
    108  C          0.0350   -5.3690   20.6470 C.2   381  LEU381      0.2287
    109  O         -0.8530   -5.1340   21.4710 O.2   381  LEU381     -0.2864
    110  CB        -0.2210   -4.6850   18.2200 C.3   381  LEU381      0.0297
    111  CG        -0.2440   -3.5100   17.2350 C.3   381  LEU381      0.0022
    112  CD1       -0.5730   -3.9790   15.8150 C.3   381  LEU381      0.0001
    113  CD2       -1.2310   -2.4300   17.7030 C.3   381  LEU381      0.0001
@<TRIPOS>BOND
     1    23    22    2
     2    46    45    1
     3    22    21    1
     4    45    47    1
     5    45    44    1
     6    60    61    1
     7    21    24    1
     8    21    20    1
     9    40    41    1
    10    27    26    1
    11    24    25    1
    12    44    41    1
    13    67    65    1
    14    65    64    1
    15    61    64    1
    16    61    62    1
    17    41    42    1
    18    63    62    2
    19    64    66    1
    20    25    26    1
    21    62    68   am
    22    15    14    2
    23    42    48   am
    24    42    43    2
    25    48    49    1
    26    68    69    1
    27    55    53   ar
    28    18    17    1
    29    53    52    1
    30    53    54   ar
    31    14    13    1
    32    52    49    1
    33    56    57    1
    34    56    50   am
    35    11    10   ar
    36    11     9   ar
    37    69    72    1
    38    69    70    1
    39     4     3    2
    40    58    57    1
    41    58    59    2
    42    49    50    1
    43    10     8   ar
    44     9     7   ar
    45    72    73    1
    46    50    51    2
    47    17    16    1
    48    17    19    1
    49    13    16    1
    50    13    12    1
    51    74    73   ar
    52    74    76   ar
    53    70    71    2
    54     3    12   am
    55     3     2    1
    56     8     6   ar
    57    73    75   ar
    58     7     6   ar
    59    76    78   ar
    60     6     5    1
    61    96    94    1
    62     2     5    1
    63     2     1    1
    64    75    77   ar
    65    78    77   ar
    66    78    79    1
    67    94    93    1
    68    94    95    1
    69    39    37   am
    70    93    90    1
    71    38    37    2
    72    37    36    1
    73    80    81    1
    74    89    90    1
    75    89    82   am
    76    90    91    1
    77    28    29    1
    78    84    81    1
    79    84    85    1
    80    36    33    1
    81    91    92    2
    82   112   111    1
    83    81    82    1
    84    82    83    2
    85    87    86    2
    86    33    32    1
    87    33    34    1
    88    29    30    1
    89    85    86    1
    90    86    88   am
    91   111   113    1
    92   111   110    1
    93    34    35    2
    94    30    31    2
    95   110   107    1
    96   104   103   ar
    97   103   105   ar
    98   103   102    1
    99   106   107    1
   100   106    99   am
   101    97    98    1
   102   107   108    1
   103   101   102    1
   104   101    98    1
   105    98    99    1
   106    99   100    2
   107   108   109    2
