@<TRIPOS>MOLECULE
tmp/3gqzA00.pdb
 91 86 0 0 0
SMALL
GASTEIGER

@<TRIPOS>ATOM
      1  N        -30.2540   13.8380   11.5390 N.3   116  LEU116     -0.1245
      2  CA       -30.8390   12.6170   12.0750 C.3   116  LEU116      0.1561
      3  C        -31.0510   11.5360   11.0160 C.2   116  LEU116      0.2260
      4  O        -30.7500   10.3670   11.2530 O.2   116  LEU116     -0.2867
      5  CB       -32.1560   12.9270   12.7970 C.3   116  LEU116      0.0270
      6  CG       -32.8970   11.7280   13.4000 C.3   116  LEU116      0.0019
      7  CD1      -32.1180   11.1110   14.5620 C.3   116  LEU116      0.0001
      8  CD2      -34.2950   12.1250   13.8350 C.3   116  LEU116      0.0001
      9  N        -21.8510   15.7470   20.7270 N.3   145  ARG145     -0.1245
     10  CA       -22.5890   14.5620   20.3160 C.3   145  ARG145      0.1563
     11  C        -24.0030   14.9650   19.9150 C.2   145  ARG145      0.2260
     12  O        -24.7000   15.6560   20.6620 O.2   145  ARG145     -0.2867
     13  CB       -22.6330   13.5460   21.4600 C.3   145  ARG145      0.0307
     14  CG       -23.3820   12.2510   21.1600 C.3   145  ARG145      0.0489
     15  CD       -23.6560   11.4820   22.4490 C.3   145  ARG145      0.2205
     16  NE       -24.3480   10.2140   22.2170 N.pl3 145  ARG145     -0.0865
     17  CZ       -25.6680   10.0760   22.1050 C.cat 145  ARG145      0.5346
     18  NH1      -26.4750   11.1280   22.1970 N.pl3 145  ARG145      0.1354
     19  NH2      -26.1850    8.8730   21.8970 N.pl3 145  ARG145      0.1354
     20  N        -27.0630   12.6520   18.1570 N.3   147  TYR147     -0.1241
     21  CA       -27.5170   11.3790   17.5930 C.3   147  TYR147      0.1605
     22  C        -27.9420   11.5220   16.1440 C.2   147  TYR147      0.2264
     23  O        -28.6960   12.4370   15.8000 O.2   147  TYR147     -0.2867
     24  CB       -28.7030   10.8830   18.3810 C.3   147  TYR147      0.0534
     25  CG       -29.0890    9.4440   18.1500 C.ar  147  TYR147     -0.0201
     26  CD1      -30.2160    9.1140   17.3930 C.ar  147  TYR147     -0.0009
     27  CD2      -28.3540    8.4100   18.7270 C.ar  147  TYR147     -0.0009
     28  CE1      -30.5930    7.7860   17.2170 C.ar  147  TYR147      0.0417
     29  CE2      -28.7200    7.0890   18.5580 C.ar  147  TYR147      0.0417
     30  CZ       -29.8360    6.7830   17.8030 C.ar  147  TYR147      0.1957
     31  OH       -30.1790    5.4630   17.6410 O.3   147  TYR147     -0.2866
     32  N        -24.0100    2.1230   24.4590 N.3   269  GLU269     -0.1245
     33  CA       -23.8090    3.2320   25.3760 C.3   269  GLU269      0.1567
     34  C        -23.6600    2.6610   26.7880 C.2   269  GLU269      0.2260
     35  O        -24.2180    1.6020   27.0860 O.2   269  GLU269     -0.2867
     36  CB       -24.9830    4.2000   25.2600 C.3   269  GLU269      0.0388
     37  CG       -25.1220    4.7850   23.8460 C.3   269  GLU269      0.1160
     38  CD       -26.3660    5.6280   23.6500 C.2   269  GLU269      0.3649
     39  OE1      -26.9790    6.0430   24.6550 O.co2 269  GLU269     -0.2457
     40  OE2      -26.7270    5.8790   22.4780 O.co2 269  GLU269     -0.2457
     41  N        -33.4260   10.2240   26.5230 N.3   287  LYS287     -0.1231
     42  CA       -33.6000   10.0060   25.0790 C.3   287  LYS287      0.1693
     43  C        -34.8600   10.6240   24.4520 C.2   287  LYS287      0.2592
     44  O        -35.1390   10.3940   23.2710 O.2   287  LYS287     -0.2718
     45  CB       -33.4870    8.5090   24.7140 C.3   287  LYS287      0.0285
     46  CG       -32.3220    7.7410   25.3650 C.3   287  LYS287      0.0035
     47  CD       -30.9760    8.4020   25.1020 C.3   287  LYS287      0.0206
     48  CE       -29.8120    7.5030   25.4660 C.3   287  LYS287      0.1093
     49  NZ       -28.5320    8.1210   25.0130 N.3   287  LYS287     -0.1314
     50  N        -35.6120   11.4010   25.2290 N.am  288  ILE288     -0.1966
     51  CA       -36.8360   12.0290   24.7210 C.3   288  ILE288      0.1727
     52  C        -36.5190   13.1160   23.6920 C.2   288  ILE288      0.2616
     53  O        -37.0870   13.1270   22.5970 O.2   288  ILE288     -0.2715
     54  CB       -37.7270   12.5770   25.8720 C.3   288  ILE288      0.0290
     55  CG1      -38.3830   11.4210   26.6440 C.3   288  ILE288      0.0022
     56  CG2      -38.7860   13.5620   25.3500 C.3   288  ILE288      0.0023
     57  CD1      -39.4390   10.6320   25.8580 C.3   288  ILE288      0.0001
     58  N        -35.6010   14.0120   24.0420 N.am  289  ALA289     -0.1963
     59  CA       -35.2170   15.1010   23.1520 C.3   289  ALA289      0.1728
     60  C        -34.0560   14.7000   22.2550 C.2   289  ALA289      0.2616
     61  O        -33.2250   13.8800   22.6460 O.2   289  ALA289     -0.2715
     62  CB       -34.8460   16.3320   23.9620 C.3   289  ALA289      0.0334
     63  N        -34.0070   15.2740   21.0530 N.am  290  LEU290     -0.1963
     64  CA       -32.8020   15.2170   20.2300 C.3   290  LEU290      0.1728
     65  C        -31.8610   16.2940   20.7600 C.2   290  LEU290      0.2616
     66  O        -32.1040   17.4910   20.5750 O.2   290  LEU290     -0.2715
     67  CB       -33.1190   15.4110   18.7400 C.3   290  LEU290      0.0311
     68  CG       -31.9800   15.2510   17.7200 C.3   290  LEU290      0.0022
     69  CD1      -31.2150   13.9390   17.8850 C.3   290  LEU290      0.0001
     70  CD2      -32.5170   15.3760   16.3030 C.3   290  LEU290      0.0001
     71  N        -30.8010   15.8640   21.4390 N.am  291  ALA291     -0.1977
     72  CA       -29.9980   16.7770   22.2490 C.3   291  ALA291      0.1597
     73  C        -28.5600   16.9040   21.7640 C.2   291  ALA291      0.2287
     74  O        -27.8660   15.9000   21.5940 O.2   291  ALA291     -0.2864
     75  CB       -30.0260   16.3410   23.7120 C.3   291  ALA291      0.0319
     76  N        -28.8010   -0.0560   24.8890 N.3   312  LYS312     -0.1231
     77  CA       -29.2340    0.6630   23.6960 C.3   312  LYS312      0.1693
     78  C        -30.7500    0.5790   23.5690 C.2   312  LYS312      0.2592
     79  O        -31.3450   -0.4820   23.7760 O.2   312  LYS312     -0.2718
     80  CB       -28.5610    0.1100   22.4320 C.3   312  LYS312      0.0285
     81  CG       -28.8180    0.9230   21.1490 C.3   312  LYS312      0.0035
     82  CD       -28.1730    2.3140   21.1980 C.3   312  LYS312      0.0206
     83  CE       -28.4690    3.1260   19.9380 C.3   312  LYS312      0.1093
     84  NZ       -29.7910    3.8190   19.9910 N.3   312  LYS312     -0.1314
     85  N        -31.3630    1.7090   23.2360 N.am  313  THR313     -0.1953
     86  CA       -32.7870    1.7550   22.9500 C.3   313  THR313      0.1897
     87  C        -33.0020    1.8420   21.4400 C.2   313  THR313      0.2313
     88  O        -32.1240    2.3050   20.7080 O.2   313  THR313     -0.2863
     89  CB       -33.4630    2.9420   23.6650 C.3   313  THR313      0.1794
     90  OG1      -34.8860    2.7820   23.6170 O.3   313  THR313     -0.2208
     91  CG2      -33.0760    4.2800   23.0250 C.3   313  THR313      0.0378
@<TRIPOS>BOND
     1     3     4    2
     2     3     2    1
     3     1     2    1
     4     2     5    1
     5     5     6    1
     6     6     8    1
     7     6     7    1
     8    23    22    2
     9    22    21    1
    10    70    68    1
    11    28    26   ar
    12    28    30   ar
    13    26    25   ar
    14    21    20    1
    15    21    24    1
    16    31    30    1
    17    68    69    1
    18    68    67    1
    19    30    29   ar
    20    25    24    1
    21    25    27   ar
    22    29    27   ar
    23    67    64    1
    24    11    10    1
    25    11    12    2
    26    83    84    1
    27    83    82    1
    28    64    65    1
    29    64    63    1
    30    10     9    1
    31    10    13    1
    32    66    65    2
    33    88    87    2
    34    65    71   am
    35    63    60   am
    36    81    82    1
    37    81    80    1
    38    14    13    1
    39    14    15    1
    40    71    72    1
    41    87    86    1
    42    74    73    2
    43    73    72    1
    44    19    17    1
    45    17    18    1
    46    17    16    2
    47    16    15    1
    48    72    75    1
    49    60    61    2
    50    60    59    1
    51    80    77    1
    52    40    38   ar
    53    53    52    2
    54    86    85    1
    55    86    89    1
    56    91    89    1
    57    59    62    1
    58    59    58    1
    59    85    78   am
    60    44    43    2
    61    78    77    1
    62    78    79    2
    63    90    89    1
    64    38    37    1
    65    38    39   ar
    66    52    58   am
    67    52    51    1
    68    77    76    1
    69    37    36    1
    70    43    42    1
    71    43    50   am
    72    32    33    1
    73    45    42    1
    74    45    46    1
    75    51    50    1
    76    51    54    1
    77    49    48    1
    78    42    41    1
    79    47    46    1
    80    47    48    1
    81    36    33    1
    82    56    54    1
    83    33    34    1
    84    57    55    1
    85    54    55    1
    86    34    35    2
