@<TRIPOS>MOLECULE
tmp/3gr2A00.pdb
 108 102 0 0 0
SMALL
GASTEIGER

@<TRIPOS>ATOM
      1  N        -32.6230    1.5770   16.1700 N.3    61  SER61      -0.1217
      2  CA       -31.2810    2.0850   16.4860 C.3    61  SER61       0.1889
      3  C        -30.3670    1.1530   17.2930 C.2    61  SER61       0.2288
      4  O        -29.1710    1.4270   17.4240 O.2    61  SER61      -0.2866
      5  CB       -31.3880    3.4360   17.1830 C.3    61  SER61       0.2089
      6  OG       -31.9210    4.4060   16.2990 O.3    61  SER61      -0.2183
      7  N        -30.1430   14.4340   12.2980 N.3   116  LEU116     -0.1231
      8  CA       -30.6970   13.1870   12.8420 C.3   116  LEU116      0.1693
      9  C        -31.0490   12.1850   11.7460 C.2   116  LEU116      0.2591
     10  O        -30.7230   11.0020   11.8520 O.2   116  LEU116     -0.2718
     11  CB       -31.9290   13.4550   13.7250 C.3   116  LEU116      0.0284
     12  CG       -32.6820   12.2340   14.2890 C.3   116  LEU116      0.0019
     13  CD1      -31.7940   11.3970   15.2130 C.3   116  LEU116      0.0001
     14  CD2      -33.9530   12.6600   15.0200 C.3   116  LEU116      0.0001
     15  N        -31.7110   12.6760   10.6990 N.am  117  GLN117     -0.1979
     16  CA       -32.1610   11.8500    9.5820 C.3   117  GLN117      0.1601
     17  C        -31.5600   12.3130    8.2560 C.2   117  GLN117      0.2287
     18  O        -31.3890   13.5140    8.0250 O.2   117  GLN117     -0.2864
     19  CB       -33.6950   11.8840    9.4580 C.3   117  GLN117      0.0394
     20  CG       -34.4840   11.5190   10.7220 C.3   117  GLN117      0.0908
     21  CD       -35.3450   12.6630   11.2590 C.2   117  GLN117      0.2608
     22  OE1      -34.9470   13.8290   11.2400 O.2   117  GLN117     -0.2717
     23  NE2      -36.5330   12.3220   11.7490 N.am  117  GLN117     -0.0878
     24  N        -28.4690    9.6320   12.6420 N.3   149  ASN149     -0.1240
     25  CA       -28.3600    8.5110   11.7070 C.3   149  ASN149      0.1653
     26  C        -27.4210    8.7980   10.5400 C.2   149  ASN149      0.2266
     27  O        -26.7290    7.8990   10.0640 O.2   149  ASN149     -0.2867
     28  CB       -29.7330    8.1050   11.1750 C.3   149  ASN149      0.1155
     29  CG       -30.6450    7.5750   12.2570 C.2   149  ASN149      0.2627
     30  OD1      -30.3750    6.5330   12.8550 O.2   149  ASN149     -0.2716
     31  ND2      -31.7360    8.2880   12.5160 N.am  149  ASN149     -0.0877
     32  N        -48.4230    1.2050   14.8110 N.3   201  ARG201     -0.1245
     33  CA       -48.4100    2.6430   15.0050 C.3   201  ARG201      0.1563
     34  C        -49.8110    3.1700   14.7380 C.2   201  ARG201      0.2260
     35  O        -50.3760    2.9330   13.6650 O.2   201  ARG201     -0.2867
     36  CB       -47.3980    3.2980   14.0630 C.3   201  ARG201      0.0307
     37  CG       -47.2650    4.8020   14.2330 C.3   201  ARG201      0.0489
     38  CD       -46.1970    5.3660   13.3170 C.3   201  ARG201      0.2205
     39  NE       -46.0670    6.8130   13.4640 N.pl3 201  ARG201     -0.0865
     40  CZ       -45.0050    7.5190   13.0810 C.cat 201  ARG201      0.5346
     41  NH1      -43.9580    6.9190   12.5260 N.pl3 201  ARG201      0.1354
     42  NH2      -44.9860    8.8330   13.2600 N.pl3 201  ARG201      0.1354
     43  N        -47.4160   -1.8780   10.4590 N.3   206  VAL206     -0.1231
     44  CA       -46.3860   -1.2000    9.6700 C.3   206  VAL206      0.1692
     45  C        -45.0470   -1.9300    9.7230 C.2   206  VAL206      0.2592
     46  O        -44.7200   -2.5770   10.7220 O.2   206  VAL206     -0.2718
     47  CB       -46.1700    0.2790   10.1260 C.3   206  VAL206      0.0266
     48  CG1      -47.3960    1.1410    9.8220 C.3   206  VAL206      0.0020
     49  CG2      -45.7970    0.3600   11.6080 C.3   206  VAL206      0.0020
     50  N        -44.2870   -1.8350    8.6380 N.am  207  HIS207     -0.1962
     51  CA       -42.8830   -2.2300    8.6500 C.3   207  HIS207      0.1787
     52  C        -42.0230   -1.0360    8.2770 C.2   207  HIS207      0.2620
     53  O        -42.5080   -0.0930    7.6460 O.2   207  HIS207     -0.2715
     54  CB       -42.6170   -3.3890    7.6920 C.3   207  HIS207      0.0785
     55  CG       -42.9840   -4.7300    8.2450 C.ar  207  HIS207      0.0821
     56  ND1      -43.4750   -5.7470    7.4560 N.ar  207  HIS207     -0.2267
     57  CD2      -42.9360   -5.2210    9.5060 C.ar  207  HIS207      0.1154
     58  CE1      -43.7100   -6.8090    8.2060 C.ar  207  HIS207      0.1986
     59  NE2      -43.3920   -6.5160    9.4540 N.ar  207  HIS207     -0.2212
     60  N        -40.7520   -1.0750    8.6690 N.am  208  VAL208     -0.1963
     61  CA       -39.8190    0.0090    8.3650 C.3   208  VAL208      0.1727
     62  C        -39.7250    0.2420    6.8490 C.2   208  VAL208      0.2616
     63  O        -39.7050   -0.7120    6.0640 O.2   208  VAL208     -0.2715
     64  CB       -38.4170   -0.2330    9.0120 C.3   208  VAL208      0.0290
     65  CG1      -37.7040   -1.4340    8.3860 C.3   208  VAL208      0.0023
     66  CG2      -37.5500    1.0250    8.9480 C.3   208  VAL208      0.0023
     67  N        -39.7060    1.5110    6.4490 N.am  209  SER209     -0.1950
     68  CA       -39.5710    1.8840    5.0420 C.3   209  SER209      0.1924
     69  C        -38.1000    1.9830    4.6470 C.2   209  SER209      0.2314
     70  O        -37.2650    2.3640    5.4720 O.2   209  SER209     -0.2863
     71  CB       -40.2680    3.2200    4.7690 C.3   209  SER209      0.2116
     72  OG       -41.6510    3.1500    5.0760 O.3   209  SER209     -0.2180
     73  N        -30.2450    1.8220   11.2640 N.3   218  TYR218     -0.1241
     74  CA       -31.4660    1.3510   11.9290 C.3   218  TYR218      0.1605
     75  C        -32.1090    0.1030   11.3120 C.2   218  TYR218      0.2264
     76  O        -33.2660   -0.2120   11.6070 O.2   218  TYR218     -0.2867
     77  CB       -32.5000    2.4910   12.0170 C.3   218  TYR218      0.0534
     78  CG       -32.9010    3.1240   10.6910 C.ar  218  TYR218     -0.0201
     79  CD1      -33.9650    2.6140    9.9440 C.ar  218  TYR218     -0.0009
     80  CD2      -32.2390    4.2530   10.2030 C.ar  218  TYR218     -0.0009
     81  CE1      -34.3460    3.1990    8.7360 C.ar  218  TYR218      0.0417
     82  CE2      -32.6120    4.8450    8.9950 C.ar  218  TYR218      0.0417
     83  CZ       -33.6660    4.3130    8.2690 C.ar  218  TYR218      0.1957
     84  OH       -34.0390    4.8940    7.0780 O.3   218  TYR218     -0.2866
     85  N        -35.7050    2.3900   18.0470 N.3   315  ALA315     -0.1231
     86  CA       -37.0850    2.5020   17.6020 C.3   315  ALA315      0.1694
     87  C        -37.2000    2.5960   16.0890 C.2   315  ALA315      0.2593
     88  O        -36.3130    3.1230   15.4120 O.2   315  ALA315     -0.2718
     89  CB       -37.7670    3.7020   18.2600 C.3   315  ALA315      0.0304
     90  N        -38.2920    2.0440   15.5730 N.am  316  THR316     -0.1939
     91  CA       -38.7990    2.3840   14.2510 C.3   316  THR316      0.2028
     92  C        -40.2340    2.8540   14.4670 C.2   316  THR316      0.2642
     93  O        -40.7180    2.8550   15.6020 O.2   316  THR316     -0.2714
     94  CB       -38.7660    1.1880   13.2740 C.3   316  THR316      0.1808
     95  OG1      -39.5660    0.1180   13.7940 O.3   316  THR316     -0.2208
     96  CG2      -37.3390    0.6970   13.0490 C.3   316  THR316      0.0379
     97  N        -40.9140    3.2570   13.3960 N.am  317  GLY317     -0.1954
     98  CA       -42.2970    3.7310   13.4970 C.3   317  GLY317      0.1869
     99  C        -43.1930    2.7930   14.2870 C.2   317  GLY317      0.2309
    100  O        -44.0850    3.2360   15.0130 O.2   317  GLY317     -0.2863
    101  N        -43.7080    1.3230   19.2880 N.3   340  ASN340     -0.1240
    102  CA       -42.8200    2.3820   19.7520 C.3   340  ASN340      0.1653
    103  C        -43.4200    3.0750   20.9760 C.2   340  ASN340      0.2266
    104  O        -44.3100    3.9220   20.8530 O.2   340  ASN340     -0.2867
    105  CB       -42.5490    3.3910   18.6310 C.3   340  ASN340      0.1155
    106  CG       -41.4040    4.3420   18.9550 C.2   340  ASN340      0.2627
    107  OD1      -40.7100    4.1920   19.9640 O.2   340  ASN340     -0.2716
    108  ND2      -41.1980    5.3280   18.0880 N.am  340  ASN340     -0.0877
@<TRIPOS>BOND
     1    69    68    1
     2    69    70    2
     3    71    68    1
     4    71    72    1
     5    68    67    1
     6    63    62    2
     7    67    62   am
     8    62    61    1
     9    84    83    1
    10    56    58   ar
    11    56    55   ar
    12    53    52    2
    13    54    55    1
    14    54    51    1
    15    18    17    2
    16    58    59   ar
    17    55    57   ar
    18    17    16    1
    19    83    81   ar
    20    83    82   ar
    21    52    51    1
    22    52    60   am
    23    61    60    1
    24    61    64    1
    25    65    64    1
    26    50    51    1
    27    50    45   am
    28    81    79   ar
    29    66    64    1
    30    82    80   ar
    31    59    57   ar
    32    19    16    1
    33    19    20    1
    34    16    15    1
    35    44    45    1
    36    44    47    1
    37    44    43    1
    38    45    46    2
    39    48    47    1
    40    79    78   ar
    41    27    26    2
    42    47    49    1
    43    80    78   ar
    44    26    25    1
    45    78    77    1
    46    15     9   am
    47    20    21    1
    48    28    25    1
    49    28    29    1
    50    22    21    2
    51    21    23   am
    52    73    74    1
    53    75    76    2
    54    75    74    1
    55    25    24    1
    56     9    10    2
    57     9     8    1
    58    74    77    1
    59    29    31   am
    60    29    30    2
    61     7     8    1
    62    41    40    1
    63     8    11    1
    64    96    94    1
    65    40    42    1
    66    40    39    2
    67    94    95    1
    68    94    91    1
    69    38    39    1
    70    38    37    1
    71    97    98    1
    72    97    92   am
    73    98    99    1
    74    35    34    2
    75    11    12    1
    76    36    37    1
    77    36    33    1
    78    91    92    1
    79    91    90    1
    80    99   100    2
    81    12    14    1
    82    12    13    1
    83    92    93    2
    84    34    33    1
    85    32    33    1
    86    88    87    2
    87    90    87   am
    88    87    86    1
    89     1     2    1
    90     6     5    1
    91     2     5    1
    92     2     3    1
    93     3     4    2
    94    86    85    1
    95    86    89    1
    96   108   106   am
    97   105   106    1
    98   105   102    1
    99   106   107    2
   100   101   102    1
   101   102   103    1
   102   104   103    2
