@<TRIPOS>MOLECULE
tmp/3gr3A01.pdb
 68 66 0 0 0
SMALL
GASTEIGER

@<TRIPOS>ATOM
      1  N         -1.8830   48.4480   32.7960 N.3    37  ARG37      -0.1231
      2  CA        -1.2340   47.4040   33.6220 C.3    37  ARG37       0.1694
      3  C          0.0890   47.8060   34.2200 C.2    37  ARG37       0.2592
      4  O          0.7420   47.0100   34.9060 O.2    37  ARG37      -0.2718
      5  CB        -1.1700   46.0870   32.8450 C.3    37  ARG37       0.0321
      6  CG        -2.4690   45.2860   32.8630 C.3    37  ARG37       0.0489
      7  CD        -2.6180   44.5600   34.1710 C.3    37  ARG37       0.2205
      8  NE        -4.0060   44.0590   34.3410 N.pl3  37  ARG37      -0.0865
      9  CZ        -4.5040   43.5950   35.4750 C.cat  37  ARG37       0.5346
     10  NH1       -3.6980   43.4030   36.5200 N.pl3  37  ARG37       0.1354
     11  NH2       -5.7920   43.2220   35.5350 N.pl3  37  ARG37       0.1354
     12  N          0.4570   49.0600   34.0670 N.am   38  ALA38      -0.1966
     13  CA         1.5300   49.6560   34.8890 C.3    38  ALA38       0.1713
     14  C          1.1360   49.4590   36.3840 C.2    38  ALA38       0.2458
     15  O         -0.0680   49.4730   36.7450 O.2    38  ALA38      -0.2730
     16  CB         1.7060   51.1600   34.5770 C.3    38  ALA38       0.0333
     17  N          2.1560   49.3320   37.2520 N.am   39  PRO39      -0.2716
     18  CA         1.8910   49.3840   38.6680 C.3    39  PRO39       0.1536
     19  C          1.6500   50.8240   39.1150 C.2    39  PRO39       0.2599
     20  O          1.9510   51.7800   38.4160 O.2    39  PRO39      -0.2715
     21  CB         3.1610   48.7850   39.2910 C.3    39  PRO39       0.0310
     22  CG         4.2540   49.2610   38.3340 C.3    39  PRO39       0.0237
     23  CD         3.5970   49.1910   36.9750 C.3    39  PRO39       0.0939
     24  N          1.0560   50.9800   40.2950 N.am   40  SER40      -0.1936
     25  CA         0.8430   52.2410   40.9320 C.3    40  SER40       0.2055
     26  C          0.6730   52.0000   42.4260 C.2    40  SER40       0.2644
     27  O          0.2580   50.9270   42.8790 O.2    40  SER40      -0.2714
     28  CB        -0.3870   52.9550   40.3730 C.3    40  SER40       0.2130
     29  OG        -1.6120   52.1710   40.5440 O.3    40  SER40      -0.2179
     30  N          1.0300   52.9930   43.2440 N.am   41  GLY41      -0.1939
     31  CA         0.8870   52.8380   44.7020 C.3    41  GLY41       0.2014
     32  C         -0.5260   52.4890   45.0620 C.2    41  GLY41       0.2640
     33  O         -1.4530   53.1390   44.6230 O.2    41  GLY41      -0.2714
     34  N         -0.6780   51.4450   45.8820 N.am   42  THR42      -0.1936
     35  CA        -1.9490   50.7960   46.2910 C.3    42  THR42       0.2028
     36  C         -2.9430   50.6790   45.1150 C.2    42  THR42       0.2642
     37  O         -4.1200   50.7860   45.3180 O.2    42  THR42      -0.2714
     38  CB        -2.5700   51.4440   47.5270 C.3    42  THR42       0.1808
     39  OG1       -3.0190   52.7640   47.2310 O.3    42  THR42      -0.2208
     40  CG2       -1.5760   51.4820   48.6710 C.3    42  THR42       0.0379
     41  N         -2.4200   50.4520   43.9170 N.am   43  ASN43      -0.1971
     42  CA        -3.2250   50.2700   42.7090 C.3    43  ASN43       0.1688
     43  C         -4.2120   51.4410   42.4890 C.2    43  ASN43       0.2292
     44  O         -5.2980   51.2450   41.9320 O.2    43  ASN43      -0.2864
     45  CB        -3.9970   48.9410   42.7560 C.3    43  ASN43       0.1181
     46  CG        -4.4330   48.4580   41.3500 C.2    43  ASN43       0.2629
     47  OD1       -3.7730   48.7460   40.3400 O.2    43  ASN43      -0.2716
     48  ND2       -5.5740   47.7270   41.2860 N.am   43  ASN43      -0.0877
     49  N          3.4630   60.8120   44.8910 N.3   139  GLY139     -0.1225
     50  CA         3.5240   59.4510   44.4440 C.3   139  GLY139      0.1811
     51  C          2.8880   59.2410   43.1110 C.2   139  GLY139      0.2280
     52  O          3.2670   58.3720   42.3010 O.2   139  GLY139     -0.2866
     53  N          5.1470   59.4410   40.1300 N.3   142  LEU142     -0.1231
     54  CA         5.8950   58.2290   39.8120 C.3   142  LEU142      0.1693
     55  C          5.0090   57.3020   38.9720 C.2   142  LEU142      0.2592
     56  O          5.4360   56.7280   37.9340 O.2   142  LEU142     -0.2718
     57  CB         6.3250   57.4880   41.0950 C.3   142  LEU142      0.0284
     58  CG         7.2420   58.1680   42.0510 C.3   142  LEU142      0.0019
     59  CD1        7.4550   57.2880   43.3350 C.3   142  LEU142      0.0001
     60  CD2        8.6170   58.4630   41.3760 C.3   142  LEU142      0.0001
     61  N          3.7740   57.1280   39.4550 N.am  143  ASP143     -0.1974
     62  CA         2.8080   56.2630   38.8200 C.3   143  ASP143      0.1709
     63  C          2.5880   56.6930   37.3460 C.2   143  ASP143      0.2293
     64  O          2.5040   55.8760   36.4080 O.2   143  ASP143     -0.2864
     65  CB         1.4510   56.2840   39.5310 C.3   143  ASP143      0.1436
     66  CG         1.4620   55.7890   40.9640 C.2   143  ASP143      0.3671
     67  OD1        2.4440   55.2930   41.4700 O.co2 143  ASP143     -0.2456
     68  OD2        0.4090   56.0090   41.6080 O.co2 143  ASP143     -0.2456
@<TRIPOS>BOND
     1     1     2    1
     2     5     6    1
     3     5     2    1
     4     6     7    1
     5     2     3    1
     6    12     3   am
     7    12    13    1
     8     7     8    1
     9     3     4    2
    10     8     9    2
    11    16    13    1
    12    13    14    1
    13     9    11    1
    14     9    10    1
    15    14    15    2
    16    14    17   am
    17    64    63    2
    18    23    17    1
    19    23    22    1
    20    17    18    1
    21    63    62    1
    22    56    55    2
    23    22    21    1
    24    20    19    2
    25    18    19    1
    26    18    21    1
    27    62    61    1
    28    62    65    1
    29    55    61   am
    30    55    54    1
    31    19    24   am
    32    65    66    1
    33    54    53    1
    34    54    57    1
    35    24    25    1
    36    47    46    2
    37    28    29    1
    38    28    25    1
    39    25    26    1
    40    66    67   ar
    41    66    68   ar
    42    57    58    1
    43    48    46   am
    44    46    45    1
    45    60    58    1
    46    44    43    2
    47    58    59    1
    48    52    51    2
    49    26    27    2
    50    26    30   am
    51    43    42    1
    52    42    45    1
    53    42    41    1
    54    51    50    1
    55    30    31    1
    56    41    36   am
    57    50    49    1
    58    33    32    2
    59    31    32    1
    60    32    34   am
    61    36    37    2
    62    36    35    1
    63    34    35    1
    64    35    38    1
    65    39    38    1
    66    38    40    1
