@<TRIPOS>MOLECULE
tmp/3gr3A00.pdb
 150 142 0 0 0
SMALL
GASTEIGER

@<TRIPOS>ATOM
      1  N         13.1110   52.5250   21.2110 N.3    12  ARG12      -0.1231
      2  CA        12.3440   53.7110   21.5640 C.3    12  ARG12       0.1694
      3  C         13.2160   54.9260   21.4970 C.2    12  ARG12       0.2592
      4  O         14.3050   54.9630   22.0390 O.2    12  ARG12      -0.2718
      5  CB        11.7980   53.5830   22.9770 C.3    12  ARG12       0.0321
      6  CG        10.7950   54.7290   23.3030 C.3    12  ARG12       0.0489
      7  CD        10.8210   55.1870   24.7470 C.3    12  ARG12       0.2205
      8  NE        12.1880   55.5210   25.1790 N.pl3  12  ARG12      -0.0865
      9  CZ        12.8330   56.6340   24.8520 C.cat  12  ARG12       0.5346
     10  NH1       12.2040   57.6100   24.2040 N.pl3  12  ARG12       0.1354
     11  NH2       14.0610   56.7990   25.2870 N.pl3  12  ARG12       0.1354
     12  N         12.7570   55.9580   20.8190 N.am   13  LYS13      -0.1966
     13  CA        13.3940   57.2750   20.8730 C.3    13  LYS13       0.1731
     14  C         12.3010   58.3160   20.7750 C.2    13  LYS13       0.2617
     15  O         11.1490   58.0510   20.4090 O.2    13  LYS13      -0.2715
     16  CB        14.4240   57.4580   19.7660 C.3    13  LYS13       0.0358
     17  CG        13.8740   57.5110   18.3960 C.3    13  LYS13       0.0298
     18  CD        14.9910   57.4850   17.2780 C.2    13  LYS13      -0.0067
     19  CE        16.1890   58.4090   17.4760 C.2    13  LYS13       0.1012
     20  NZ        17.1900   58.4750   16.3490 N.pl3  13  LYS13      -0.1270
     21  N         12.6500   59.5680   21.1130 N.am   14  SER14      -0.1950
     22  CA        11.7560   60.6790   20.9640 C.3    14  SER14       0.1924
     23  C         11.7180   61.0470   19.4760 C.2    14  SER14       0.2314
     24  O         12.7370   61.4760   18.8890 O.2    14  SER14      -0.2863
     25  CB        12.2250   61.8650   21.8070 C.3    14  SER14       0.2116
     26  OG        12.0690   61.5780   23.1900 O.3    14  SER14      -0.2180
     27  N         10.0440   63.2840   16.4580 N.3    16  ARG16      -0.1245
     28  CA         9.5460   64.6470   16.3020 C.3    16  ARG16       0.1563
     29  C          9.1190   64.9980   14.9130 C.2    16  ARG16       0.2260
     30  O          8.9530   66.1760   14.5700 O.2    16  ARG16      -0.2867
     31  CB        10.5730   65.6610   16.8640 C.3    16  ARG16       0.0307
     32  CG        10.8470   65.4540   18.3720 C.3    16  ARG16       0.0489
     33  CD        11.8840   66.4170   18.8990 C.3    16  ARG16       0.2205
     34  NE        12.1510   66.2630   20.3160 N.pl3  16  ARG16      -0.0865
     35  CZ        13.1390   65.5280   20.8170 C.cat  16  ARG16       0.5346
     36  NH1       13.9720   64.8030   20.0380 N.pl3  16  ARG16       0.1354
     37  NH2       13.2800   65.4180   22.1280 N.pl3  16  ARG16       0.1354
     38  N          8.7020   71.8100   36.6020 N.3    80  TYR80      -0.1227
     39  CA         9.0980   70.5310   35.9920 C.3    80  TYR80       0.1736
     40  C         10.6210   70.3480   36.0520 C.2    80  TYR80       0.2595
     41  O         11.1260   69.2990   36.4190 O.2    80  TYR80      -0.2718
     42  CB         8.6090   70.4540   34.5430 C.3    80  TYR80       0.0548
     43  CG         7.1310   70.2790   34.4490 C.ar   80  TYR80      -0.0200
     44  CD1        6.2640   71.3490   34.7070 C.ar   80  TYR80      -0.0009
     45  CD2        6.5840   69.0270   34.1460 C.ar   80  TYR80      -0.0009
     46  CE1        4.8910   71.1750   34.6410 C.ar   80  TYR80       0.0417
     47  CE2        5.2140   68.8400   34.0910 C.ar   80  TYR80       0.0417
     48  CZ         4.3810   69.9060   34.3390 C.ar   80  TYR80       0.1957
     49  OH         3.0290   69.8000   34.3100 O.3    80  TYR80      -0.2866
     50  N         11.3370   71.4060   35.6890 N.am   81  TYR81      -0.1976
     51  CA        12.7830   71.3910   35.5900 C.3    81  TYR81       0.1639
     52  C         13.3790   72.1330   36.7570 C.2    81  TYR81       0.2290
     53  O         12.7250   72.9470   37.4140 O.2    81  TYR81      -0.2864
     54  CB        13.2440   72.0470   34.2580 C.3    81  TYR81       0.0560
     55  CG        12.8270   71.2400   33.0600 C.ar   81  TYR81      -0.0198
     56  CD1       13.5940   70.1420   32.6270 C.ar   81  TYR81      -0.0009
     57  CD2       11.6640   71.5430   32.3710 C.ar   81  TYR81      -0.0009
     58  CE1       13.2040   69.3750   31.5230 C.ar   81  TYR81       0.0417
     59  CE2       11.2580   70.7650   31.2730 C.ar   81  TYR81       0.0417
     60  CZ        12.0450   69.6740   30.8560 C.ar   81  TYR81       0.1957
     61  OH        11.5670   68.9250   29.7690 O.3    81  TYR81      -0.2866
     62  N         21.5960   67.5550   24.0460 N.3    96  VAL96      -0.1245
     63  CA        20.4590   67.1120   23.2460 C.3    96  VAL96       0.1561
     64  C         19.8320   68.2770   22.4980 C.2    96  VAL96       0.2260
     65  O         19.3480   68.1020   21.3830 O.2    96  VAL96      -0.2867
     66  CB        19.3770   66.2950   24.0540 C.3    96  VAL96       0.0252
     67  CG1       19.9290   64.9710   24.5230 C.3    96  VAL96       0.0019
     68  CG2       18.7820   67.1230   25.1880 C.3    96  VAL96       0.0019
     69  N         19.6480   68.3560   18.4640 N.3   100  LEU100     -0.1245
     70  CA        18.4150   68.5900   17.7490 C.3   100  LEU100      0.1561
     71  C         18.5450   69.7770   16.7850 C.2   100  LEU100      0.2260
     72  O         18.1740   69.6540   15.6040 O.2   100  LEU100     -0.2867
     73  CB        17.2360   68.7900   18.7270 C.3   100  LEU100      0.0270
     74  CG        15.8920   69.1580   18.1310 C.3   100  LEU100      0.0019
     75  CD1       15.3640   68.0340   17.1700 C.3   100  LEU100      0.0001
     76  CD2       14.8620   69.4260   19.3200 C.3   100  LEU100      0.0001
     77  N          6.0270   71.6010   18.7740 N.3   120  ASN120     -0.1240
     78  CA         5.5940   70.7950   19.9280 C.3   120  ASN120      0.1653
     79  C          4.0650   70.7270   20.0390 C.2   120  ASN120      0.2266
     80  O          3.4880   69.6820   20.3260 O.2   120  ASN120     -0.2867
     81  CB         6.0460   71.3470   21.2970 C.3   120  ASN120      0.1155
     82  CG         7.4600   70.9580   21.6520 C.2   120  ASN120      0.2627
     83  OD1        7.7430   69.8570   22.1500 O.2   120  ASN120     -0.2716
     84  ND2        8.3890   71.8930   21.4320 N.am  120  ASN120     -0.0877
     85  N          4.0790   67.5450   17.1150 N.3   124  TYR124     -0.1241
     86  CA         5.0520   67.2520   16.0860 C.3   124  TYR124      0.1605
     87  C          4.4140   66.6640   14.8160 C.2   124  TYR124      0.2264
     88  O          5.0920   65.9840   14.0490 O.2   124  TYR124     -0.2867
     89  CB         6.2190   66.4110   16.6190 C.3   124  TYR124      0.0534
     90  CG         7.1400   67.1870   17.5670 C.ar  124  TYR124     -0.0201
     91  CD1        7.8420   68.2950   17.0960 C.ar  124  TYR124     -0.0009
     92  CD2        7.3650   66.7890   18.8700 C.ar  124  TYR124     -0.0009
     93  CE1        8.7120   68.9820   17.9240 C.ar  124  TYR124      0.0417
     94  CE2        8.2440   67.4650   19.6980 C.ar  124  TYR124      0.0417
     95  CZ         8.9360   68.5590   19.2040 C.ar  124  TYR124      0.1957
     96  OH         9.8330   69.2130   20.0380 O.3   124  TYR124     -0.2866
     97  N          6.6570   60.7940   21.3670 N.3   160  CYS160     -0.1221
     98  CA         7.4810   61.8050   22.0490 C.3   160  CYS160      0.1808
     99  C          6.7530   62.2720   23.2860 C.2   160  CYS160      0.2601
    100  O          5.6630   62.8150   23.1780 O.2   160  CYS160     -0.2717
    101  CB         7.7170   62.9970   21.1770 C.3   160  CYS160      0.0970
    102  SG         9.0430   64.1270   21.7670 S.3   160  CYS160     -0.0800
    103  N          7.3260   62.0350   24.4660 N.am  161  ALA161     -0.1965
    104  CA         6.7960   62.6550   25.6950 C.3   161  ALA161      0.1728
    105  C          6.9910   64.1270   25.6020 C.2   161  ALA161      0.2616
    106  O          8.0270   64.6080   25.1050 O.2   161  ALA161     -0.2715
    107  CB         7.5200   62.0640   26.9200 C.3   161  ALA161      0.0334
    108  N          5.9910   64.8970   26.0570 N.am  162  GLN162     -0.1963
    109  CA         6.0150   66.3440   25.9100 C.3   162  GLN162      0.1733
    110  C          5.4790   67.1070   27.1500 C.2   162  GLN162      0.2616
    111  O          4.2800   67.2660   27.2750 O.2   162  GLN162     -0.2715
    112  CB         5.2690   66.7990   24.6610 C.3   162  GLN162      0.0408
    113  CG         5.8330   66.2040   23.3300 C.3   162  GLN162      0.0908
    114  CD         5.0260   66.6780   22.1900 C.2   162  GLN162      0.2608
    115  OE1        4.0730   66.0300   21.7600 O.2   162  GLN162     -0.2717
    116  NE2        5.3190   67.8860   21.7240 N.am  162  GLN162     -0.0878
    117  N          6.3870   67.6660   27.9300 N.am  163  ALA163     -0.1963
    118  CA         5.9810   68.6020   28.9820 C.3   163  ALA163      0.1728
    119  C          5.5460   69.9300   28.4400 C.2   163  ALA163      0.2616
    120  O          4.9330   70.7100   29.1720 O.2   163  ALA163     -0.2715
    121  CB         7.1490   68.8480   29.9790 C.3   163  ALA163      0.0334
    122  N          5.8560   70.2530   27.1760 N.am  164  ALA164     -0.1977
    123  CA         5.5080   71.5510   26.5980 C.3   164  ALA164      0.1597
    124  C          4.0760   71.9480   26.8750 C.2   164  ALA164      0.2287
    125  O          3.7910   73.1140   27.1090 O.2   164  ALA164     -0.2864
    126  CB         5.7170   71.4380   25.0430 C.3   164  ALA164      0.0319
    127  N          1.0000   66.7690   31.3200 N.3   186  CYS186     -0.1235
    128  CA         1.8530   66.7710   30.1210 C.3   186  CYS186      0.1677
    129  C          1.1540   66.0270   29.0140 C.2   186  CYS186      0.2270
    130  O         -0.0080   65.6320   29.1490 O.2   186  CYS186     -0.2867
    131  CB         3.1910   66.1490   30.4180 C.3   186  CYS186      0.0956
    132  SG         2.9740   64.4720   30.9650 S.3   186  CYS186     -0.0801
    133  N         21.1580   60.0760   21.0630 N.3   202  THR202     -0.1218
    134  CA        21.2650   60.6300   22.3960 C.3   202  THR202      0.1862
    135  C         22.2210   59.7480   23.2250 C.2   202  THR202      0.2287
    136  O         22.2140   58.5230   23.0930 O.2   202  THR202     -0.2866
    137  CB        19.9170   60.7850   23.1070 C.3   202  THR202      0.1770
    138  OG1       19.2330   59.5280   23.1720 O.3   202  THR202     -0.2211
    139  CG2       19.0760   61.8310   22.3540 C.3   202  THR202      0.0375
    140  N         23.6770   58.3640   27.0280 N.3   204  ARG204     -0.1245
    141  CA        23.2930   58.1520   28.4080 C.3   204  ARG204      0.1563
    142  C         24.5740   57.9880   29.2310 C.2   204  ARG204      0.2260
    143  O         25.6000   57.4780   28.7510 O.2   204  ARG204     -0.2867
    144  CB        22.4850   56.8850   28.5710 C.3   204  ARG204      0.0307
    145  CG        21.1140   56.9160   27.9220 C.3   204  ARG204      0.0489
    146  CD        20.2090   58.0270   28.5420 C.3   204  ARG204      0.2205
    147  NE        18.8280   57.8770   28.1110 N.pl3 204  ARG204     -0.0865
    148  CZ        18.3680   58.2710   26.9210 C.cat 204  ARG204      0.5346
    149  NH1       19.1580   58.9260   26.0680 N.pl3 204  ARG204      0.1354
    150  NH2       17.1300   58.0330   26.5920 N.pl3 204  ARG204      0.1354
@<TRIPOS>BOND
     1    88    87    2
     2    30    29    2
     3    87    86    1
     4    29    28    1
     5    72    71    2
     6    86    89    1
     7    86    85    1
     8    28    27    1
     9    28    31    1
    10    20    19    1
    11    89    90    1
    12    71    70    1
    13    31    32    1
    14    91    90   ar
    15    91    93   ar
    16    75    74    1
    17    18    19    2
    18    18    17    1
    19    90    92   ar
    20    70    69    1
    21    70    73    1
    22    93    95   ar
    23    74    73    1
    24    74    76    1
    25    32    33    1
    26    17    16    1
    27    77    78    1
    28    92    94   ar
    29    24    23    2
    30    33    34    1
    31    95    94   ar
    32    95    96    1
    33    23    22    1
    34    16    13    1
    35    78    79    1
    36    78    81    1
    37    36    35    1
    38    79    80    2
    39    34    35    2
    40    15    14    2
    41    14    13    1
    42    14    21   am
    43    35    37    1
    44    12    13    1
    45    12     3   am
    46    22    21    1
    47    22    25    1
    48   133   134    1
    49   101   102    1
    50   101    98    1
    51     1     2    1
    52    81    82    1
    53    97    98    1
    54    65    64    2
    55    84    82   am
    56     3     2    1
    57     3     4    2
    58     2     5    1
    59    82    83    2
    60   116   114   am
    61   115   114    2
    62    25    26    1
    63    98    99    1
    64   114   113    1
    65   139   137    1
    66   134   137    1
    67   134   135    1
    68    64    63    1
    69     5     6    1
    70   136   135    2
    71   137   138    1
    72   100    99    2
    73    63    62    1
    74    63    66    1
    75    99   103   am
    76     6     7    1
    77   113   112    1
    78    66    67    1
    79    66    68    1
    80    10     9    1
    81   103   104    1
    82   112   109    1
    83     7     8    1
    84     9     8    2
    85     9    11    1
    86   126   123    1
    87   106   105    2
    88   105   104    1
    89   105   108   am
    90   104   107    1
    91   109   108    1
    92   109   110    1
    93   149   148    1
    94   150   148    1
    95   123   124    1
    96   123   122    1
    97   124   125    2
    98   148   147    2
    99   140   141    1
   100   110   111    2
   101   110   117   am
   102   122   119   am
   103   145   146    1
   104   145   144    1
   105   117   118    1
   106   147   146    1
   107   141   144    1
   108   141   142    1
   109   119   118    1
   110   119   120    2
   111   143   142    2
   112   118   121    1
   113   129   130    2
   114   129   128    1
   115    61    60    1
   116   128   131    1
   117   128   127    1
   118   131   132    1
   119    60    59   ar
   120    60    58   ar
   121    59    57   ar
   122    58    56   ar
   123    57    55   ar
   124    56    55   ar
   125    55    54    1
   126    47    45   ar
   127    47    48   ar
   128    45    43   ar
   129    54    51    1
   130    49    48    1
   131    48    46   ar
   132    43    42    1
   133    43    44   ar
   134    42    39    1
   135    46    44   ar
   136    51    50    1
   137    51    52    1
   138    50    40   am
   139    39    40    1
   140    39    38    1
   141    40    41    2
   142    52    53    2
