@<TRIPOS>MOLECULE
tmp/3gr4A03.pdb
 138 132 0 0 0
SMALL
GASTEIGER

@<TRIPOS>ATOM
      1  N        -14.3430    9.9000   -3.3200 N.3    38  THR38      -0.1203
      2  CA       -15.4320   10.8500   -3.3470 C.3    38  THR38       0.1994
      3  C        -16.0170   10.8500   -4.7660 C.2    38  THR38       0.2618
      4  O        -15.2910   11.0230   -5.7470 O.2    38  THR38      -0.2717
      5  CB       -14.9630   12.2540   -2.9580 C.3    38  THR38       0.1784
      6  OG1      -14.3170   12.2030   -1.6660 O.3    38  THR38      -0.2211
      7  CG2      -16.1020   13.2430   -2.9160 C.3    38  THR38       0.0376
      8  N        -17.3320   10.7020   -4.8590 N.am   39  ILE39      -0.1965
      9  CA       -17.9950   10.6220   -6.1740 C.3    39  ILE39       0.1727
     10  C        -18.6570   11.9460   -6.5150 C.2    39  ILE39       0.2617
     11  O        -19.2710   12.5700   -5.6730 O.2    39  ILE39      -0.2715
     12  CB       -19.0190    9.4850   -6.2010 C.3    39  ILE39       0.0290
     13  CG1      -18.3950    8.1740   -5.7250 C.3    39  ILE39       0.0022
     14  CG2      -19.5770    9.3230   -7.6020 C.3    39  ILE39       0.0023
     15  CD1      -17.1390    7.7180   -6.5020 C.3    39  ILE39       0.0001
     16  N        -18.5000   12.3820   -7.7620 N.am   40  GLY40      -0.1941
     17  CA       -19.0330   13.6660   -8.2180 C.3    40  GLY40       0.1998
     18  C        -19.0920   13.6220   -9.7350 C.2    40  GLY40       0.2480
     19  O        -19.1020   12.5670  -10.2940 O.2    40  GLY40      -0.2729
     20  N        -19.0980   14.7900  -10.3920 N.am   41  PRO41      -0.2726
     21  CA       -19.2850   14.8130  -11.8290 C.3    41  PRO41       0.1402
     22  C        -18.3430   13.9550  -12.6470 C.2    41  PRO41       0.2269
     23  O        -18.7440   13.4320  -13.6890 O.2    41  PRO41      -0.2865
     24  CB       -19.0630   16.2940  -12.1900 C.3    41  PRO41       0.0296
     25  CG       -19.2890   17.0340  -10.9630 C.3    41  PRO41       0.0237
     26  CD       -18.9810   16.1380   -9.8240 C.3    41  PRO41       0.0939
     27  N        -17.7830    7.8710   -1.2150 N.3    61  ARG61      -0.1245
     28  CA       -18.0780    8.9560   -0.3140 C.3    61  ARG61       0.1563
     29  C        -18.8810   10.0500   -1.0230 C.2    61  ARG61       0.2260
     30  O        -18.5090   10.5080   -2.1100 O.2    61  ARG61      -0.2867
     31  CB       -16.7620    9.5620    0.2250 C.3    61  ARG61       0.0307
     32  CG       -16.9360   10.8490    0.9940 C.3    61  ARG61       0.0489
     33  CD       -15.5820   11.4270    1.3770 C.3    61  ARG61       0.2205
     34  NE       -15.6990   12.7020    2.0520 N.pl3  61  ARG61      -0.0865
     35  CZ       -15.4220   13.9060    1.5480 C.cat  61  ARG61       0.5346
     36  NH1      -14.9920   14.0900    0.3060 N.pl3  61  ARG61       0.1354
     37  NH2      -15.5880   14.9670    2.2880 N.pl3  61  ARG61       0.1354
     38  N        -20.2530   13.8760   -0.4920 N.3    63  ASN63      -0.1240
     39  CA       -20.0000   15.0380    0.2930 C.3    63  ASN63       0.1653
     40  C        -21.2140   15.9610    0.2560 C.2    63  ASN63       0.2266
     41  O        -21.5030   16.6140   -0.7710 O.2    63  ASN63      -0.2867
     42  CB       -18.7740   15.7980   -0.2330 C.3    63  ASN63       0.1155
     43  CG       -18.3960   16.9660    0.6350 C.2    63  ASN63       0.2627
     44  OD1      -19.1330   17.3650    1.5250 O.2    63  ASN63      -0.2716
     45  ND2      -17.1880   17.5160    0.4020 N.am   63  ASN63      -0.0877
     46  N        -21.7000   18.8060    1.6290 N.3    65  SER65      -0.1202
     47  CA       -21.4390   20.2280    1.5210 C.3    65  SER65       0.2020
     48  C        -21.9070   20.7690    0.1560 C.2    65  SER65       0.2619
     49  O        -22.0500   21.9560   -0.0110 O.2    65  SER65      -0.2717
     50  CB       -19.9400   20.5090    1.6320 C.3    65  SER65       0.2103
     51  OG       -19.4870   20.2650    2.9410 O.3    65  SER65      -0.2182
     52  N        -22.0750   19.8750   -0.8160 N.am   66  HIS66      -0.1961
     53  CA       -22.5530   20.2430   -2.1820 C.3    66  HIS66       0.1787
     54  C        -23.6700   19.3260   -2.5850 C.2    66  HIS66       0.2620
     55  O        -23.7680   18.2280   -2.0780 O.2    66  HIS66      -0.2715
     56  CB       -21.4010   20.1110   -3.1770 C.3    66  HIS66       0.0785
     57  CG       -20.1550   20.7940   -2.7160 C.ar   66  HIS66       0.0821
     58  ND1      -19.0400   20.1030   -2.2920 N.ar   66  HIS66      -0.2267
     59  CD2      -19.8820   22.1060   -2.5380 C.ar   66  HIS66       0.1154
     60  CE1      -18.1180   20.9680   -1.9080 C.ar   66  HIS66       0.1986
     61  NE2      -18.6050   22.1900   -2.0490 N.ar   66  HIS66      -0.2212
     62  N        -24.5290   19.7750   -3.5090 N.am   67  GLY67      -0.1954
     63  CA       -25.5010   18.8650   -4.1260 C.3    67  GLY67       0.1869
     64  C        -26.8320   18.7580   -3.3690 C.2    67  GLY67       0.2309
     65  O        -26.8790   18.8470   -2.1540 O.2    67  GLY67      -0.2863
     66  N        -29.7580   14.7550   -6.3860 N.3    71  TYR71      -0.1227
     67  CA       -28.4480   14.5040   -7.0100 C.3    71  TYR71       0.1736
     68  C        -27.7650   13.3280   -6.3090 C.2    71  TYR71       0.2595
     69  O        -27.3270   12.3800   -6.9500 O.2    71  TYR71      -0.2718
     70  CB       -27.5970   15.7590   -6.9370 C.3    71  TYR71       0.0548
     71  CG       -26.2740   15.6680   -7.6680 C.ar   71  TYR71      -0.0200
     72  CD1      -26.1470   16.1340   -8.9800 C.ar   71  TYR71      -0.0009
     73  CD2      -25.1410   15.1780   -7.0400 C.ar   71  TYR71      -0.0009
     74  CE1      -24.9250   16.0660   -9.6540 C.ar   71  TYR71       0.0417
     75  CE2      -23.8980   15.1040   -7.7270 C.ar   71  TYR71       0.0417
     76  CZ       -23.8130   15.5510   -9.0090 C.ar   71  TYR71       0.1957
     77  OH       -22.6030   15.5010   -9.6830 O.3    71  TYR71      -0.2866
     78  N        -27.7210   13.3780   -4.9910 N.am   72  HIS72      -0.1975
     79  CA       -27.0520   12.3090   -4.2350 C.3    72  HIS72       0.1656
     80  C        -27.7740   10.9760   -4.3480 C.2    72  HIS72       0.2291
     81  O        -27.1540    9.8950   -4.4100 O.2    72  HIS72      -0.2864
     82  CB       -26.8780   12.7220   -2.7860 C.3    72  HIS72       0.0771
     83  CG       -25.8620   13.8050   -2.6140 C.ar   72  HIS72       0.0820
     84  ND1      -24.5550   13.6630   -3.0270 N.ar   72  HIS72      -0.2267
     85  CD2      -25.9620   15.0360   -2.0870 C.ar   72  HIS72       0.1154
     86  CE1      -23.9000   14.7750   -2.7600 C.ar   72  HIS72       0.1986
     87  NE2      -24.7300   15.6170   -2.1780 N.ar   72  HIS72      -0.2212
     88  N        -20.0730   24.4620    8.8790 N.3   106  GLU106     -0.1245
     89  CA       -19.2510   25.1580    7.9070 C.3   106  GLU106      0.1567
     90  C        -19.5960   26.6100    7.7980 C.2   106  GLU106      0.2260
     91  O        -20.7510   26.9840    7.9300 O.2   106  GLU106     -0.2867
     92  CB       -19.5160   24.5980    6.5020 C.3   106  GLU106      0.0388
     93  CG       -18.5970   23.5840    6.0720 C.3   106  GLU106      0.1160
     94  CD       -18.8430   23.0990    4.6730 C.2   106  GLU106      0.3649
     95  OE1      -18.0820   22.2370    4.2730 O.co2 106  GLU106     -0.2457
     96  OE2      -19.7890   23.5150    3.9790 O.co2 106  GLU106     -0.2457
     97  N        -19.3930   29.3960    4.6840 N.3   108  ARG108     -0.1245
     98  CA       -19.1700   29.5590    3.2440 C.3   108  ARG108      0.1563
     99  C        -19.5280   30.9340    2.7320 C.2   108  ARG108      0.2260
    100  O        -20.3870   31.6080    3.2770 O.2   108  ARG108     -0.2867
    101  CB       -19.9480   28.5030    2.4840 C.3   108  ARG108      0.0307
    102  CG       -19.3880   27.1340    2.7010 C.3   108  ARG108      0.0489
    103  CD       -19.4900   26.3030    1.4770 C.3   108  ARG108      0.2205
    104  NE       -18.9140   24.9980    1.7310 N.pl3 108  ARG108     -0.0865
    105  CZ       -17.8650   24.4810    1.1090 C.cat 108  ARG108      0.5346
    106  NH1      -17.4550   23.2580    1.4700 N.pl3 108  ARG108      0.1354
    107  NH2      -17.2360   25.1530    0.1330 N.pl3 108  ARG108      0.1354
    108  N         -7.3540   13.8600    2.3660 N.3   316  THR316     -0.1218
    109  CA        -7.2510   15.1960    1.8020 C.3   316  THR316      0.1862
    110  C         -5.8640   15.5320    1.1850 C.2   316  THR316      0.2287
    111  O         -4.8280   15.4760    1.8600 O.2   316  THR316     -0.2866
    112  CB        -7.7590   16.2780    2.7860 C.3   316  THR316      0.1770
    113  OG1       -9.1270   15.9750    3.1180 O.3   316  THR316     -0.2211
    114  CG2       -7.6990   17.6770    2.1530 C.3   316  THR316      0.0375
    115  N        -10.4850   12.9130   -2.8520 N.3   350  SER350     -0.1202
    116  CA       -11.5550   13.8850   -2.8290 C.3   350  SER350      0.2020
    117  C        -11.7240   14.4620   -4.2420 C.2   350  SER350      0.2619
    118  O        -12.2360   13.7740   -5.1520 O.2   350  SER350     -0.2717
    119  CB       -11.3050   14.9200   -1.7540 C.3   350  SER350      0.2103
    120  OG       -11.3130   14.3320   -0.4520 O.3   350  SER350     -0.2182
    121  N        -11.2080   15.6540   -4.4820 N.am  351  GLY351     -0.1956
    122  CA       -11.3180   16.2620   -5.8220 C.3   351  GLY351      0.1869
    123  C        -10.7310   15.3660   -6.9000 C.2   351  GLY351      0.2309
    124  O        -11.1970   15.3490   -8.0580 O.2   351  GLY351     -0.2863
    125  N        -13.6580   13.1860   -7.5890 N.3   354  ALA354     -0.1231
    126  CA       -14.9810   13.8270   -7.6600 C.3   354  ALA354      0.1694
    127  C        -15.0900   14.6840   -8.9120 C.2   354  ALA354      0.2591
    128  O        -16.1180   14.6740   -9.5740 O.2   354  ALA354     -0.2718
    129  CB       -15.2180   14.6360   -6.4900 C.3   354  ALA354      0.0304
    130  N        -14.0250   15.4130   -9.2360 N.am  355  LYS355     -0.1980
    131  CA       -14.0840   16.4310  -10.2970 C.3   355  LYS355      0.1596
    132  C        -12.9150   16.4310  -11.2590 C.2   355  LYS355      0.2287
    133  O        -12.9910   17.0700  -12.3200 O.2   355  LYS355     -0.2864
    134  CB       -14.2240   17.8240   -9.7010 C.3   355  LYS355      0.0298
    135  CG       -12.9970   18.2840   -8.9350 C.3   355  LYS355      0.0038
    136  CD       -13.0780   19.7340   -8.5540 C.3   355  LYS355      0.0206
    137  CE       -11.8580   20.1600   -7.7510 C.3   355  LYS355      0.1093
    138  NZ       -11.8200   21.6450   -7.5620 N.3   355  LYS355     -0.1314
@<TRIPOS>BOND
     1    23    22    2
     2    22    21    1
     3   133   132    2
     4    24    21    1
     5    24    25    1
     6    21    20    1
     7   132   131    1
     8    25    26    1
     9    20    26    1
    10    20    18   am
    11   131   134    1
    12   131   130    1
    13    19    18    2
    14    18    17    1
    15   134   135    1
    16    77    76    1
    17    74    76   ar
    18    74    72   ar
    19   128   127    2
    20   130   127   am
    21    76    75   ar
    22    72    71   ar
    23   135   136    1
    24   127   126    1
    25   136   137    1
    26    17    16    1
    27   124   123    2
    28    16    10   am
    29   137   138    1
    30    75    73   ar
    31    71    73   ar
    32    71    70    1
    33   126   125    1
    34   126   129    1
    35    14    12    1
    36    67    70    1
    37    67    66    1
    38    67    68    1
    39    69    68    2
    40   123   122    1
    41    10     9    1
    42    10    11    2
    43    15    13    1
    44    68    78   am
    45    12     9    1
    46    12    13    1
    47     9     8    1
    48   122   121    1
    49     4     3    2
    50   118   117    2
    51    78    79    1
    52     8     3   am
    53     3     2    1
    54   121   117   am
    55    81    80    2
    56    80    79    1
    57   117   116    1
    58    79    82    1
    59    63    62    1
    60    63    64    1
    61    62    54   am
    62    64    65    2
    63     2     1    1
    64     2     5    1
    65    56    57    1
    66    56    53    1
    67    84    86   ar
    68    84    83   ar
    69     5     7    1
    70     5     6    1
    71   115   116    1
    72   116   119    1
    73    82    83    1
    74    86    87   ar
    75    57    59   ar
    76    57    58   ar
    77    83    85   ar
    78    54    53    1
    79    54    55    2
    80    59    61   ar
    81    58    60   ar
    82    53    52    1
    83    87    85   ar
    84    30    29    2
    85    61    60   ar
    86   119   120    1
    87    27    28    1
    88    29    28    1
    89    52    48   am
    90    41    40    2
    91    38    39    1
    92    28    31    1
    93    42    39    1
    94    42    43    1
    95    49    48    2
    96   107   105    1
    97    48    47    1
    98    31    32    1
    99    40    39    1
   100    36    35    1
   101    45    43   am
   102    43    44    2
   103    32    33    1
   104   105   106    1
   105   105   104    2
   106   110   109    1
   107   110   111    2
   108    33    34    1
   109   103   104    1
   110   103   102    1
   111    47    46    1
   112    47    50    1
   113    35    34    2
   114    35    37    1
   115    50    51    1
   116   109   108    1
   117   109   112    1
   118   114   112    1
   119   101   102    1
   120   101    98    1
   121    99    98    1
   122    99   100    2
   123   112   113    1
   124    98    97    1
   125    96    94   ar
   126    95    94   ar
   127    94    93    1
   128    93    92    1
   129    92    89    1
   130    90    89    1
   131    90    91    2
   132    89    88    1
