@<TRIPOS>MOLECULE
tmp/3gr4B00.pdb
 124 117 0 0 0
SMALL
GASTEIGER

@<TRIPOS>ATOM
      1  N          7.5420    2.4800   20.1960 N.3    14  PHE14      -0.1227
      2  CA         7.3320    3.4540   19.1210 C.3    14  PHE14       0.1736
      3  C          5.8260    3.7920   18.9770 C.2    14  PHE14       0.2595
      4  O          5.4750    4.9430   18.8290 O.2    14  PHE14      -0.2718
      5  CB         7.9190    2.9880   17.7760 C.3    14  PHE14       0.0547
      6  CG         7.7460    4.0100   16.6660 C.ar   14  PHE14      -0.0202
      7  CD1        6.6870    3.9110   15.7800 C.ar   14  PHE14      -0.0042
      8  CD2        8.5850    5.1140   16.5650 C.ar   14  PHE14      -0.0042
      9  CE1        6.4970    4.8690   14.7810 C.ar   14  PHE14      -0.0003
     10  CE2        8.3890    6.0760   15.5660 C.ar   14  PHE14      -0.0003
     11  CZ         7.3530    5.9400   14.6800 C.ar   14  PHE14      -0.0000
     12  N          4.9590    2.7920   19.0430 N.am   15  LEU15      -0.1980
     13  CA         3.5000    3.0750   19.0550 C.3    15  LEU15       0.1596
     14  C          3.1120    4.0840   20.1380 C.2    15  LEU15       0.2287
     15  O          2.4340    5.0900   19.8390 O.2    15  LEU15      -0.2864
     16  CB         2.6970    1.7830   19.2010 C.3    15  LEU15       0.0297
     17  CG         1.1590    1.8750   19.1480 C.3    15  LEU15       0.0022
     18  CD1        0.6820    2.8670   18.0850 C.3    15  LEU15       0.0001
     19  CD2        0.5750    0.4820   18.8930 C.3    15  LEU15       0.0001
     20  N          4.3190    7.5790   19.1480 N.3    18  MET18      -0.1245
     21  CA         3.3620    8.1910   18.1910 C.3    18  MET18       0.1570
     22  C          2.1380    8.7190   18.9390 C.2    18  MET18       0.2261
     23  O          1.7340    9.8530   18.7310 O.2    18  MET18      -0.2867
     24  CB         2.8580    7.1970   17.1470 C.3    18  MET18       0.0387
     25  CG         3.8320    6.7070   16.1010 C.3    18  MET18       0.0595
     26  SD         2.9920    5.5000   14.9890 S.3    18  MET18      -0.1393
     27  CE         1.9060    6.6060   14.0700 C.3    18  MET18       0.0692
     28  N         18.6380    5.2820    4.9190 N.3   289  GLY289     -0.1225
     29  CA        19.0550    4.2860    5.8810 C.3   289  GLY289      0.1811
     30  C         20.5280    3.9750    5.7360 C.2   289  GLY289      0.2280
     31  O         21.2750    3.9950    6.7370 O.2   289  GLY289     -0.2866
     32  N         22.7520    6.9700    6.6760 N.3   292  ASN292     -0.1240
     33  CA        22.7830    7.0830    8.1510 C.3   292  ASN292      0.1653
     34  C         23.7470    6.0140    8.7220 C.2   292  ASN292      0.2266
     35  O         24.5220    6.2950    9.6270 O.2   292  ASN292     -0.2867
     36  CB        21.3960    6.8710    8.7980 C.3   292  ASN292      0.1155
     37  CG        20.3980    8.0100    8.5570 C.2   292  ASN292      0.2627
     38  OD1       19.2600    7.8910    9.0370 O.2   292  ASN292     -0.2716
     39  ND2       20.7760    9.0810    7.8280 N.am  292  ASN292     -0.0877
     40  N         12.0330   12.5820    9.5340 N.3   327  LEU327     -0.1231
     41  CA        11.9030   11.3780   10.3160 C.3   327  LEU327      0.1693
     42  C         12.6350   10.1670    9.7150 C.2   327  LEU327      0.2592
     43  O         13.1190    9.3290   10.4690 O.2   327  LEU327     -0.2718
     44  CB        10.4060   11.0710   10.5840 C.3   327  LEU327      0.0284
     45  CG         9.6530   12.1650   11.3770 C.3   327  LEU327      0.0019
     46  CD1        8.1240   11.9160   11.2760 C.3   327  LEU327      0.0001
     47  CD2       10.0710   12.2420   12.8680 C.3   327  LEU327      0.0001
     48  N         12.7110   10.0510    8.3930 N.am  328  ASP328     -0.1960
     49  CA        13.4660    8.9970    7.7080 C.3   328  ASP328      0.1840
     50  C         14.9520    9.0730    8.1210 C.2   328  ASP328      0.2622
     51  O         15.6090    8.0420    8.1950 O.2   328  ASP328     -0.2715
     52  CB        13.3920    9.1360    6.1810 C.3   328  ASP328      0.1450
     53  CG        12.0660    8.6320    5.5690 C.2   328  ASP328      0.3671
     54  OD1       11.3010    7.9460    6.2860 O.co2 328  ASP328     -0.2456
     55  OD2       11.8480    8.9270    4.3720 O.co2 328  ASP328     -0.2456
     56  N         15.4470   10.2900    8.3410 N.am  329  GLY329     -0.1954
     57  CA        16.8810   10.5150    8.6630 C.3   329  GLY329      0.1869
     58  C         17.6520   11.4040    7.7080 C.2   329  GLY329      0.2309
     59  O         18.8970   11.5020    7.7990 O.2   329  GLY329     -0.2863
     60  N         11.4340   12.9490   16.6680 N.3   363  ILE363     -0.1231
     61  CA        12.2580   11.7990   16.4210 C.3   363  ILE363      0.1692
     62  C         12.2630   10.9430   17.6940 C.2   363  ILE363      0.2592
     63  O         12.2390   11.4890   18.8040 O.2   363  ILE363     -0.2718
     64  CB        13.7080   12.2480   16.0540 C.3   363  ILE363      0.0266
     65  CG1       13.7760   12.6720   14.5770 C.3   363  ILE363      0.0019
     66  CG2       14.7080   11.1150   16.3030 C.3   363  ILE363      0.0020
     67  CD1       14.9680   13.5290   14.2340 C.3   363  ILE363      0.0001
     68  N         12.2750    9.6390   17.5290 N.am  364  TYR364     -0.1976
     69  CA        12.2740    8.7040   18.6880 C.3   364  TYR364      0.1639
     70  C         13.7440    8.3630   18.9760 C.2   364  TYR364      0.2290
     71  O         14.2140    7.2960   18.6000 O.2   364  TYR364     -0.2864
     72  CB        11.4710    7.4390   18.3480 C.3   364  TYR364      0.0560
     73  CG        11.2050    6.4980   19.5130 C.ar  364  TYR364     -0.0198
     74  CD1       10.9850    6.9800   20.7990 C.ar  364  TYR364     -0.0009
     75  CD2       11.1690    5.1390   19.3170 C.ar  364  TYR364     -0.0009
     76  CE1       10.7210    6.0740   21.8720 C.ar  364  TYR364      0.0417
     77  CE2       10.9130    4.2400   20.3870 C.ar  364  TYR364      0.0417
     78  CZ        10.7000    4.7370   21.6370 C.ar  364  TYR364      0.1957
     79  OH        10.4680    3.8410   22.6780 O.3   364  TYR364     -0.2866
     80  N         15.1370    4.7190   20.5610 N.3   367  GLN367     -0.1231
     81  CA        15.4760    3.6050   19.6720 C.3   367  GLN367      0.1698
     82  C         16.5410    3.9550   18.6280 C.2   367  GLN367      0.2592
     83  O         17.3670    3.1240   18.3000 O.2   367  GLN367     -0.2718
     84  CB        14.2200    3.0440   18.9580 C.3   367  GLN367      0.0381
     85  CG        14.4650    1.8520   18.0860 C.3   367  GLN367      0.0905
     86  CD        13.1690    1.2360   17.5570 C.2   367  GLN367      0.2608
     87  OE1       12.0980    1.4650   18.1070 O.2   367  GLN367     -0.2717
     88  NE2       13.2750    0.4710   16.5140 N.am  367  GLN367     -0.0878
     89  N         16.4860    5.1740   18.0980 N.am  368  LEU368     -0.1980
     90  CA        17.4110    5.5930   17.0560 C.3   368  LEU368      0.1596
     91  C         18.8700    5.4710   17.5690 C.2   368  LEU368      0.2287
     92  O         19.7030    4.8790   16.9050 O.2   368  LEU368     -0.2864
     93  CB        17.1210    7.0370   16.6310 C.3   368  LEU368      0.0297
     94  CG        18.0300    7.6240   15.5570 C.3   368  LEU368      0.0022
     95  CD1       18.1470    6.7560   14.3000 C.3   368  LEU368      0.0001
     96  CD2       17.5320    9.0260   15.2630 C.3   368  LEU368      0.0001
     97  N         20.0230    1.9050   18.1530 N.3   371  GLU371     -0.1231
     98  CA        20.3050    1.1520   16.9540 C.3   371  GLU371      0.1699
     99  C         21.6190    1.5980   16.2840 C.2   371  GLU371      0.2592
    100  O         22.4080    0.7680   15.8390 O.2   371  GLU371     -0.2718
    101  CB        19.1210    1.2110   15.9550 C.3   371  GLU371      0.0402
    102  CG        17.8530    0.4810   16.4430 C.3   371  GLU371      0.1161
    103  CD        16.8110    0.3240   15.3570 C.2   371  GLU371      0.3649
    104  OE1       16.9410    0.9820   14.3100 O.co2 371  GLU371     -0.2457
    105  OE2       15.8580   -0.4690   15.5510 O.co2 371  GLU371     -0.2457
    106  N         21.8340    2.9050   16.1930 N.am  372  LEU372     -0.1980
    107  CA        23.0780    3.4400   15.6070 C.3   372  LEU372      0.1596
    108  C         24.3210    2.8370   16.2850 C.2   372  LEU372      0.2287
    109  O         25.3010    2.4550   15.6030 O.2   372  LEU372     -0.2864
    110  CB        23.0930    4.9720   15.6720 C.3   372  LEU372      0.0297
    111  CG        22.1190    5.6250   14.6830 C.3   372  LEU372      0.0022
    112  CD1       21.8960    7.0880   14.9970 C.3   372  LEU372      0.0001
    113  CD2       22.5430    5.4230   13.2140 C.3   372  LEU372      0.0001
    114  N         23.2600   11.1870   15.9190 N.3   419  ARG419     -0.1245
    115  CA        21.9680   11.8290   15.9960 C.3   419  ARG419      0.1563
    116  C         21.5510   12.2850   17.3980 C.2   419  ARG419      0.2260
    117  O         20.4750   11.9250   17.8970 O.2   419  ARG419     -0.2867
    118  CB        20.8960   10.8970   15.3960 C.3   419  ARG419      0.0307
    119  CG        20.9930   10.7070   13.8460 C.3   419  ARG419      0.0489
    120  CD        20.5070   11.9880   13.1540 C.3   419  ARG419      0.2205
    121  NE        20.4580   11.8770   11.7060 N.pl3 419  ARG419     -0.0865
    122  CZ        21.4580   12.1460   10.8740 C.cat 419  ARG419      0.5346
    123  NH1       21.2670   12.0410    9.5680 N.pl3 419  ARG419      0.1354
    124  NH2       22.6530   12.5420   11.3320 N.pl3 419  ARG419      0.1354
@<TRIPOS>BOND
     1    55    53   ar
     2    28    29    1
     3    53    52    1
     4    53    54   ar
     5    30    29    1
     6    30    31    2
     7    52    49    1
     8    32    33    1
     9    58    59    2
    10    58    57    1
    11    49    50    1
    12    49    48    1
    13    39    37   am
    14    50    51    2
    15    50    56   am
    16    33    34    1
    17    33    36    1
    18    56    57    1
    19    48    42   am
    20    37    36    1
    21    37    38    2
    22    34    35    2
    23    40    41    1
    24   123   122    1
    25    42    41    1
    26    42    43    2
    27    41    44    1
    28    44    45    1
    29   122   124    1
    30   122   121    2
    31    46    45    1
    32    45    47    1
    33   121   120    1
    34   120   119    1
    35   113   111    1
    36   119   118    1
    37    27    26    1
    38    67    65    1
    39    95    94    1
    40   104   103   ar
    41    65    64    1
    42    11     9   ar
    43    11    10   ar
    44   111   112    1
    45   111   110    1
    46     9     7   ar
    47    26    25    1
    48    96    94    1
    49   103   105   ar
    50   103   102    1
    51   118   115    1
    52    94    93    1
    53    10     8   ar
    54   109   108    2
    55   107   110    1
    56   107   106    1
    57   107   108    1
    58     7     6   ar
    59   100    99    2
    60   114   115    1
    61   101   102    1
    62   101    98    1
    63   115   116    1
    64    64    66    1
    65    64    61    1
    66    25    24    1
    67   106    99   am
    68    99    98    1
    69    61    60    1
    70    61    62    1
    71    88    86   am
    72     8     6   ar
    73    93    90    1
    74     6     5    1
    75    92    91    2
    76    98    97    1
    77    90    91    1
    78    90    89    1
    79    24    21    1
    80   116   117    2
    81    68    62   am
    82    68    69    1
    83    86    85    1
    84    86    87    2
    85    62    63    2
    86     5     2    1
    87    18    17    1
    88    85    84    1
    89    89    82   am
    90    21    22    1
    91    21    20    1
    92    83    82    2
    93    72    69    1
    94    72    73    1
    95    71    70    2
    96    82    81    1
    97    69    70    1
    98    23    22    2
    99     4     3    2
   100    19    17    1
   101    84    81    1
   102     3    12   am
   103     3     2    1
   104    12    13    1
   105    13    16    1
   106    13    14    1
   107     2     1    1
   108    17    16    1
   109    75    73   ar
   110    75    77   ar
   111    73    74   ar
   112    81    80    1
   113    15    14    2
   114    77    78   ar
   115    74    76   ar
   116    78    76   ar
   117    78    79    1
