@<TRIPOS>MOLECULE
tmp/3gr8B01.pdb
 224 218 0 0 0
SMALL
GASTEIGER

@<TRIPOS>ATOM
      1  N         -7.5180  -25.4640  -27.3160 N.3    23  SER23      -0.1203
      2  CA        -8.8540  -24.9490  -27.0480 C.3    23  SER23       0.2005
      3  C         -9.4980  -25.6720  -25.8650 C.2    23  SER23       0.2461
      4  O         -9.4150  -26.8930  -25.7590 O.2    23  SER23      -0.2732
      5  CB        -9.7290  -25.0920  -28.2950 C.3    23  SER23       0.2103
      6  OG       -11.0080  -24.5250  -28.0910 O.3    23  SER23      -0.2182
      7  N        -10.1410  -24.9120  -24.9680 N.am   24  PRO24      -0.2717
      8  CA       -10.8180  -25.4790  -23.7980 C.3    24  PRO24       0.1535
      9  C        -11.8440  -26.5320  -24.2050 C.2    24  PRO24       0.2598
     10  O        -12.7370  -26.2410  -25.0000 O.2    24  PRO24      -0.2715
     11  CB       -11.5210  -24.2580  -23.1820 C.3    24  PRO24       0.0310
     12  CG       -11.5600  -23.2400  -24.2970 C.3    24  PRO24       0.0237
     13  CD       -10.2570  -23.4460  -24.9880 C.3    24  PRO24       0.0939
     14  N        -11.7110  -27.7400  -23.6650 N.am   25  MET25      -0.1964
     15  CA       -12.6210  -28.8320  -23.9970 C.3    25  MET25       0.1736
     16  C        -13.0130  -29.6270  -22.7550 C.2    25  MET25       0.2617
     17  O        -12.1570  -30.2060  -22.0850 O.2    25  MET25      -0.2715
     18  CB       -11.9840  -29.7680  -25.0290 C.3    25  MET25       0.0427
     19  CG       -11.7810  -29.1510  -26.4060 C.3    25  MET25       0.0599
     20  SD       -10.8360  -30.2200  -27.5150 S.3    25  MET25      -0.1393
     21  CE        -9.1910  -30.0480  -26.8230 C.3    25  MET25       0.0692
     22  N        -14.3070  -29.6540  -22.4540 N.am   26  CYS26      -0.1954
     23  CA       -14.8100  -30.4250  -21.3220 C.3    26  CYS26       0.1843
     24  C        -14.4570  -31.8980  -21.4540 C.2    26  CYS26       0.2625
     25  O        -14.5770  -32.4820  -22.5320 O.2    26  CYS26      -0.2714
     26  CB       -16.3250  -30.2690  -21.1910 C.3    26  CYS26       0.0997
     27  SG       -16.8420  -28.6620  -20.5770 S.3    26  CYS26      -0.0797
     28  N        -14.0290  -32.4960  -20.3470 N.am   27  MET27      -0.1963
     29  CA       -13.6560  -33.9050  -20.3300 C.3    27  MET27       0.1736
     30  C        -14.6800  -34.7480  -19.5800 C.2    27  MET27       0.2616
     31  O        -14.7000  -35.9720  -19.7110 O.2    27  MET27      -0.2715
     32  CB       -12.2730  -34.0860  -19.7050 C.3    27  MET27       0.0427
     33  CG       -11.1180  -33.6360  -20.5850 C.3    27  MET27       0.0599
     34  SD       -10.9490  -34.6210  -22.0870 S.3    27  MET27      -0.1393
     35  CE       -11.8480  -33.6190  -23.2680 C.3    27  MET27       0.0692
     36  N        -15.5250  -34.0900  -18.7930 N.am   28  TYR28      -0.1974
     37  CA       -16.5480  -34.7830  -18.0190 C.3    28  TYR28       0.1639
     38  C        -15.9280  -35.9380  -17.2490 C.2    28  TYR28       0.2290
     39  O        -16.4780  -37.0390  -17.2090 O.2    28  TYR28      -0.2864
     40  CB       -17.6570  -35.3000  -18.9370 C.3    28  TYR28       0.0560
     41  CG       -18.2390  -34.2340  -19.8340 C.ar   28  TYR28      -0.0198
     42  CD1      -19.1430  -33.3030  -19.3410 C.ar   28  TYR28      -0.0009
     43  CD2      -17.8790  -34.1540  -21.1740 C.ar   28  TYR28      -0.0009
     44  CE1      -19.6750  -32.3220  -20.1570 C.ar   28  TYR28       0.0417
     45  CE2      -18.4060  -33.1760  -21.9980 C.ar   28  TYR28       0.0417
     46  CZ       -19.3030  -32.2630  -21.4840 C.ar   28  TYR28       0.1957
     47  OH       -19.8300  -31.2870  -22.3000 O.3    28  TYR28      -0.2866
     48  N        -13.9940  -25.6990  -19.5200 N.3    60  ALA60      -0.1245
     49  CA       -14.9780  -24.9020  -18.7980 C.3    60  ALA60       0.1562
     50  C        -15.0760  -25.3270  -17.3370 C.2    60  ALA60       0.2260
     51  O        -15.4450  -26.4600  -17.0300 O.2    60  ALA60      -0.2867
     52  CB       -16.3370  -25.0080  -19.4740 C.3    60  ALA60       0.0290
     53  N        -21.8900  -27.3930  -16.3880 N.3    69  ILE69      -0.1245
     54  CA       -22.6340  -28.0190  -17.4700 C.3    69  ILE69       0.1561
     55  C        -23.1410  -29.3840  -17.0130 C.2    69  ILE69       0.2260
     56  O        -24.2900  -29.7470  -17.2590 O.2    69  ILE69      -0.2867
     57  CB       -21.7600  -28.1850  -18.7210 C.3    69  ILE69       0.0252
     58  CG1      -21.1650  -26.8350  -19.1290 C.3    69  ILE69       0.0019
     59  CG2      -22.5650  -28.7990  -19.8570 C.3    69  ILE69       0.0019
     60  CD1      -20.1710  -26.9190  -20.2670 C.3    69  ILE69       0.0001
     61  N        -10.7140  -21.7110  -18.2760 N.3   102  GLN102     -0.1245
     62  CA       -11.9280  -21.0880  -18.7750 C.3   102  GLN102      0.1566
     63  C        -13.0040  -21.0330  -17.6940 C.2   102  GLN102      0.2260
     64  O        -13.6880  -22.0230  -17.4410 O.2   102  GLN102     -0.2867
     65  CB       -12.4530  -21.8500  -19.9920 C.3   102  GLN102      0.0367
     66  CG       -13.5980  -21.1560  -20.7100 C.3   102  GLN102      0.0905
     67  CD       -14.2090  -22.0160  -21.7990 C.2   102  GLN102      0.2608
     68  OE1      -14.5550  -23.1750  -21.5690 O.2   102  GLN102     -0.2717
     69  NE2      -14.3520  -21.4490  -22.9930 N.am  102  GLN102     -0.0878
     70  N        -15.8550  -17.4970  -20.3420 N.3   164  HIS164     -0.1241
     71  CA       -16.6810  -18.2100  -21.3130 C.3   164  HIS164      0.1621
     72  C        -17.9900  -17.4700  -21.5700 C.2   164  HIS164      0.2264
     73  O        -18.9590  -17.6260  -20.8270 O.2   164  HIS164     -0.2867
     74  CB       -16.9830  -19.6310  -20.8280 C.3   164  HIS164      0.0745
     75  CG       -17.3690  -20.5750  -21.9260 C.ar  164  HIS164      0.0817
     76  ND1      -17.8770  -20.1450  -23.1340 N.ar  164  HIS164     -0.2268
     77  CD2      -17.3380  -21.9270  -21.9930 C.ar  164  HIS164      0.1154
     78  CE1      -18.1280  -21.1900  -23.9010 C.ar  164  HIS164      0.1986
     79  NE2      -17.8120  -22.2840  -23.2320 N.ar  164  HIS164     -0.2212
     80  N        -21.1180  -20.2690  -26.7540 N.3   167  HIS167     -0.1241
     81  CA       -21.7730  -21.5710  -26.7810 C.3   167  HIS167      0.1621
     82  C        -23.1290  -21.5710  -26.0680 C.2   167  HIS167      0.2264
     83  O        -23.5200  -22.5750  -25.4750 O.2   167  HIS167     -0.2867
     84  CB       -20.8550  -22.6260  -26.1590 C.3   167  HIS167      0.0745
     85  CG       -20.5340  -23.7630  -27.0780 C.ar  167  HIS167      0.0817
     86  ND1      -19.3810  -23.8040  -27.8320 N.ar  167  HIS167     -0.2268
     87  CD2      -21.2140  -24.8970  -27.3680 C.ar  167  HIS167      0.1154
     88  CE1      -19.3640  -24.9150  -28.5460 C.ar  167  HIS167      0.1986
     89  NE2      -20.4650  -25.5960  -28.2830 N.ar  167  HIS167     -0.2212
     90  N        -24.1410  -20.3020  -23.3340 N.3   169  TYR169     -0.1241
     91  CA       -24.1530  -20.3870  -21.8740 C.3   169  TYR169      0.1605
     92  C        -24.5640  -19.0610  -21.2310 C.2   169  TYR169      0.2264
     93  O        -24.8700  -18.0960  -21.9320 O.2   169  TYR169     -0.2867
     94  CB       -22.8020  -20.8760  -21.3440 C.3   169  TYR169      0.0534
     95  CG       -22.4780  -22.2900  -21.7740 C.ar  169  TYR169     -0.0201
     96  CD1      -23.3710  -23.3290  -21.5360 C.ar  169  TYR169     -0.0009
     97  CD2      -21.2860  -22.5870  -22.4210 C.ar  169  TYR169     -0.0009
     98  CE1      -23.0850  -24.6230  -21.9280 C.ar  169  TYR169      0.0417
     99  CE2      -20.9900  -23.8810  -22.8150 C.ar  169  TYR169      0.0417
    100  CZ       -21.8920  -24.8940  -22.5650 C.ar  169  TYR169      0.1957
    101  OH       -21.6020  -26.1800  -22.9570 O.3   169  TYR169     -0.2866
    102  N        -14.1230  -15.5320  -24.6190 N.3   215  ARG215     -0.1245
    103  CA       -14.5910  -16.3680  -25.7150 C.3   215  ARG215      0.1563
    104  C        -16.0260  -16.0040  -26.0670 C.2   215  ARG215      0.2260
    105  O        -16.9040  -16.0050  -25.2060 O.2   215  ARG215     -0.2867
    106  CB       -14.4950  -17.8420  -25.3280 C.3   215  ARG215      0.0307
    107  CG       -14.7000  -18.8190  -26.4720 C.3   215  ARG215      0.0489
    108  CD       -14.4220  -20.2290  -25.9890 C.3   215  ARG215      0.2205
    109  NE       -14.7140  -21.2450  -26.9930 N.pl3 215  ARG215     -0.0865
    110  CZ       -13.7870  -21.9380  -27.6470 C.cat 215  ARG215      0.5346
    111  NH1      -12.5010  -21.7230  -27.4080 N.pl3 215  ARG215      0.1354
    112  NH2      -14.1480  -22.8470  -28.5400 N.pl3 215  ARG215      0.1354
    113  N        -15.4110  -17.9700  -31.2250 N.3   249  SER249     -0.1217
    114  CA       -16.1660  -19.1390  -31.6640 C.3   249  SER249      0.1889
    115  C        -17.5270  -18.6820  -32.1910 C.2   249  SER249      0.2288
    116  O        -17.6920  -17.5150  -32.5520 O.2   249  SER249     -0.2866
    117  CB       -16.3390  -20.1320  -30.5130 C.3   249  SER249      0.2089
    118  OG       -16.8620  -21.3670  -30.9730 O.3   249  SER249     -0.2183
    119  N        -14.0710  -22.5000  -40.7140 N.3   264  TYR264     -0.1227
    120  CA       -15.3700  -21.8780  -40.9460 C.3   264  TYR264      0.1736
    121  C        -15.6350  -20.6890  -40.0190 C.2   264  TYR264      0.2595
    122  O        -16.5690  -19.9200  -40.2380 O.2   264  TYR264     -0.2718
    123  CB       -16.4970  -22.9130  -40.8340 C.3   264  TYR264      0.0548
    124  CG       -16.7010  -23.4750  -39.4430 C.ar  264  TYR264     -0.0200
    125  CD1      -15.8450  -24.4410  -38.9290 C.ar  264  TYR264     -0.0009
    126  CD2      -17.7590  -23.0490  -38.6500 C.ar  264  TYR264     -0.0009
    127  CE1      -16.0310  -24.9590  -37.6630 C.ar  264  TYR264      0.0417
    128  CE2      -17.9550  -23.5610  -37.3840 C.ar  264  TYR264      0.0417
    129  CZ       -17.0880  -24.5160  -36.8930 C.ar  264  TYR264      0.1957
    130  OH       -17.2800  -25.0280  -35.6290 O.3   264  TYR264     -0.2866
    131  N        -14.8060  -20.5370  -38.9920 N.am  265  GLN265     -0.1979
    132  CA       -14.9790  -19.4500  -38.0350 C.3   265  GLN265      0.1601
    133  C        -13.8320  -18.4430  -38.0850 C.2   265  GLN265      0.2287
    134  O        -13.7800  -17.5120  -37.2820 O.2   265  GLN265     -0.2864
    135  CB       -15.1360  -20.0040  -36.6170 C.3   265  GLN265      0.0394
    136  CG       -16.4500  -20.7350  -36.3860 C.3   265  GLN265      0.0908
    137  CD       -16.5170  -21.4140  -35.0290 C.2   265  GLN265      0.2608
    138  OE1      -17.5950  -21.5780  -34.4600 O.2   265  GLN265     -0.2717
    139  NE2      -15.3610  -21.8130  -34.5040 N.am  265  GLN265     -0.0878
    140  N        -10.5080  -20.3920  -34.0020 N.3   283  VAL283     -0.1231
    141  CA       -10.8250  -21.7750  -33.6770 C.3   283  VAL283      0.1692
    142  C        -11.8700  -22.3160  -34.6470 C.2   283  VAL283      0.2593
    143  O        -12.6920  -21.5640  -35.1660 O.2   283  VAL283     -0.2718
    144  CB       -11.3370  -21.9100  -32.2290 C.3   283  VAL283      0.0266
    145  CG1      -12.7180  -21.2920  -32.0910 C.3   283  VAL283      0.0020
    146  CG2      -11.3610  -23.3680  -31.8050 C.3   283  VAL283      0.0020
    147  N        -11.8320  -23.6200  -34.8970 N.am  284  GLY284     -0.1942
    148  CA       -12.8110  -24.2510  -35.7610 C.3   284  GLY284      0.2014
    149  C        -12.1980  -24.9730  -36.9440 C.2   284  GLY284      0.2639
    150  O        -11.9070  -24.3660  -37.9730 O.2   284  GLY284     -0.2714
    151  N        -12.0090  -26.2790  -36.7940 N.am  285  LEU285     -0.1963
    152  CA       -11.4570  -27.1150  -37.8560 C.3   285  LEU285      0.1728
    153  C        -10.1150  -26.6100  -38.3710 C.2   285  LEU285      0.2616
    154  O         -9.8870  -26.5410  -39.5800 O.2   285  LEU285     -0.2715
    155  CB       -12.4490  -27.2690  -39.0130 C.3   285  LEU285      0.0311
    156  CG       -13.6220  -28.2210  -38.7630 C.3   285  LEU285      0.0022
    157  CD1      -14.4100  -28.4320  -40.0400 C.3   285  LEU285      0.0001
    158  CD2      -13.1240  -29.5490  -38.2230 C.3   285  LEU285      0.0001
    159  N         -9.2350  -26.2480  -37.4430 N.am  286  ILE286     -0.1963
    160  CA        -7.8400  -25.9830  -37.7660 C.3   286  ILE286      0.1727
    161  C         -7.0640  -27.2550  -37.4540 C.2   286  ILE286      0.2616
    162  O         -6.9760  -27.6650  -36.2970 O.2   286  ILE286     -0.2715
    163  CB        -7.2790  -24.8200  -36.9340 C.3   286  ILE286      0.0290
    164  CG1       -8.1370  -23.5660  -37.1240 C.3   286  ILE286      0.0022
    165  CG2       -5.8320  -24.5460  -37.3140 C.3   286  ILE286      0.0023
    166  CD1       -7.8090  -22.4470  -36.1610 C.3   286  ILE286      0.0001
    167  N         -6.5100  -27.8880  -38.4820 N.am  287  THR287     -0.1951
    168  CA        -5.9470  -29.2230  -38.3140 C.3   287  THR287      0.1897
    169  C         -4.5220  -29.3860  -38.8400 C.2   287  THR287      0.2313
    170  O         -3.8670  -30.3870  -38.5530 O.2   287  THR287     -0.2863
    171  CB        -6.8420  -30.2830  -38.9820 C.3   287  THR287      0.1794
    172  OG1       -7.0100  -29.9600  -40.3670 O.3   287  THR287     -0.2208
    173  CG2       -8.2070  -30.3260  -38.3100 C.3   287  THR287      0.0378
    174  N         -6.2720  -21.7890  -32.1020 N.3   305  PHE305     -0.1227
    175  CA        -6.8480  -22.7230  -31.1420 C.3   305  PHE305      0.1736
    176  C         -7.1680  -24.0540  -31.8070 C.2   305  PHE305      0.2595
    177  O         -7.8700  -24.0990  -32.8170 O.2   305  PHE305     -0.2718
    178  CB        -8.1250  -22.1410  -30.5320 C.3   305  PHE305      0.0547
    179  CG        -7.8820  -21.0790  -29.4970 C.ar  305  PHE305     -0.0202
    180  CD1       -7.0990  -19.9710  -29.7860 C.ar  305  PHE305     -0.0042
    181  CD2       -8.4540  -21.1780  -28.2380 C.ar  305  PHE305     -0.0042
    182  CE1       -6.8830  -18.9890  -28.8350 C.ar  305  PHE305     -0.0003
    183  CE2       -8.2430  -20.2000  -27.2830 C.ar  305  PHE305     -0.0003
    184  CZ        -7.4570  -19.1030  -27.5820 C.ar  305  PHE305     -0.0000
    185  N         -6.6570  -25.1390  -31.2350 N.am  306  LEU306     -0.1966
    186  CA        -6.9400  -26.4760  -31.7430 C.3   306  LEU306      0.1728
    187  C         -7.7960  -27.2640  -30.7590 C.2   306  LEU306      0.2617
    188  O         -7.5110  -27.2980  -29.5620 O.2   306  LEU306     -0.2715
    189  CB        -5.6430  -27.2350  -32.0190 C.3   306  LEU306      0.0311
    190  CG        -4.6480  -26.5730  -32.9700 C.3   306  LEU306      0.0022
    191  CD1       -3.5790  -27.5680  -33.3730 C.3   306  LEU306      0.0001
    192  CD2       -5.3600  -26.0440  -34.1940 C.3   306  LEU306      0.0001
    193  N         -8.8450  -27.8990  -31.2710 N.am  307  GLY307     -0.1940
    194  CA        -9.7230  -28.7070  -30.4490 C.3   307  GLY307      0.2014
    195  C         -9.5380  -30.1930  -30.6880 C.2   307  GLY307      0.2639
    196  O         -8.6310  -30.8090  -30.1280 O.2   307  GLY307     -0.2714
    197  N        -10.3980  -30.7650  -31.5290 N.am  308  ARG308     -0.1963
    198  CA       -10.3990  -32.2040  -31.7900 C.3   308  ARG308      0.1729
    199  C         -9.0440  -32.7290  -32.2500 C.2   308  ARG308      0.2616
    200  O         -8.6680  -33.8580  -31.9350 O.2   308  ARG308     -0.2715
    201  CB       -11.4750  -32.5770  -32.8160 C.3   308  ARG308      0.0348
    202  CG       -12.8750  -32.7280  -32.2300 C.3   308  ARG308      0.0492
    203  CD       -13.7410  -31.5130  -32.5130 C.3   308  ARG308      0.2205
    204  NE       -14.2900  -31.5380  -33.8670 N.pl3 308  ARG308     -0.0865
    205  CZ       -14.8050  -30.4810  -34.4870 C.cat 308  ARG308      0.5346
    206  NH1      -14.8340  -29.3020  -33.8830 N.pl3 308  ARG308      0.1354
    207  NH2      -15.2860  -30.5990  -35.7170 N.pl3 308  ARG308      0.1354
    208  N         -8.3130  -31.9100  -32.9960 N.am  309  GLU309     -0.1977
    209  CA        -7.0130  -32.3150  -33.5110 C.3   309  GLU309      0.1602
    210  C         -6.0370  -32.6250  -32.3790 C.2   309  GLU309      0.2287
    211  O         -5.1810  -33.5010  -32.5040 O.2   309  GLU309     -0.2864
    212  CB        -6.4410  -31.2320  -34.4240 C.3   309  GLU309      0.0415
    213  CG        -5.3060  -31.7180  -35.2950 C.3   309  GLU309      0.1163
    214  CD        -5.6540  -32.9890  -36.0440 C.2   309  GLU309      0.3649
    215  OE1       -6.7350  -33.0400  -36.6730 O.co2 309  GLU309     -0.2457
    216  OE2       -4.8430  -33.9380  -36.0030 O.co2 309  GLU309     -0.2457
    217  N         -6.9220  -33.7390  -29.5740 N.3   311  LEU311     -0.1245
    218  CA        -7.4460  -34.9460  -28.9470 C.3   311  LEU311      0.1561
    219  C         -6.9500  -36.1760  -29.6980 C.2   311  LEU311      0.2260
    220  O         -6.7360  -37.2360  -29.1110 O.2   311  LEU311     -0.2867
    221  CB        -8.9760  -34.9240  -28.9530 C.3   311  LEU311      0.0270
    222  CG        -9.7000  -34.4470  -27.6930 C.3   311  LEU311      0.0019
    223  CD1       -8.8920  -33.3920  -26.9640 C.3   311  LEU311      0.0001
    224  CD2      -11.0810  -33.9180  -28.0470 C.3   311  LEU311      0.0001
@<TRIPOS>BOND
     1   120   123    1
     2   120   119    1
     3   120   121    1
     4   123   124    1
     5   172   171    1
     6   122   121    2
     7   157   156    1
     8   121   131   am
     9   154   153    2
    10   124   125   ar
    11   124   126   ar
    12   155   156    1
    13   155   152    1
    14   131   132    1
    15   171   168    1
    16   171   173    1
    17   125   127   ar
    18   169   170    2
    19   169   168    1
    20   156   158    1
    21   126   128   ar
    22   167   168    1
    23   167   161   am
    24   153   152    1
    25   153   159   am
    26   133   132    1
    27   133   134    2
    28   132   135    1
    29   150   149    2
    30   152   151    1
    31   160   161    1
    32   160   159    1
    33   160   163    1
    34   127   129   ar
    35   161   162    2
    36   128   129   ar
    37   165   163    1
    38   164   163    1
    39   164   166    1
    40   149   151   am
    41   149   148    1
    42   129   130    1
    43   215   214   ar
    44   135   136    1
    45   136   137    1
    46   214   216   ar
    47   214   213    1
    48   148   147    1
    49   207   205    1
    50   213   212    1
    51   143   142    2
    52   137   139   am
    53   137   138    2
    54   147   142   am
    55   142   141    1
    56   205   206    1
    57   205   204    2
    58   212   209    1
    59   192   190    1
    60   140   141    1
    61   204   203    1
    62   141   144    1
    63   209   208    1
    64   209   210    1
    65   191   190    1
    66   208   199   am
    67   190   189    1
    68   177   176    2
    69   201   202    1
    70   201   198    1
    71   116   115    2
    72   203   202    1
    73   211   210    2
    74   199   200    2
    75   199   198    1
    76   144   145    1
    77   144   146    1
    78   115   114    1
    79   174   175    1
    80   189   186    1
    81   176   185   am
    82   176   175    1
    83   198   197    1
    84   186   185    1
    85   186   187    1
    86   114   113    1
    87   114   117    1
    88   197   195   am
    89   193   187   am
    90   193   194    1
    91   175   178    1
    92   118   117    1
    93   187   188    2
    94   195   194    1
    95   195   196    2
    96   178   179    1
    97   180   179   ar
    98   180   182   ar
    99   219   220    2
   100   219   218    1
   101   217   218    1
   102   179   181   ar
   103   221   218    1
   104   221   222    1
   105   182   184   ar
   106    88    89   ar
   107    88    86   ar
   108   112   110    1
   109     5     6    1
   110     5     2    1
   111    89    87   ar
   112   181   183   ar
   113   224   222    1
   114    86    85   ar
   115   222   223    1
   116   110   111    1
   117   110   109    2
   118   184   183   ar
   119    20    21    1
   120    20    19    1
   121    87    85   ar
   122     1     2    1
   123    85    84    1
   124     2     3    1
   125   109   108    1
   126    81    80    1
   127    81    84    1
   128    81    82    1
   129   107   108    1
   130   107   106    1
   131    19    18    1
   132    82    83    2
   133   104   103    1
   134   104   105    2
   135     3     4    2
   136     3     7   am
   137   103   106    1
   138   103   102    1
   139    18    15    1
   140    10     9    2
   141    13     7    1
   142    13    12    1
   143     7     8    1
   144    12    11    1
   145     9     8    1
   146     9    14   am
   147    15    14    1
   148    15    16    1
   149    78    79   ar
   150    78    76   ar
   151     8    11    1
   152    90    91    1
   153    35    34    1
   154    79    77   ar
   155    76    75   ar
   156    69    67   am
   157   101   100    1
   158    99   100   ar
   159    99    97   ar
   160    16    22   am
   161    16    17    2
   162   100    98   ar
   163    25    24    2
   164    22    23    1
   165    97    95   ar
   166    47    46    1
   167    34    33    1
   168    45    46   ar
   169    45    43   ar
   170    77    75   ar
   171    93    92    2
   172    98    96   ar
   173    75    74    1
   174    91    94    1
   175    91    92    1
   176    67    68    2
   177    67    66    1
   178    95    96   ar
   179    95    94    1
   180    72    71    1
   181    72    73    2
   182    46    44   ar
   183    24    23    1
   184    24    28   am
   185    23    26    1
   186    71    74    1
   187    71    70    1
   188    26    27    1
   189    43    41   ar
   190    66    65    1
   191    33    32    1
   192    28    29    1
   193    29    32    1
   194    29    30    1
   195    60    58    1
   196    44    42   ar
   197    65    62    1
   198    59    57    1
   199    41    42   ar
   200    41    40    1
   201    31    30    2
   202    30    36   am
   203    48    49    1
   204    52    49    1
   205    58    57    1
   206    40    37    1
   207    49    50    1
   208    36    37    1
   209    62    61    1
   210    62    63    1
   211    57    54    1
   212    37    38    1
   213    63    64    2
   214    54    55    1
   215    54    53    1
   216    50    51    2
   217    56    55    2
   218    38    39    2
