@<TRIPOS>MOLECULE
tmp/3gr9C00.pdb
 92 86 0 0 0
SMALL
GASTEIGER

@<TRIPOS>ATOM
      1  N          3.0340    0.5340  -34.1690 N.3    57  SER57      -0.1217
      2  CA         4.1670   -0.1930  -34.6390 C.3    57  SER57       0.1889
      3  C          5.4580    0.4080  -34.1170 C.2    57  SER57       0.2288
      4  O          6.3170   -0.3590  -33.6360 O.2    57  SER57      -0.2866
      5  CB         4.1090   -0.3610  -36.1470 C.3    57  SER57       0.2089
      6  OG         2.8050   -0.8060  -36.4350 O.3    57  SER57      -0.2183
      7  N         -0.6840   -9.1380  -34.4670 N.3    88  TRP88      -0.1241
      8  CA        -0.4480   -8.2800  -35.6270 C.3    88  TRP88       0.1605
      9  C          1.0380   -8.4150  -35.9290 C.2    88  TRP88       0.2264
     10  O          1.8740   -8.5080  -35.0230 O.2    88  TRP88      -0.2867
     11  CB        -0.7330   -6.7940  -35.3280 C.3    88  TRP88       0.0550
     12  CG        -0.5810   -5.9830  -36.5920 C.ar   88  TRP88       0.0003
     13  CD1        0.4100   -5.0750  -36.8510 C.ar   88  TRP88       0.0946
     14  CD2       -1.3770   -6.0680  -37.8040 C.ar   88  TRP88       0.0152
     15  NE1        0.2580   -4.5630  -38.1080 N.ar   88  TRP88      -0.2442
     16  CE2       -0.8230   -5.1610  -38.7190 C.ar   88  TRP88       0.0810
     17  CE3       -2.5240   -6.7810  -38.1830 C.ar   88  TRP88       0.0012
     18  CZ2       -1.3600   -4.9520  -39.9930 C.ar   88  TRP88       0.0191
     19  CZ3       -3.0440   -6.5780  -39.4510 C.ar   88  TRP88       0.0001
     20  CH2       -2.4620   -5.6690  -40.3460 C.ar   88  TRP88       0.0015
     21  N         -4.5300   -3.7130  -28.8110 N.3   162  GLU162     -0.1245
     22  CA        -5.9030   -4.1920  -29.0290 C.3   162  GLU162      0.1567
     23  C         -6.8420   -4.0820  -27.8080 C.2   162  GLU162      0.2260
     24  O         -8.0810   -4.1290  -27.9390 O.2   162  GLU162     -0.2867
     25  CB        -5.8400   -5.6470  -29.4890 C.3   162  GLU162      0.0388
     26  CG        -6.0520   -5.8450  -30.9670 C.3   162  GLU162      0.1160
     27  CD        -5.8480   -7.2700  -31.4010 C.2   162  GLU162      0.3649
     28  OE1       -6.2350   -8.1620  -30.6260 O.co2 162  GLU162     -0.2457
     29  OE2       -5.4090   -7.4900  -32.5590 O.co2 162  GLU162     -0.2457
     30  N         -1.9690    1.6410  -29.4900 N.3   183  SER183     -0.1217
     31  CA        -2.0630    2.1730  -30.8470 C.3   183  SER183      0.1889
     32  C         -3.3070    3.0370  -30.8800 C.2   183  SER183      0.2288
     33  O         -4.2680    2.6450  -30.2290 O.2   183  SER183     -0.2866
     34  CB        -2.1970    0.9990  -31.8350 C.3   183  SER183      0.2089
     35  OG        -2.7720    1.3690  -33.0880 O.3   183  SER183     -0.2183
     36  N         -4.5010    4.1760  -33.9410 N.3   185  PHE185     -0.1241
     37  CA        -4.7060    4.1540  -35.3630 C.3   185  PHE185      0.1605
     38  C         -6.2120    4.1940  -35.5670 C.2   185  PHE185      0.2264
     39  O         -7.0020    3.9070  -34.6590 O.2   185  PHE185     -0.2867
     40  CB        -4.1150    2.8740  -35.9740 C.3   185  PHE185      0.0534
     41  CG        -4.4660    2.6770  -37.4300 C.ar  185  PHE185     -0.0203
     42  CD1       -4.0290    3.5800  -38.3960 C.ar  185  PHE185     -0.0042
     43  CD2       -5.2240    1.5890  -37.8340 C.ar  185  PHE185     -0.0042
     44  CE1       -4.3370    3.4050  -39.7310 C.ar  185  PHE185     -0.0003
     45  CE2       -5.5480    1.4290  -39.1590 C.ar  185  PHE185     -0.0003
     46  CZ        -5.1180    2.3390  -40.1050 C.ar  185  PHE185     -0.0000
     47  N         -8.9640    2.4680  -36.7990 N.3   187  ASN187     -0.1240
     48  CA        -9.9910    1.5160  -36.3550 C.3   187  ASN187      0.1653
     49  C         -9.8740    0.9540  -34.9480 C.2   187  ASN187      0.2266
     50  O        -10.3350   -0.1610  -34.6910 O.2   187  ASN187     -0.2867
     51  CB        -9.9460    0.3330  -37.3490 C.3   187  ASN187      0.1155
     52  CG        -8.5280   -0.3060  -37.4540 C.2   187  ASN187      0.2627
     53  OD1       -7.5220    0.1620  -36.8320 O.2   187  ASN187     -0.2716
     54  ND2       -8.4370   -1.3680  -38.2650 N.am  187  ASN187     -0.0877
     55  N         -3.1850    8.5980  -36.7840 N.3   193  GLU193     -0.1245
     56  CA        -2.1600    7.5890  -36.5120 C.3   193  GLU193      0.1567
     57  C         -1.5650    7.9820  -35.1900 C.2   193  GLU193      0.2260
     58  O         -1.5430    9.1730  -34.8090 O.2   193  GLU193     -0.2867
     59  CB        -1.0530    7.4850  -37.5880 C.3   193  GLU193      0.0388
     60  CG        -1.5400    6.8740  -38.9060 C.3   193  GLU193      0.1160
     61  CD        -0.7750    5.6650  -39.3730 C.2   193  GLU193      0.3649
     62  OE1       -0.2400    4.8990  -38.5380 O.co2 193  GLU193     -0.2457
     63  OE2       -0.7250    5.4770  -40.6080 O.co2 193  GLU193     -0.2457
     64  N        -12.7460   -5.4740  -28.1910 N.3   301  PHE301     -0.1241
     65  CA       -12.2800   -4.8700  -29.4140 C.3   301  PHE301      0.1605
     66  C        -13.2060   -5.3440  -30.5400 C.2   301  PHE301      0.2264
     67  O        -13.6230   -4.5460  -31.4080 O.2   301  PHE301     -0.2867
     68  CB       -10.8380   -5.3290  -29.6030 C.3   301  PHE301      0.0534
     69  CG       -10.2870   -5.0700  -30.9520 C.ar  301  PHE301     -0.0203
     70  CD1       -9.6150   -3.8910  -31.2190 C.ar  301  PHE301     -0.0042
     71  CD2      -10.4150   -6.0210  -31.9420 C.ar  301  PHE301     -0.0042
     72  CE1       -9.1040   -3.6420  -32.4730 C.ar  301  PHE301     -0.0003
     73  CE2       -9.9180   -5.7830  -33.1960 C.ar  301  PHE301     -0.0003
     74  CZ        -9.2580   -4.5850  -33.4670 C.ar  301  PHE301     -0.0000
     75  N        -13.7560  -10.6670  -40.8990 N.3   330  ARG330     -0.1245
     76  CA       -12.3670  -10.8010  -41.2850 C.3   330  ARG330      0.1563
     77  C        -11.8390  -11.9380  -40.3990 C.2   330  ARG330      0.2260
     78  O        -12.5700  -12.5180  -39.5640 O.2   330  ARG330     -0.2867
     79  CB       -11.6650   -9.5050  -40.8170 C.3   330  ARG330      0.0307
     80  CG       -12.1390   -9.0980  -39.3790 C.3   330  ARG330      0.0489
     81  CD       -11.1780   -8.0850  -38.7600 C.3   330  ARG330      0.2205
     82  NE        -9.7730   -8.4660  -38.9950 N.pl3 330  ARG330     -0.0865
     83  CZ        -8.7530   -7.6590  -38.7070 C.cat 330  ARG330      0.5346
     84  NH1       -8.9290   -6.4240  -38.2310 N.pl3 330  ARG330      0.1354
     85  NH2       -7.5290   -8.0820  -38.9220 N.pl3 330  ARG330      0.1354
     86  N         -7.5640  -11.2950  -36.0660 N.3   333  VAL333     -0.1245
     87  CA        -6.2650  -10.6040  -36.1840 C.3   333  VAL333      0.1561
     88  C         -5.7280  -11.1050  -37.5210 C.2   333  VAL333      0.2260
     89  O         -6.4140  -10.9960  -38.5400 O.2   333  VAL333     -0.2867
     90  CB        -5.2690  -10.9170  -35.0220 C.3   333  VAL333      0.0252
     91  CG1       -4.2880   -9.7330  -34.8100 C.3   333  VAL333      0.0019
     92  CG2       -6.0270  -11.1660  -33.7120 C.3   333  VAL333      0.0019
@<TRIPOS>BOND
     1    76    75    1
     2    76    79    1
     3    76    77    1
     4    79    80    1
     5    63    61   ar
     6    77    78    2
     7    20    18   ar
     8    20    19   ar
     9    46    44   ar
    10    46    45   ar
    11    18    16   ar
    12    44    42   ar
    13    19    17   ar
    14    80    81    1
    15    61    60    1
    16    61    62   ar
    17    45    43   ar
    18    82    81    1
    19    82    83    2
    20    85    83    1
    21    60    59    1
    22    16    15   ar
    23    16    14   ar
    24    83    84    1
    25    89    88    2
    26    42    41   ar
    27    54    52   am
    28    17    14   ar
    29    15    13   ar
    30    43    41   ar
    31    14    12   ar
    32    59    56    1
    33    88    87    1
    34    52    51    1
    35    52    53    2
    36    41    40    1
    37    51    48    1
    38    13    12   ar
    39    47    48    1
    40    55    56    1
    41    12    11    1
    42    56    57    1
    43     6     5    1
    44    48    49    1
    45    87    86    1
    46    87    90    1
    47     5     2    1
    48    40    37    1
    49     9     8    1
    50     9    10    2
    51     8    11    1
    52     8     7    1
    53    38    37    1
    54    38    39    2
    55    37    36    1
    56    57    58    2
    57    90    91    1
    58    90    92    1
    59    49    50    2
    60     2     1    1
    61     2     3    1
    62     3     4    2
    63    74    73   ar
    64    74    72   ar
    65    73    71   ar
    66    35    34    1
    67    29    27   ar
    68    72    70   ar
    69    71    69   ar
    70    34    31    1
    71    67    66    2
    72    27    26    1
    73    27    28   ar
    74    70    69   ar
    75    26    25    1
    76    69    68    1
    77    32    31    1
    78    32    33    2
    79    31    30    1
    80    66    65    1
    81    68    65    1
    82    25    22    1
    83    65    64    1
    84    22    21    1
    85    22    23    1
    86    24    23    2
