@<TRIPOS>MOLECULE
tmp/3grjB00.pdb
 108 100 0 0 0
SMALL
GASTEIGER

@<TRIPOS>ATOM
      1  N         16.9880    1.4810   29.6180 N.3    61  SER61      -0.1217
      2  CA        15.7270    2.1000   29.2360 C.3    61  SER61       0.1889
      3  C         14.7550    1.1420   28.5530 C.2    61  SER61       0.2288
      4  O         13.5730    1.4540   28.3930 O.2    61  SER61      -0.2866
      5  CB        15.9850    3.3120   28.3560 C.3    61  SER61       0.2089
      6  OG        16.7520    4.2880   29.0400 O.3    61  SER61      -0.2183
      7  N         15.7490   15.1250   30.8980 N.3   116  LEU116     -0.1231
      8  CA        16.2000   13.7600   30.6300 C.3   116  LEU116      0.1693
      9  C         16.4590   12.9510   31.9060 C.2   116  LEU116      0.2591
     10  O         16.0210   11.8080   32.0420 O.2   116  LEU116     -0.2718
     11  CB        17.4610   13.7800   29.7660 C.3   116  LEU116      0.0284
     12  CG        18.1600   12.4430   29.5010 C.3   116  LEU116      0.0019
     13  CD1       17.1850   11.3930   28.9650 C.3   116  LEU116      0.0001
     14  CD2       19.3150   12.6590   28.5380 C.3   116  LEU116      0.0001
     15  N         17.1960   13.5410   32.8360 N.am  117  GLN117     -0.1979
     16  CA        17.4770   12.8330   34.0690 C.3   117  GLN117      0.1601
     17  C         16.8840   13.6480   35.1770 C.2   117  GLN117      0.2287
     18  O         16.8060   14.8690   35.0640 O.2   117  GLN117     -0.2864
     19  CB        18.9890   12.7180   34.2950 C.3   117  GLN117      0.0394
     20  CG        19.7930   12.1120   33.1440 C.3   117  GLN117      0.0908
     21  CD        19.6220   10.6050   33.0380 C.2   117  GLN117      0.2608
     22  OE1       18.9900    9.9500   33.8980 O.2   117  GLN117     -0.2717
     23  NE2       20.1840   10.0380   31.9710 N.am  117  GLN117     -0.0878
     24  N         20.9400   13.9950   40.0680 N.3   120  ASP120     -0.1239
     25  CA        21.5230   13.0880   41.0790 C.3   120  ASP120      0.1674
     26  C         21.3160   13.5220   42.5380 C.2   120  ASP120      0.2266
     27  O         21.3300   12.6570   43.4490 O.2   120  ASP120     -0.2867
     28  CB        23.0310   12.9000   40.8350 C.3   120  ASP120      0.1410
     29  CG        23.3440   11.7940   39.8300 C.2   120  ASP120      0.3668
     30  OD1       22.4720   10.9150   39.5790 O.co2 120  ASP120     -0.2456
     31  OD2       24.4820   11.7970   39.2940 O.co2 120  ASP120     -0.2456
     32  N         12.2440   12.9700   25.1730 N.3   147  TYR147     -0.1241
     33  CA        12.5170   11.7180   25.9000 C.3   147  TYR147      0.1605
     34  C         13.0560   12.0260   27.2840 C.2   147  TYR147      0.2264
     35  O         13.9600   12.8320   27.4170 O.2   147  TYR147     -0.2867
     36  CB        13.5400   10.8910   25.1220 C.3   147  TYR147      0.0534
     37  CG        13.8410    9.5090   25.6760 C.ar  147  TYR147     -0.0201
     38  CD1       14.9470    9.2810   26.4960 C.ar  147  TYR147     -0.0009
     39  CD2       13.0320    8.4180   25.3480 C.ar  147  TYR147     -0.0009
     40  CE1       15.2300    8.0050   26.9900 C.ar  147  TYR147      0.0417
     41  CE2       13.3100    7.1430   25.8260 C.ar  147  TYR147      0.0417
     42  CZ        14.4060    6.9540   26.6400 C.ar  147  TYR147      0.1957
     43  OH        14.6450    5.7080   27.0930 O.3   147  TYR147     -0.2866
     44  N         13.5240   10.2310   31.4510 N.3   149  ASN149     -0.1240
     45  CA        13.3430    9.4040   32.6370 C.3   149  ASN149      0.1653
     46  C         12.4300   10.0540   33.6420 C.2   149  ASN149      0.2266
     47  O         11.6510    9.3720   34.3090 O.2   149  ASN149     -0.2867
     48  CB        14.6780    9.1450   33.3320 C.3   149  ASN149      0.1155
     49  CG        15.6150    8.2770   32.4980 C.2   149  ASN149      0.2627
     50  OD1       15.1900    7.4820   31.6560 O.2   149  ASN149     -0.2716
     51  ND2       16.9100    8.4190   32.7490 N.am  149  ASN149     -0.0877
     52  N         24.7210   -0.3580   37.7030 N.3   208  VAL208     -0.1231
     53  CA        23.9240    0.8690   37.7810 C.3   208  VAL208      0.1692
     54  C         23.7530    1.3110   39.2490 C.2   208  VAL208      0.2592
     55  O         23.4130    0.4990   40.1130 O.2   208  VAL208     -0.2718
     56  CB        22.5500    0.6930   37.0600 C.3   208  VAL208      0.0266
     57  CG1       21.6610   -0.3350   37.7780 C.3   208  VAL208      0.0020
     58  CG2       21.8360    2.0260   36.8940 C.3   208  VAL208      0.0020
     59  N         24.0410    2.5860   39.5120 N.am  209  SER209     -0.1952
     60  CA        23.8840    3.1720   40.8470 C.3   209  SER209      0.1924
     61  C         22.4180    3.4990   41.1060 C.2   209  SER209      0.2314
     62  O         21.6710    3.7620   40.1690 O.2   209  SER209     -0.2863
     63  CB        24.7380    4.4410   40.9950 C.3   209  SER209      0.2116
     64  OG        26.1280    4.1400   41.0070 O.3   209  SER209     -0.2180
     65  N         14.7210    2.8760   34.4150 N.3   218  TYR218     -0.1241
     66  CA        15.8710    2.1510   33.8610 C.3   218  TYR218      0.1605
     67  C         16.3800    0.9650   34.6910 C.2   218  TYR218      0.2264
     68  O         17.4930    0.4790   34.4690 O.2   218  TYR218     -0.2867
     69  CB        17.0280    3.1300   33.5920 C.3   218  TYR218      0.0534
     70  CG        17.4310    4.0040   34.7770 C.ar  218  TYR218     -0.0201
     71  CD1       18.3590    3.5570   35.7150 C.ar  218  TYR218     -0.0009
     72  CD2       16.9010    5.2980   34.9300 C.ar  218  TYR218     -0.0009
     73  CE1       18.7410    4.3700   36.7840 C.ar  218  TYR218      0.0417
     74  CE2       17.2760    6.1130   35.9920 C.ar  218  TYR218      0.0417
     75  CZ        18.1960    5.6440   36.9170 C.ar  218  TYR218      0.1957
     76  OH        18.5730    6.4420   37.9780 O.3   218  TYR218     -0.2866
     77  N         21.6470    9.3720   19.6240 N.3   286  ASN286     -0.1240
     78  CA        21.1560   10.2400   20.6860 C.3   286  ASN286      0.1653
     79  C         20.8560   11.6720   20.2630 C.2   286  ASN286      0.2266
     80  O         19.9140   12.2760   20.7780 O.2   286  ASN286     -0.2867
     81  CB        22.0850   10.1930   21.9040 C.3   286  ASN286      0.1155
     82  CG        21.8720    8.9380   22.7440 C.2   286  ASN286      0.2627
     83  OD1       20.7950    8.3260   22.7480 O.2   286  ASN286     -0.2716
     84  ND2       22.9010    8.5410   23.4650 N.am  286  ASN286     -0.0877
     85  N         17.1690   11.8840   21.6200 N.3   290  LEU290     -0.1245
     86  CA        17.0860   12.7010   22.8260 C.3   290  LEU290      0.1561
     87  C         16.7040   14.1610   22.5810 C.2   290  LEU290      0.2260
     88  O         16.5830   14.9420   23.5490 O.2   290  LEU290     -0.2867
     89  CB        18.4060   12.6550   23.5940 C.3   290  LEU290      0.0270
     90  CG        18.9720   11.3050   24.0510 C.3   290  LEU290      0.0019
     91  CD1       20.2650   11.5680   24.8520 C.3   290  LEU290      0.0001
     92  CD2       17.9560   10.5230   24.8660 C.3   290  LEU290      0.0001
     93  N         20.2050    1.7420   27.8100 N.3   315  ALA315     -0.1231
     94  CA        21.5800    1.7180   28.2750 C.3   315  ALA315      0.1694
     95  C         21.6170    2.0160   29.7620 C.2   315  ALA315      0.2593
     96  O         20.7190    2.6680   30.2820 O.2   315  ALA315     -0.2718
     97  CB        22.4140    2.7320   27.5080 C.3   315  ALA315      0.0304
     98  N         22.6280    1.4780   30.4360 N.am  316  THR316     -0.1939
     99  CA        23.0920    1.9960   31.7040 C.3   316  THR316      0.2028
    100  C         24.5370    2.3530   31.4110 C.2   316  THR316      0.2642
    101  O         24.9840    2.1930   30.2790 O.2   316  THR316     -0.2714
    102  CB        23.0080    0.9680   32.8600 C.3   316  THR316      0.1808
    103  OG1       23.7810   -0.2030   32.5530 O.3   316  THR316     -0.2208
    104  CG2       21.5740    0.5640   33.1330 C.3   316  THR316      0.0379
    105  N         25.2780    2.8390   32.4000 N.am  317  GLY317     -0.1954
    106  CA        26.6760    3.1850   32.1600 C.3   317  GLY317      0.1869
    107  C         27.5030    2.0470   31.5810 C.2   317  GLY317      0.2309
    108  O         28.4140    2.2870   30.7940 O.2   317  GLY317     -0.2863
@<TRIPOS>BOND
     1    77    78    1
     2    79    78    1
     3    79    80    2
     4    78    81    1
     5    85    86    1
     6    81    82    1
     7    87    86    1
     8    87    88    2
     9    82    83    2
    10    82    84   am
    11    86    89    1
    12    89    90    1
    13    90    91    1
    14    90    92    1
    15    36    37    1
    16    36    33    1
    17    32    33    1
    18    39    37   ar
    19    39    41   ar
    20    37    38   ar
    21    41    42   ar
    22    33    34    1
    23    38    40   ar
    24    42    40   ar
    25    42    43    1
    26    34    35    2
    27    97    94    1
    28    93    94    1
    29    94    95    1
    30     5     6    1
    31     5     2    1
    32     4     3    2
    33    14    12    1
    34     3     2    1
    35    13    12    1
    36     2     1    1
    37    12    11    1
    38    95    96    2
    39    95    98   am
    40    11     8    1
    41   101   100    2
    42    98    99    1
    43     8     7    1
    44     8     9    1
    45   108   107    2
    46   100    99    1
    47   100   105   am
    48    44    45    1
    49   107   106    1
    50    50    49    2
    51    99   102    1
    52     9    10    2
    53     9    15   am
    54    23    21   am
    55   106   105    1
    56    49    51   am
    57    49    48    1
    58   103   102    1
    59    45    48    1
    60    45    46    1
    61    15    16    1
    62   102   104    1
    63    21    20    1
    64    21    22    2
    65    20    19    1
    66    69    66    1
    67    69    70    1
    68    46    47    2
    69    66    65    1
    70    66    67    1
    71    16    19    1
    72    16    17    1
    73    68    67    2
    74    70    72   ar
    75    70    71   ar
    76    72    74   ar
    77    18    17    2
    78    71    73   ar
    79    74    75   ar
    80    73    75   ar
    81    58    56    1
    82    75    76    1
    83    56    57    1
    84    56    53    1
    85    52    53    1
    86    53    54    1
    87    54    59   am
    88    54    55    2
    89    31    29   ar
    90    59    60    1
    91    30    29   ar
    92    29    28    1
    93    24    25    1
    94    62    61    2
    95    28    25    1
    96    60    63    1
    97    60    61    1
    98    63    64    1
    99    25    26    1
   100    26    27    2
