@<TRIPOS>MOLECULE
tmp/3grjB02.pdb
 112 104 0 0 0
SMALL
GASTEIGER

@<TRIPOS>ATOM
      1  N          7.5890   16.2340   22.0560 N.3   145  ARG145     -0.1245
      2  CA         8.1380   15.0360   22.6640 C.3   145  ARG145      0.1563
      3  C          9.6110   15.2590   23.0050 C.2   145  ARG145      0.2260
      4  O         10.4330   15.5230   22.1130 O.2   145  ARG145     -0.2867
      5  CB         7.9950   13.8340   21.7280 C.3   145  ARG145      0.0307
      6  CG         8.5910   12.5550   22.2660 C.3   145  ARG145      0.0489
      7  CD         8.7930   11.5660   21.1330 C.3   145  ARG145      0.2205
      8  NE         9.1670   10.2270   21.5810 N.pl3 145  ARG145     -0.0865
      9  CZ        10.4200    9.7800   21.6560 C.cat 145  ARG145      0.5346
     10  NH1       11.4490   10.5820   21.3260 N.pl3 145  ARG145      0.1354
     11  NH2       10.6550    8.5280   22.0610 N.pl3 145  ARG145      0.1354
     12  N         12.2440   12.9700   25.1730 N.3   147  TYR147     -0.1241
     13  CA        12.5170   11.7180   25.9000 C.3   147  TYR147      0.1605
     14  C         13.0560   12.0260   27.2840 C.2   147  TYR147      0.2264
     15  O         13.9600   12.8320   27.4170 O.2   147  TYR147     -0.2867
     16  CB        13.5400   10.8910   25.1220 C.3   147  TYR147      0.0534
     17  CG        13.8410    9.5090   25.6760 C.ar  147  TYR147     -0.0201
     18  CD1       14.9470    9.2810   26.4960 C.ar  147  TYR147     -0.0009
     19  CD2       13.0320    8.4180   25.3480 C.ar  147  TYR147     -0.0009
     20  CE1       15.2300    8.0050   26.9900 C.ar  147  TYR147      0.0417
     21  CE2       13.3100    7.1430   25.8260 C.ar  147  TYR147      0.0417
     22  CZ        14.4060    6.9540   26.6400 C.ar  147  TYR147      0.1957
     23  OH        14.6450    5.7080   27.0930 O.3   147  TYR147     -0.2866
     24  N          7.7970    7.9170   13.2100 N.3   262  MET262     -0.1245
     25  CA         7.8530    7.2510   14.5130 C.3   262  MET262      0.1570
     26  C          6.5270    7.4220   15.2540 C.2   262  MET262      0.2261
     27  O          5.9350    8.5040   15.2180 O.2   262  MET262     -0.2867
     28  CB         8.9440    7.9370   15.3350 C.3   262  MET262      0.0387
     29  CG         9.6170    7.0920   16.3810 C.3   262  MET262      0.0595
     30  SD        10.2360    8.1350   17.7230 S.3   262  MET262     -0.1393
     31  CE         8.6970    8.3520   18.6530 C.3   262  MET262      0.0692
     32  N          8.2020    2.1120   21.1130 N.3   269  GLU269     -0.1245
     33  CA         8.0500    3.0160   19.9840 C.3   269  GLU269      0.1567
     34  C          7.8100    2.1310   18.7690 C.2   269  GLU269      0.2260
     35  O          8.1460    0.9290   18.7930 O.2   269  GLU269     -0.2867
     36  CB         9.3030    3.8890   19.8180 C.3   269  GLU269      0.0388
     37  CG         9.5090    4.9110   20.9430 C.3   269  GLU269      0.1160
     38  CD        10.9920    5.3150   21.1130 C.2   269  GLU269      0.3649
     39  OE1       11.7610    5.2000   20.1210 O.co2 269  GLU269     -0.2457
     40  OE2       11.3780    5.7430   22.2260 O.co2 269  GLU269     -0.2457
     41  N          7.1330    1.8700   14.1680 N.3   271  LEU271     -0.1245
     42  CA         7.0490    2.4060   12.8050 C.3   271  LEU271      0.1561
     43  C          6.2490    1.4350   11.9750 C.2   271  LEU271      0.2260
     44  O          6.2070    0.2540   12.3030 O.2   271  LEU271     -0.2867
     45  CB         8.4440    2.6020   12.1950 C.3   271  LEU271      0.0270
     46  CG         9.3650    3.6520   12.8440 C.3   271  LEU271      0.0019
     47  CD1       10.1040    3.0670   14.0450 C.3   271  LEU271      0.0001
     48  CD2       10.3380    4.2520   11.8530 C.3   271  LEU271      0.0001
     49  N         15.0840    4.1800   11.3250 N.3   280  ILE280     -0.1245
     50  CA        15.3410    3.6630   12.6650 C.3   280  ILE280      0.1561
     51  C         16.8190    3.7080   13.0630 C.2   280  ILE280      0.2260
     52  O         17.1160    3.9510   14.2290 O.2   280  ILE280     -0.2867
     53  CB        14.7960    2.2360   12.8880 C.3   280  ILE280      0.0252
     54  CG1       15.1760    1.3060   11.7390 C.3   280  ILE280      0.0019
     55  CG2       13.3280    2.2750   13.0530 C.3   280  ILE280      0.0019
     56  CD1       14.9870   -0.1590   12.0720 C.3   280  ILE280      0.0001
     57  N         17.6210    7.4480   13.4400 N.3   283  GLY283     -0.1210
     58  CA        16.7030    7.9550   14.4550 C.3   283  GLY283      0.1956
     59  C         17.1400    7.6180   15.8650 C.2   283  GLY283      0.2612
     60  O         16.7740    8.3040   16.8110 O.2   283  GLY283     -0.2717
     61  N         17.9490    6.5730   15.9870 N.am  284  SER284     -0.1952
     62  CA        18.3370    6.0330   17.2750 C.3   284  SER284      0.1924
     63  C         19.6060    6.6470   17.8410 C.2   284  SER284      0.2314
     64  O         19.9260    6.3940   18.9980 O.2   284  SER284     -0.2863
     65  CB        18.5430    4.5210   17.1610 C.3   284  SER284      0.2116
     66  OG        19.8240    4.2340   16.6550 O.3   284  SER284     -0.2180
     67  N         19.3720   12.5690   17.8680 N.3   288  ILE288     -0.1231
     68  CA        17.9880   12.5790   17.3790 C.3   288  ILE288      0.1692
     69  C         17.0340   12.1000   18.4750 C.2   288  ILE288      0.2591
     70  O         16.1140   12.8280   18.8640 O.2   288  ILE288     -0.2718
     71  CB        17.8050   11.7630   16.0660 C.3   288  ILE288      0.0266
     72  CG1       18.5620   12.4370   14.9130 C.3   288  ILE288      0.0019
     73  CG2       16.3280   11.6460   15.7050 C.3   288  ILE288      0.0020
     74  CD1       18.4280   11.6890   13.5790 C.3   288  ILE288      0.0001
     75  N         17.2820   10.8840   18.9730 N.am  289  ALA289     -0.1980
     76  CA        16.4550   10.2340   19.9720 C.3   289  ALA289      0.1597
     77  C         16.1920   11.0570   21.2530 C.2   289  ALA289      0.2287
     78  O         15.1200   10.9430   21.8860 O.2   289  ALA289     -0.2864
     79  CB        17.0630    8.8710   20.3040 C.3   289  ALA289      0.0319
     80  N          9.9480   -1.3530   18.8700 N.3   311  HIS311     -0.1226
     81  CA        11.3160   -1.4260   19.4140 C.3   311  HIS311      0.1752
     82  C         11.6200   -0.4770   20.5650 C.2   311  HIS311      0.2596
     83  O         10.8350    0.4330   20.8690 O.2   311  HIS311     -0.2718
     84  CB        12.3520   -1.2560   18.2830 C.3   311  HIS311      0.0759
     85  CG        12.4770    0.1470   17.7730 C.ar  311  HIS311      0.0818
     86  ND1       13.6390    0.6280   17.2040 N.ar  311  HIS311     -0.2268
     87  CD2       11.5960    1.1770   17.7530 C.ar  311  HIS311      0.1154
     88  CE1       13.4620    1.8860   16.8420 C.ar  311  HIS311      0.1986
     89  NE2       12.2340    2.2470   17.1720 N.ar  311  HIS311     -0.2212
     90  N         12.7670   -0.7160   21.1950 N.am  312  LYS312     -0.1966
     91  CA        13.2970    0.1310   22.2670 C.3   312  LYS312      0.1728
     92  C         14.7820   -0.1560   22.5360 C.2   312  LYS312      0.2616
     93  O         15.1780   -1.3050   22.7790 O.2   312  LYS312     -0.2715
     94  CB        12.5100   -0.0660   23.5640 C.3   312  LYS312      0.0311
     95  CG        12.8500    0.9350   24.6830 C.3   312  LYS312      0.0038
     96  CD        12.3160    2.3370   24.3870 C.3   312  LYS312      0.0206
     97  CE        12.8250    3.3600   25.3870 C.3   312  LYS312      0.1093
     98  NZ        14.2720    3.6560   25.2220 N.3   312  LYS312     -0.1314
     99  N         15.5810    0.9070   22.4820 N.am  313  THR313     -0.1951
    100  CA        16.9530    0.9090   22.9950 C.3   313  THR313      0.1897
    101  C         16.9860    1.1370   24.5150 C.2   313  THR313      0.2313
    102  O         16.0650    1.7120   25.1190 O.2   313  THR313     -0.2863
    103  CB        17.7610    2.0480   22.3620 C.3   313  THR313      0.1794
    104  OG1       17.0790    3.2920   22.5920 O.3   313  THR313     -0.2208
    105  CG2       17.9120    1.8260   20.8680 C.3   313  THR313      0.0378
    106  N         20.8090   -1.1130   16.2580 N.3   347  VAL347     -0.1245
    107  CA        19.6890   -1.1000   15.3470 C.3   347  VAL347      0.1561
    108  C         20.1110   -1.6590   13.9770 C.2   347  VAL347      0.2260
    109  O         19.3800   -2.4600   13.3850 O.2   347  VAL347     -0.2867
    110  CB        19.0400    0.3120   15.2640 C.3   347  VAL347      0.0252
    111  CG1       17.8150    0.3040   14.3340 C.3   347  VAL347      0.0019
    112  CG2       18.6350    0.7880   16.6630 C.3   347  VAL347      0.0019
@<TRIPOS>BOND
     1    49    50    1
     2    54    56    1
     3    54    53    1
     4    48    46    1
     5    43    44    2
     6    43    42    1
     7    45    42    1
     8    45    46    1
     9    50    53    1
    10    50    51    1
    11    42    41    1
    12    46    47    1
    13    53    55    1
    14    51    52    2
    15    24    25    1
    16   109   108    2
    17    57    58    1
    18    74    72    1
    19   108   107    1
    20   111   110    1
    21    58    59    1
    22    25    26    1
    23    25    28    1
    24    72    71    1
    25    27    26    2
    26   110   107    1
    27   110   112    1
    28    28    29    1
    29   107   106    1
    30    73    71    1
    31    59    61   am
    32    59    60    2
    33    61    62    1
    34    71    68    1
    35    29    30    1
    36    66    65    1
    37    88    89   ar
    38    88    86   ar
    39    65    62    1
    40    89    87   ar
    41    86    85   ar
    42    62    63    1
    43    68    67    1
    44    68    69    1
    45    30    31    1
    46    87    85   ar
    47    85    84    1
    48    63    64    2
    49    84    81    1
    50    69    70    2
    51    69    75   am
    52    34    35    2
    53    34    33    1
    54    80    81    1
    55    75    76    1
    56    81    82    1
    57    36    33    1
    58    36    37    1
    59    76    79    1
    60    76    77    1
    61    33    32    1
    62    39    38   ar
    63    82    83    2
    64    82    90   am
    65   105   103    1
    66    37    38    1
    67    38    40   ar
    68     7     8    1
    69     7     6    1
    70    90    91    1
    71    77    78    2
    72    10     9    1
    73     8     9    2
    74     9    11    1
    75     5     6    1
    76     5     2    1
    77     1     2    1
    78     4     3    2
    79    91    92    1
    80    91    94    1
    81   103   104    1
    82   103   100    1
    83    99    92   am
    84    99   100    1
    85    92    93    2
    86     2     3    1
    87   100   101    1
    88    94    95    1
    89    96    95    1
    90    96    97    1
    91   101   102    2
    92    16    17    1
    93    16    13    1
    94    12    13    1
    95    98    97    1
    96    19    17   ar
    97    19    21   ar
    98    17    18   ar
    99    21    22   ar
   100    13    14    1
   101    18    20   ar
   102    22    20   ar
   103    22    23    1
   104    14    15    2
