@<TRIPOS>MOLECULE
tmp/3grrA00.pdb
 193 188 0 0 0
SMALL
GASTEIGER

@<TRIPOS>ATOM
      1  N         25.8070   22.1320    8.2490 N.3     1  GLN1       -0.1231
      2  CA        24.9520   21.5180    9.3100 C.3     1  GLN1        0.1698
      3  C         24.5130   20.1080    8.9050 C.2     1  GLN1        0.2592
      4  O         23.9740   19.9090    7.8150 O.2     1  GLN1       -0.2718
      5  CB        23.7260   22.3960    9.5960 C.3     1  GLN1        0.0381
      6  CG        24.0240   23.8850    9.8210 C.3     1  GLN1        0.0905
      7  CD        24.7730   24.1800   11.1270 C.2     1  GLN1        0.2608
      8  OE1       24.6140   23.4830   12.1270 O.2     1  GLN1       -0.2717
      9  NE2       25.5850   25.2330   11.1140 N.am    1  GLN1       -0.0878
     10  N         24.7580   19.1390    9.7870 N.am    2  CYS2       -0.1956
     11  CA        24.4180   17.7410    9.5400 C.3     2  CYS2        0.1843
     12  C         23.0560   17.4290   10.1430 C.2     2  CYS2        0.2625
     13  O         22.9090   17.3240   11.3680 O.2     2  CYS2       -0.2714
     14  CB        25.4900   16.8090   10.1170 C.3     2  CYS2        0.0997
     15  SG        27.1270   17.0230    9.3650 S.3     2  CYS2       -0.0797
     16  N         22.0560   17.3030    9.2740 N.am    3  PHE3       -0.1960
     17  CA        20.6870   17.0750    9.7160 C.3     3  PHE3        0.1771
     18  C         20.4440   15.5960    9.9900 C.2     3  PHE3        0.2619
     19  O         20.9350   14.7250    9.2660 O.2     3  PHE3       -0.2715
     20  CB        19.6750   17.5930    8.6780 C.3     3  PHE3        0.0574
     21  CG        19.6720   19.0980    8.5040 C.ar    3  PHE3       -0.0200
     22  CD1       20.2410   19.9390    9.4580 C.ar    3  PHE3       -0.0042
     23  CD2       19.0680   19.6730    7.3870 C.ar    3  PHE3       -0.0042
     24  CE1       20.2280   21.3200    9.2960 C.ar    3  PHE3       -0.0003
     25  CE2       19.0450   21.0570    7.2160 C.ar    3  PHE3       -0.0003
     26  CZ        19.6310   21.8810    8.1730 C.ar    3  PHE3       -0.0000
     27  N         19.6720   15.3210   11.0320 N.am    4  LEU4       -0.1977
     28  CA        19.2950   13.9550   11.3760 C.3     4  LEU4        0.1596
     29  C         18.1720   13.4690   10.4490 C.2     4  LEU4        0.2287
     30  O         17.0690   14.0110   10.4600 O.2     4  LEU4       -0.2864
     31  CB        18.8770   13.9060   12.8500 C.3     4  LEU4        0.0297
     32  CG        18.4660   12.6200   13.5620 C.3     4  LEU4        0.0022
     33  CD1       19.5590   11.5830   13.5610 C.3     4  LEU4        0.0001
     34  CD2       18.0730   12.9910   14.9830 C.3     4  LEU4        0.0001
     35  N         13.6640   23.2640   21.8900 N.3    27  GLU27      -0.1231
     36  CA        14.5620   22.6550   20.9250 C.3    27  GLU27       0.1699
     37  C         15.5760   23.6870   20.4600 C.2    27  GLU27       0.2592
     38  O         15.2120   24.8310   20.1940 O.2    27  GLU27      -0.2718
     39  CB        13.7780   22.0930   19.7250 C.3    27  GLU27       0.0402
     40  CG        14.6950   21.4060   18.7040 C.3    27  GLU27       0.1161
     41  CD        13.9790   20.8510   17.4830 C.2    27  GLU27       0.3649
     42  OE1       12.8360   21.2690   17.2070 O.co2  27  GLU27      -0.2457
     43  OE2       14.5830   20.0000   16.7930 O.co2  27  GLU27      -0.2457
     44  N         16.8420   23.2850   20.3790 N.am   28  ILE28      -0.1966
     45  CA        17.8860   24.1420   19.7940 C.3    28  ILE28       0.1727
     46  C         18.1320   23.6650   18.3750 C.2    28  ILE28       0.2617
     47  O         18.5600   22.5250   18.1720 O.2    28  ILE28      -0.2715
     48  CB        19.2380   24.0730   20.5640 C.3    28  ILE28       0.0290
     49  CG1       19.0700   24.2910   22.0880 C.3    28  ILE28       0.0022
     50  CG2       20.2970   25.0000   19.8920 C.3    28  ILE28       0.0023
     51  CD1       18.4650   25.6040   22.5140 C.3    28  ILE28       0.0001
     52  N         17.8490   24.5260   17.4010 N.am   29  GLY29      -0.1940
     53  CA        18.0520   24.2030   15.9960 C.3    29  GLY29       0.2014
     54  C         16.8470   23.5290   15.3770 C.2    29  GLY29       0.2639
     55  O         16.2990   22.5840   15.9460 O.2    29  GLY29      -0.2714
     56  N         16.4460   24.0120   14.2020 N.am   30  LEU30      -0.1963
     57  CA        15.2700   23.5010   13.5050 C.3    30  LEU30       0.1728
     58  C         15.5740   22.3430   12.5390 C.2    30  LEU30       0.2617
     59  O         14.8450   21.3440   12.5150 O.2    30  LEU30      -0.2715
     60  CB        14.5610   24.6420   12.7510 C.3    30  LEU30       0.0311
     61  CG        13.3060   24.3590   11.9100 C.3    30  LEU30       0.0022
     62  CD1       12.1390   23.9110   12.7800 C.3    30  LEU30       0.0001
     63  CD2       12.8800   25.5960   11.1420 C.3    30  LEU30       0.0001
     64  N         16.6360   22.4880   11.7460 N.am   31  GLY31      -0.1940
     65  CA        16.8960   21.5860   10.6220 C.3    31  GLY31       0.2014
     66  C         15.7310   21.5220    9.6460 C.2    31  GLY31       0.2639
     67  O         15.1240   22.5460    9.3250 O.2    31  GLY31      -0.2714
     68  N         15.4210   20.3160    9.1800 N.am   32  LYS32      -0.1963
     69  CA        14.2370   20.0670    8.3540 C.3    32  LYS32       0.1728
     70  C         12.9550   19.9860    9.1870 C.2    32  LYS32       0.2617
     71  O         11.8550   19.9190    8.6370 O.2    32  LYS32      -0.2715
     72  CB        14.3970   18.7670    7.5590 C.3    32  LYS32       0.0311
     73  CG        15.6570   18.6780    6.7240 C.3    32  LYS32       0.0038
     74  CD        15.4820   19.3440    5.3830 C.3    32  LYS32       0.0206
     75  CE        16.6790   19.0780    4.4940 C.3    32  LYS32       0.1093
     76  NZ        16.4090   19.4560    3.0830 N.3    32  LYS32      -0.1314
     77  N         13.0990   19.9780   10.5090 N.am   33  GLY33      -0.1940
     78  CA        11.9460   19.9460   11.4090 C.3    33  GLY33       0.2014
     79  C         11.3940   18.5530   11.6570 C.2    33  GLY33       0.2639
     80  O         10.2440   18.4030   12.0720 O.2    33  GLY33      -0.2714
     81  N         12.2120   17.5350   11.3950 N.am   34  ILE34      -0.1963
     82  CA        11.7960   16.1400   11.5830 C.3    34  ILE34       0.1727
     83  C         11.6240   15.8150   13.0760 C.2    34  ILE34       0.2616
     84  O         10.5990   15.2530   13.4700 O.2    34  ILE34      -0.2715
     85  CB        12.7380   15.1540   10.8350 C.3    34  ILE34       0.0290
     86  CG1       12.5690   15.3400    9.3170 C.3    34  ILE34       0.0022
     87  CG2       12.4410   13.7040   11.2220 C.3    34  ILE34       0.0023
     88  CD1       13.6620   14.7120    8.4600 C.3    34  ILE34       0.0001
     89  N         12.6140   16.2030   13.8860 N.am   35  LEU35      -0.1977
     90  CA        12.5200   16.1550   15.3430 C.3    35  LEU35       0.1596
     91  C         11.4350   17.1050   15.8550 C.2    35  LEU35       0.2287
     92  O         10.6590   16.7380   16.7270 O.2    35  LEU35      -0.2864
     93  CB        13.8750   16.4810   15.9950 C.3    35  LEU35       0.0297
     94  CG        13.9740   16.5730   17.5290 C.3    35  LEU35       0.0022
     95  CD1       13.4150   15.3010   18.2320 C.3    35  LEU35       0.0001
     96  CD2       15.4210   16.8500   17.9580 C.3    35  LEU35       0.0001
     97  N         14.7170   27.4550   18.9320 N.3    49  ILE49      -0.1231
     98  CA        15.6960   28.5100   18.6890 C.3    49  ILE49       0.1692
     99  C         16.5300   28.1170   17.4730 C.2    49  ILE49       0.2592
    100  O         17.2220   27.0920   17.4950 O.2    49  ILE49      -0.2718
    101  CB        16.6200   28.7820   19.9120 C.3    49  ILE49       0.0266
    102  CG1       15.7950   29.0660   21.1740 C.3    49  ILE49       0.0019
    103  CG2       17.5620   29.9650   19.6220 C.3    49  ILE49       0.0020
    104  CD1       16.6320   29.3240   22.4150 C.3    49  ILE49       0.0001
    105  N         16.4500   28.9410   16.4280 N.am   50  GLU50      -0.1966
    106  CA        17.1490   28.6940   15.1630 C.3    50  GLU50       0.1733
    107  C         17.8370   29.9660   14.6790 C.2    50  GLU50       0.2616
    108  O         17.2060   31.0220   14.6010 O.2    50  GLU50      -0.2715
    109  CB        16.1700   28.1730   14.1000 C.3    50  GLU50       0.0429
    110  CG        16.7610   27.9920   12.6930 C.3    50  GLU50       0.1163
    111  CD        17.9910   27.0950   12.6720 C.2    50  GLU50       0.3649
    112  OE1       17.9170   25.9570   13.1790 O.co2  50  GLU50      -0.2457
    113  OE2       19.0380   27.5280   12.1440 O.co2  50  GLU50      -0.2457
    114  N         19.1290   29.8470   14.3640 N.am   51  ILE51      -0.1963
    115  CA        19.9570   30.9840   13.9400 C.3    51  ILE51       0.1727
    116  C         19.8500   31.3190   12.4440 C.2    51  ILE51       0.2616
    117  O         20.1300   32.4570   12.0370 O.2    51  ILE51      -0.2715
    118  CB        21.4490   30.7630   14.3350 C.3    51  ILE51       0.0290
    119  CG1       22.1880   32.0990   14.4610 C.3    51  ILE51       0.0022
    120  CG2       22.1510   29.8050   13.3570 C.3    51  ILE51       0.0023
    121  CD1       23.6300   31.9720   14.9350 C.3    51  ILE51       0.0001
    122  N         19.4280   30.3450   11.6370 N.am   52  ASP52      -0.1971
    123  CA        19.4650   30.4750   10.1730 C.3    52  ASP52       0.1709
    124  C         18.0820   30.7500    9.5790 C.2    52  ASP52       0.2293
    125  O         17.2710   29.8420    9.4200 O.2    52  ASP52      -0.2864
    126  CB        20.0930   29.2090    9.5680 C.3    52  ASP52       0.1436
    127  CG        20.2710   29.2750    8.0470 C.2    52  ASP52       0.3671
    128  OD1       19.9040   30.2770    7.3760 O.co2  52  ASP52      -0.2456
    129  OD2       20.7970   28.2770    7.5180 O.co2  52  ASP52      -0.2456
    130  N         15.9090   28.8730    6.7150 N.3    55  LEU55      -0.1245
    131  CA        15.1190   27.6920    7.0220 C.3    55  LEU55       0.1561
    132  C         13.6490   28.0140    7.3020 C.2    55  LEU55       0.2260
    133  O         12.8760   27.1230    7.6400 O.2    55  LEU55      -0.2867
    134  CB        15.7330   26.9320    8.2040 C.3    55  LEU55       0.0270
    135  CG        17.1060   26.2690    8.0610 C.3    55  LEU55       0.0019
    136  CD1       17.4810   25.6660    9.3840 C.3    55  LEU55       0.0001
    137  CD2       17.1220   25.1910    6.9840 C.3    55  LEU55       0.0001
    138  N         17.3620   33.3110   16.2470 N.3    74  GLY74      -0.1210
    139  CA        18.5290   33.8710   16.9120 C.3    74  GLY74       0.1956
    140  C         19.5190   32.8060   17.3250 C.2    74  GLY74       0.2612
    141  O         19.3440   31.6270   17.0240 O.2    74  GLY74      -0.2717
    142  N         20.5590   33.2480   18.0250 N.am   75  ASP75      -0.1959
    143  CA        21.6710   32.4160   18.4490 C.3    75  ASP75       0.1840
    144  C         21.3610   31.9400   19.8590 C.2    75  ASP75       0.2622
    145  O         21.1880   32.7630   20.7580 O.2    75  ASP75      -0.2715
    146  CB        22.9530   33.2600   18.4200 C.3    75  ASP75       0.1450
    147  CG        24.1930   32.4970   18.8650 C.2    75  ASP75       0.3671
    148  OD1       24.0880   31.3490   19.3530 O.co2  75  ASP75      -0.2456
    149  OD2       25.2940   33.0690   18.7200 O.co2  75  ASP75      -0.2456
    150  N         21.2810   30.6230   20.0460 N.am   76  ALA76      -0.1963
    151  CA        20.8850   30.0450   21.3390 C.3    76  ALA76       0.1728
    152  C         21.8470   30.4000   22.4830 C.2    76  ALA76       0.2616
    153  O         21.4590   30.3790   23.6480 O.2    76  ALA76      -0.2715
    154  CB        20.6890   28.5230   21.2280 C.3    76  ALA76       0.0334
    155  N         23.0830   30.7590   22.1440 N.am   77  LEU77      -0.1977
    156  CA        24.0630   31.1980   23.1380 C.3    77  LEU77       0.1596
    157  C         23.8030   32.6340   23.6020 C.2    77  LEU77       0.2287
    158  O         24.3510   33.0680   24.6100 O.2    77  LEU77      -0.2864
    159  CB        25.4850   31.1140   22.5740 C.3    77  LEU77       0.0297
    160  CG        26.0880   29.7360   22.2990 C.3    77  LEU77       0.0022
    161  CD1       27.4770   29.8960   21.7210 C.3    77  LEU77       0.0001
    162  CD2       26.1170   28.8740   23.5610 C.3    77  LEU77       0.0001
    163  N         19.0800   18.0390   18.5980 N.3    92  ASN92      -0.1225
    164  CA        20.2690   17.6360   17.8780 C.3    92  ASN92       0.1785
    165  C         21.1690   18.8750   17.8080 C.2    92  ASN92       0.2597
    166  O         21.0600   19.6930   16.8880 O.2    92  ASN92      -0.2718
    167  CB        19.8940   17.1280   16.4760 C.3    92  ASN92       0.1169
    168  CG        21.1140   16.8580   15.5910 C.2    92  ASN92       0.2627
    169  OD1       22.2170   16.6600   16.0860 O.2    92  ASN92      -0.2716
    170  ND2       20.9110   16.8570   14.2720 N.am   92  ASN92      -0.0877
    171  N         22.0550   19.0010   18.7960 N.am   93  LEU93      -0.1966
    172  CA        22.8430   20.2280   18.9980 C.3    93  LEU93       0.1713
    173  C         23.8600   20.4830   17.8910 C.2    93  LEU93       0.2458
    174  O         24.4590   19.5500   17.3810 O.2    93  LEU93      -0.2730
    175  CB        23.5630   20.1670   20.3490 C.3    93  LEU93       0.0310
    176  CG        22.7320   20.1200   21.6220 C.3    93  LEU93       0.0022
    177  CD1       23.6390   19.8450   22.8070 C.3    93  LEU93       0.0001
    178  CD2       21.9680   21.4310   21.8140 C.3    93  LEU93       0.0001
    179  N         24.0570   21.7590   17.5140 N.am   94  PRO94      -0.2727
    180  CA        25.2390   22.1290   16.7310 C.3    94  PRO94       0.1402
    181  C         26.4720   21.8520   17.5860 C.2    94  PRO94       0.2269
    182  O         26.6110   22.4370   18.6560 O.2    94  PRO94      -0.2865
    183  CB        25.0740   23.6390   16.5100 C.3    94  PRO94       0.0296
    184  CG        23.6730   23.9550   16.8830 C.3    94  PRO94       0.0237
    185  CD        23.1860   22.9110   17.8130 C.3    94  PRO94       0.0939
    186  N         28.7220   24.3180   19.6970 N.3    97  ILE97      -0.1245
    187  CA        28.2090   24.9840   20.9060 C.3    97  ILE97       0.1561
    188  C         28.0240   24.0810   22.1240 C.2    97  ILE97       0.2260
    189  O         27.5590   24.5400   23.1700 O.2    97  ILE97      -0.2867
    190  CB        26.9010   25.7980   20.6390 C.3    97  ILE97       0.0252
    191  CG1       25.7100   24.8740   20.3380 C.3    97  ILE97       0.0019
    192  CG2       27.1350   26.8170   19.5190 C.3    97  ILE97       0.0019
    193  CD1       24.3620   25.5960   20.2830 C.3    97  ILE97       0.0001
@<TRIPOS>BOND
     1    76    75    1
     2    75    74    1
     3    74    73    1
     4   130   131    1
     5    73    72    1
     6   137   135    1
     7   131   132    1
     8   131   134    1
     9    25    23   ar
    10    25    26   ar
    11   132   133    2
    12   128   127   ar
    13    23    21   ar
    14   129   127   ar
    15    72    69    1
    16     4     3    2
    17   127   126    1
    18   135   134    1
    19   135   136    1
    20    26    24   ar
    21     1     2    1
    22    69    68    1
    23    69    70    1
    24    88    86    1
    25    21    20    1
    26    21    22   ar
    27    71    70    2
    28    20    17    1
    29     3     2    1
    30     3    10   am
    31    68    66   am
    32    70    77   am
    33    19    18    2
    34    16    17    1
    35    16    12   am
    36    24    22   ar
    37     2     5    1
    38    86    85    1
    39    67    66    2
    40    15    14    1
    41   125   124    2
    42    11    10    1
    43    11    14    1
    44    11    12    1
    45   126   123    1
    46   124   123    1
    47     5     6    1
    48    66    65    1
    49    17    18    1
    50     6     7    1
    51    18    27   am
    52    12    13    2
    53   123   122    1
    54    29    30    2
    55    29    28    1
    56    77    78    1
    57    65    64    1
    58    85    87    1
    59    85    82    1
    60    27    28    1
    61     9     7   am
    62     7     8    2
    63    63    61    1
    64    28    31    1
    65    81    82    1
    66    81    79   am
    67    78    79    1
    68    82    83    1
    69   122   116   am
    70    79    80    2
    71    64    58   am
    72    61    60    1
    73    61    62    1
    74   117   116    2
    75   113   111   ar
    76   116   115    1
    77    59    58    2
    78    58    57    1
    79   111   110    1
    80   111   112   ar
    81   110   109    1
    82    60    57    1
    83    31    32    1
    84    83    84    2
    85    83    89   am
    86   120   118    1
    87    57    56    1
    88    33    32    1
    89    32    34    1
    90    89    90    1
    91   115   118    1
    92   115   114    1
    93   109   106    1
    94    56    54   am
    95   170   168   am
    96   118   119    1
    97   114   107   am
    98   119   121    1
    99   108   107    2
   100   107   106    1
   101   106   105    1
   102    90    91    1
   103    90    93    1
   104    54    55    2
   105    54    53    1
   106   168   169    2
   107   168   167    1
   108    91    92    2
   109    93    94    1
   110    53    52    1
   111   138   139    1
   112   105    99   am
   113   167   164    1
   114   183   180    1
   115   183   184    1
   116   180   179    1
   117   180   181    1
   118    43    41   ar
   119   184   185    1
   120   166   165    2
   121   139   140    1
   122   141   140    2
   123    42    41   ar
   124   140   142   am
   125   174   173    2
   126    52    46   am
   127    99   100    2
   128    99    98    1
   129    41    40    1
   130   179   185    1
   131   179   173   am
   132    94    96    1
   133    94    95    1
   134   181   182    2
   135   165   164    1
   136   165   171   am
   137   164   163    1
   138   173   172    1
   139   142   143    1
   140    47    46    2
   141    46    45    1
   142   146   143    1
   143   146   147    1
   144   143   144    1
   145    98    97    1
   146    98   101    1
   147    40    39    1
   148   149   147   ar
   149   171   172    1
   150   147   148   ar
   151   172   175    1
   152   192   190    1
   153   103   101    1
   154   186   187    1
   155    39    36    1
   156    45    44    1
   157    45    48    1
   158   144   150   am
   159   144   145    2
   160    50    48    1
   161   101   102    1
   162   150   151    1
   163    38    37    2
   164   193   191    1
   165   191   190    1
   166   175   176    1
   167    44    37   am
   168    37    36    1
   169    48    49    1
   170   190   187    1
   171   187   188    1
   172    36    35    1
   173   102   104    1
   174   154   151    1
   175   151   152    1
   176   176   178    1
   177   176   177    1
   178   161   160    1
   179    49    51    1
   180   188   189    2
   181   155   152   am
   182   155   156    1
   183   160   159    1
   184   160   162    1
   185   152   153    2
   186   159   156    1
   187   156   157    1
   188   157   158    2
