@<TRIPOS>MOLECULE
tmp/3grtA01.pdb
 172 164 0 0 0
SMALL
GASTEIGER

@<TRIPOS>ATOM
      1  N         55.6460   47.5120   21.3870 N.3    12  GLY12      -0.1210
      2  CA        56.9950   47.3830   20.8820 C.3    12  GLY12       0.1956
      3  C         57.7910   46.4950   21.8070 C.2    12  GLY12       0.2612
      4  O         57.2220   45.6490   22.4930 O.2    12  GLY12      -0.2717
      5  N         59.0870   46.7470   21.9040 N.am   13  SER13      -0.1952
      6  CA        59.9640   45.9540   22.7520 C.3    13  SER13       0.1924
      7  C         59.5790   45.8570   24.2400 C.2    13  SER13       0.2314
      8  O         59.3580   44.7510   24.7670 O.2    13  SER13      -0.2863
      9  CB        61.3920   46.4620   22.5920 C.3    13  SER13       0.2116
     10  OG        61.7570   46.4440   21.2240 O.3    13  SER13      -0.2180
     11  N         55.3090   44.8320   24.8660 N.3    16  LEU16      -0.1231
     12  CA        55.0400   43.4120   24.7910 C.3    16  LEU16       0.1693
     13  C         55.6670   42.5880   25.9330 C.2    16  LEU16       0.2591
     14  O         54.9480   41.8980   26.6270 O.2    16  LEU16      -0.2718
     15  CB        55.4740   42.8640   23.4380 C.3    16  LEU16       0.0284
     16  CG        54.9680   43.5420   22.1720 C.3    16  LEU16       0.0019
     17  CD1       55.3030   42.6610   20.9980 C.3    16  LEU16       0.0001
     18  CD2       53.4990   43.7560   22.2360 C.3    16  LEU16       0.0001
     19  N         56.9730   42.6870   26.1790 N.am   17  GLU17      -0.1979
     20  CA        57.6120   41.9030   27.2540 C.3    17  GLU17       0.1602
     21  C         56.9480   42.0610   28.6220 C.2    17  GLU17       0.2287
     22  O         56.8060   41.1040   29.3860 O.2    17  GLU17      -0.2864
     23  CB        59.0960   42.2690   27.3760 C.3    17  GLU17       0.0415
     24  CG        59.8210   41.5960   28.5480 C.3    17  GLU17       0.1163
     25  CD        60.3120   40.1910   28.2220 C.2    17  GLU17       0.3649
     26  OE1       60.1280   39.7460   27.0650 O.co2  17  GLU17      -0.2457
     27  OE2       60.9130   39.5440   29.1230 O.co2  17  GLU17      -0.2457
     28  N         53.5650   40.2180   28.3960 N.3    20  TRP20      -0.1227
     29  CA        53.7960   38.7690   28.3520 C.3    20  TRP20       0.1737
     30  C         54.0940   38.2470   29.7720 C.2    20  TRP20       0.2595
     31  O         53.4820   37.2910   30.2540 O.2    20  TRP20      -0.2718
     32  CB        54.9660   38.4220   27.3830 C.3    20  TRP20       0.0564
     33  CG        54.5270   38.0220   25.9710 C.ar   20  TRP20       0.0003
     34  CD1       53.4610   37.2470   25.6440 C.ar   20  TRP20       0.0946
     35  CD2       55.1680   38.3520   24.7210 C.ar   20  TRP20       0.0152
     36  NE1       53.3950   37.0560   24.2780 N.ar   20  TRP20      -0.2442
     37  CE2       54.4420   37.7150   23.6930 C.ar   20  TRP20       0.0810
     38  CE3       56.2890   39.1000   24.3690 C.ar   20  TRP20       0.0012
     39  CZ2       54.8060   37.8090   22.3380 C.ar   20  TRP20       0.0191
     40  CZ3       56.6460   39.1850   23.0140 C.ar   20  TRP20       0.0001
     41  CH2       55.9030   38.5510   22.0240 C.ar   20  TRP20       0.0015
     42  N         55.0220   38.9210   30.4370 N.am   21  ARG21      -0.1980
     43  CA        55.4180   38.5790   31.7820 C.3    21  ARG21       0.1597
     44  C         54.2540   38.6320   32.7370 C.2    21  ARG21       0.2287
     45  O         54.1670   37.8380   33.6770 O.2    21  ARG21      -0.2864
     46  CB        56.4880   39.5510   32.2480 C.3    21  ARG21       0.0334
     47  CG        57.7920   38.8730   32.5020 C.3    21  ARG21       0.0492
     48  CD        57.9900   37.9480   31.3420 C.3    21  ARG21       0.2205
     49  NE        59.2170   37.1830   31.4650 N.pl3  21  ARG21      -0.0865
     50  CZ        59.5790   36.3090   30.5260 C.cat  21  ARG21       0.5346
     51  NH1       58.7790   36.0960   29.4700 N.pl3  21  ARG21       0.1354
     52  NH2       60.7770   35.7030   30.6090 N.pl3  21  ARG21       0.1354
     53  N         55.6080   44.7940   17.3460 N.3    38  GLY38      -0.1225
     54  CA        57.0320   44.5550   17.1980 C.3    38  GLY38       0.1811
     55  C         57.7690   45.8730   17.3880 C.2    38  GLY38       0.2280
     56  O         58.9760   45.9010   17.6480 O.2    38  GLY38      -0.2866
     57  N         61.9800   48.3100   16.6160 N.3    41  CYS41      -0.1221
     58  CA        62.9950   47.2910   16.3910 C.3    41  CYS41       0.1808
     59  C         62.6840   46.3220   15.2260 C.2    41  CYS41       0.2601
     60  O         63.4920   46.1640   14.3110 O.2    41  CYS41      -0.2717
     61  CB        63.1850   46.5310   17.6860 C.3    41  CYS41       0.0970
     62  SG        64.4550   45.2550   17.6330 S.3    41  CYS41      -0.0800
     63  N         61.5130   45.6940   15.2480 N.am   42  VAL42      -0.1979
     64  CA        61.1230   44.7490   14.2060 C.3    42  VAL42       0.1595
     65  C         60.8210   45.4150   12.8700 C.2    42  VAL42       0.2287
     66  O         61.2570   44.9700   11.8160 O.2    42  VAL42      -0.2864
     67  CB        59.8560   43.9650   14.6060 C.3    42  VAL42       0.0276
     68  CG1       59.4980   42.9500   13.5290 C.3    42  VAL42       0.0022
     69  CG2       60.0470   43.2890   15.9400 C.3    42  VAL42       0.0022
     70  N         66.3070   47.2400   14.6790 N.3    46  CYS46      -0.1221
     71  CA        67.2260   46.1130   14.7840 C.3    46  CYS46       0.1808
     72  C         67.1650   45.1450   13.6340 C.2    46  CYS46       0.2601
     73  O         68.1590   44.9640   12.9380 O.2    46  CYS46      -0.2717
     74  CB        67.0070   45.3550   16.0870 C.3    46  CYS46       0.0970
     75  SG        66.1980   46.2690   17.4380 S.3    46  CYS46      -0.0800
     76  N         65.9830   44.5770   13.3950 N.am   47  VAL47      -0.1979
     77  CA        65.7760   43.5820   12.3340 C.3    47  VAL47       0.1595
     78  C         66.1560   44.0010   10.8920 C.2    47  VAL47       0.2287
     79  O         67.0030   43.3630   10.2680 O.2    47  VAL47      -0.2864
     80  CB        64.3590   42.9640   12.4410 C.3    47  VAL47       0.0276
     81  CG1       64.1340   41.9300   11.3570 C.3    47  VAL47       0.0022
     82  CG2       64.2140   42.2940   13.7710 C.3    47  VAL47       0.0022
     83  N         70.1040   44.9030   10.6270 N.3    50  LYS50      -0.1245
     84  CA        70.9510   43.7120   10.5880 C.3    50  LYS50       0.1561
     85  C         70.9100   43.0040    9.2320 C.2    50  LYS50       0.2260
     86  O         71.9360   42.5990    8.7140 O.2    50  LYS50      -0.2867
     87  CB        70.5830   42.7500   11.7060 C.3    50  LYS50       0.0271
     88  CG        71.7190   42.4920   12.6640 C.3    50  LYS50       0.0035
     89  CD        72.8700   41.7900   11.9690 C.3    50  LYS50       0.0206
     90  CE        73.9380   41.3300   12.9410 C.3    50  LYS50       0.1093
     91  NZ        73.4910   40.2670   13.8730 N.3    50  LYS50      -0.1314
     92  N         60.6370   39.0730    5.6770 N.3    89  TYR89      -0.1241
     93  CA        61.0850   38.6440    6.9920 C.3    89  TYR89       0.1605
     94  C         60.3170   39.4080    8.0460 C.2    89  TYR89       0.2264
     95  O         59.8590   38.8530    9.0310 O.2    89  TYR89      -0.2867
     96  CB        62.5770   38.9210    7.1560 C.3    89  TYR89       0.0534
     97  CG        63.1300   38.3620    8.4380 C.ar   89  TYR89      -0.0201
     98  CD1       62.5710   37.2110    9.0230 C.ar   89  TYR89      -0.0009
     99  CD2       64.2100   38.9610    9.0650 C.ar   89  TYR89      -0.0009
    100  CE1       63.0880   36.6800   10.1960 C.ar   89  TYR89       0.0417
    101  CE2       64.7360   38.4380   10.2440 C.ar   89  TYR89       0.0417
    102  CZ        64.1780   37.3020   10.8060 C.ar   89  TYR89       0.1957
    103  OH        64.7240   36.7850   11.9700 O.3    89  TYR89      -0.2866
    104  N         57.7760   38.0540   10.9710 N.3    93  LEU93      -0.1245
    105  CA        57.9770   38.3750   12.3670 C.3    93  LEU93       0.1561
    106  C         56.7160   38.9230   12.9850 C.2    93  LEU93       0.2260
    107  O         56.4140   38.6030   14.1230 O.2    93  LEU93      -0.2867
    108  CB        59.1410   39.3480   12.5290 C.3    93  LEU93       0.0270
    109  CG        60.4670   38.6230   12.4350 C.3    93  LEU93       0.0019
    110  CD1       61.6040   39.6090   12.4710 C.3    93  LEU93       0.0001
    111  CD2       60.5570   37.6660   13.5810 C.3    93  LEU93       0.0001
    112  N         54.2120   36.0590   13.6280 N.3    96  ILE96      -0.1231
    113  CA        54.7270   35.3670   14.7940 C.3    96  ILE96       0.1692
    114  C         54.4030   36.1010   16.0710 C.2    96  ILE96       0.2592
    115  O         54.0780   35.4680   17.0580 O.2    96  ILE96      -0.2718
    116  CB        56.2580   35.1810   14.7290 C.3    96  ILE96       0.0266
    117  CG1       56.6260   34.2030   13.6260 C.3    96  ILE96       0.0019
    118  CG2       56.7810   34.6610   16.0460 C.3    96  ILE96       0.0020
    119  CD1       58.0740   34.0530   13.4320 C.3    96  ILE96       0.0001
    120  N         54.5060   37.4240   16.0690 N.am   97  TYR97      -0.1976
    121  CA        54.2270   38.1920   17.2820 C.3    97  TYR97       0.1639
    122  C         52.7570   38.2050   17.6380 C.2    97  TYR97       0.2290
    123  O         52.3890   37.9310   18.7860 O.2    97  TYR97      -0.2864
    124  CB        54.7920   39.6150   17.1820 C.3    97  TYR97       0.0560
    125  CG        56.2770   39.6650   17.4550 C.ar   97  TYR97      -0.0198
    126  CD1       57.1810   39.0460   16.6020 C.ar   97  TYR97      -0.0009
    127  CD2       56.7690   40.2560   18.6060 C.ar   97  TYR97      -0.0009
    128  CE1       58.5300   39.0030   16.8850 C.ar   97  TYR97       0.0417
    129  CE2       58.1360   40.2170   18.9110 C.ar   97  TYR97       0.0417
    130  CZ        59.0130   39.5810   18.0480 C.ar   97  TYR97       0.1957
    131  OH        60.3590   39.4670   18.3820 O.3    97  TYR97      -0.2866
    132  N         51.8930   34.8150   19.2250 N.3   100  ASN100     -0.1240
    133  CA        52.3900   34.7320   20.6000 C.3   100  ASN100      0.1653
    134  C         51.4630   35.4820   21.5840 C.2   100  ASN100      0.2266
    135  O         51.0850   34.9470   22.6260 O.2   100  ASN100     -0.2867
    136  CB        53.8110   35.3050   20.6840 C.3   100  ASN100      0.1155
    137  CG        54.8450   34.4500   19.9490 C.2   100  ASN100      0.2627
    138  OD1       56.0430   34.5410   20.2340 O.2   100  ASN100     -0.2716
    139  ND2       54.3950   33.6280   19.0030 N.am  100  ASN100     -0.0877
    140  N         66.5960   48.0280   22.5810 N.3   322  THR322     -0.1204
    141  CA        65.5580   47.0120   22.7250 C.3   322  THR322      0.1979
    142  C         65.7870   46.1700   23.9740 C.2   322  THR322      0.2459
    143  O         64.8800   45.9880   24.7780 O.2   322  THR322     -0.2732
    144  CB        65.4900   46.0690   21.4780 C.3   322  THR322      0.1783
    145  OG1       64.8130   46.7290   20.4030 O.3   322  THR322     -0.2211
    146  CG2       64.7700   44.7820   21.7960 C.3   322  THR322      0.0376
    147  N         67.0100   45.6810   24.1860 N.am  323  PRO323     -0.2728
    148  CA        67.1790   44.8750   25.3950 C.3   323  PRO323      0.1401
    149  C         66.9280   45.5900   26.7410 C.2   323  PRO323      0.2269
    150  O         66.5220   44.9480   27.7120 O.2   323  PRO323     -0.2865
    151  CB        68.6140   44.3760   25.2540 C.3   323  PRO323      0.0296
    152  CG        68.7890   44.2860   23.7740 C.3   323  PRO323      0.0237
    153  CD        68.2150   45.6040   23.3440 C.3   323  PRO323      0.0939
    154  N         63.0710   45.8420   27.0490 N.3   326  ILE326     -0.1245
    155  CA        62.6310   44.5040   27.4290 C.3   326  ILE326      0.1561
    156  C         62.9240   44.2520   28.8930 C.2   326  ILE326      0.2260
    157  O         62.0170   44.0770   29.6850 O.2   326  ILE326     -0.2867
    158  CB        63.3520   43.4430   26.5900 C.3   326  ILE326      0.0252
    159  CG1       62.8230   43.4490   25.1580 C.3   326  ILE326      0.0019
    160  CG2       63.2250   42.0930   27.2330 C.3   326  ILE326      0.0019
    161  CD1       63.5430   42.4950   24.2570 C.3   326  ILE326      0.0001
    162  N         60.2020   43.5310   31.8710 N.3   330  ARG330     -0.1245
    163  CA        60.2020   42.2150   32.4720 C.3   330  ARG330      0.1563
    164  C         60.3010   42.3830   33.9800 C.2   330  ARG330      0.2260
    165  O         59.5300   41.7800   34.7160 O.2   330  ARG330     -0.2867
    166  CB        61.3710   41.4050   31.9340 C.3   330  ARG330      0.0307
    167  CG        62.0060   40.3590   32.8750 C.3   330  ARG330      0.0489
    168  CD        63.4510   40.1170   32.4280 C.3   330  ARG330      0.2205
    169  NE        63.4770   39.8180   30.9890 N.pl3 330  ARG330     -0.0865
    170  CZ        64.5680   39.5930   30.2490 C.cat 330  ARG330      0.5346
    171  NH1       65.7920   39.6210   30.7800 N.pl3 330  ARG330      0.1354
    172  NH2       64.4280   39.3270   28.9580 N.pl3 330  ARG330      0.1354
@<TRIPOS>BOND
     1    92    93    1
     2    93    96    1
     3    93    94    1
     4    96    97    1
     5    94    95    2
     6    97    98   ar
     7    97    99   ar
     8    86    85    2
     9    98   100   ar
    10    99   101   ar
    11    85    84    1
    12   100   102   ar
    13   101   102   ar
    14    79    78    2
    15    84    83    1
    16    84    87    1
    17   102   103    1
    18    78    77    1
    19   104   105    1
    20    81    80    1
    21    87    88    1
    22    66    65    2
    23    89    88    1
    24    89    90    1
    25    77    80    1
    26    77    76    1
    27   105   108    1
    28   105   106    1
    29   109   110    1
    30   109   108    1
    31   109   111    1
    32    80    82    1
    33    65    64    1
    34    73    72    2
    35    90    91    1
    36   106   107    2
    37    76    72   am
    38   119   117    1
    39    68    67    1
    40   117   116    1
    41   112   113    1
    42    72    71    1
    43    64    67    1
    44    64    63    1
    45    60    59    2
    46    67    69    1
    47    70    71    1
    48   116   113    1
    49   116   118    1
    50    71    74    1
    51   113   114    1
    52    59    63   am
    53    59    58    1
    54   120   114   am
    55   120   121    1
    56   114   115    2
    57    74    75    1
    58    58    57    1
    59    58    61    1
    60   126   128   ar
    61   126   125   ar
    62   128   130   ar
    63   124   121    1
    64   124   125    1
    65    54    53    1
    66    54    55    1
    67   121   122    1
    68    55    56    2
    69    75    62    1
    70   125   127   ar
    71    62    61    1
    72   122   123    2
    73   130   131    1
    74   130   129   ar
    75   127   129   ar
    76   139   137   am
    77   132   133    1
    78   137   138    2
    79   137   136    1
    80   145   144    1
    81   133   136    1
    82   133   134    1
    83     2     1    1
    84     2     3    1
    85    17    16    1
    86    10     9    1
    87   144   146    1
    88   144   141    1
    89   134   135    2
    90     3     5   am
    91     3     4    2
    92     5     6    1
    93    41    39   ar
    94    41    40   ar
    95    16    18    1
    96    16    15    1
    97    39    37   ar
    98   140   141    1
    99     9     6    1
   100   141   142    1
   101     6     7    1
   102    40    38   ar
   103   153   152    1
   104   153   147    1
   105    15    12    1
   106    37    36   ar
   107    37    35   ar
   108   152   151    1
   109   142   147   am
   110   142   143    2
   111   147   148    1
   112     7     8    2
   113   161   159    1
   114    36    34   ar
   115    38    35   ar
   116    35    33   ar
   117    12    11    1
   118    12    13    1
   119   159   158    1
   120   151   148    1
   121   148   149    1
   122    34    33   ar
   123    13    19   am
   124    13    14    2
   125    33    32    1
   126    19    20    1
   127   158   160    1
   128   158   155    1
   129   149   150    2
   130   154   155    1
   131    26    25   ar
   132    20    23    1
   133    20    21    1
   134    23    24    1
   135    32    29    1
   136   155   156    1
   137    25    24    1
   138    25    27   ar
   139    29    28    1
   140    29    30    1
   141    21    22    2
   142   156   157    2
   143   172   170    1
   144    51    50    1
   145    30    31    2
   146    30    42   am
   147   170   171    1
   148   170   169    2
   149    42    43    1
   150    50    52    1
   151    50    49    2
   152   169   168    1
   153    48    49    1
   154    48    47    1
   155    43    46    1
   156    43    44    1
   157   162   163    1
   158   166   163    1
   159   166   167    1
   160    46    47    1
   161   168   167    1
   162   163   164    1
   163    44    45    2
   164   164   165    2
