@<TRIPOS>MOLECULE
tmp/3gruA00.pdb
 145 141 0 0 0
SMALL
GASTEIGER

@<TRIPOS>ATOM
      1  N         26.0500   21.9780    7.3690 N.3     1  GLN1       -0.1231
      2  CA        25.2590   21.3840    8.4880 C.3     1  GLN1        0.1698
      3  C         24.8560   19.9420    8.1790 C.2     1  GLN1        0.2592
      4  O         24.3320   19.6580    7.0960 O.2     1  GLN1       -0.2718
      5  CB        24.0300   22.2270    8.7660 C.3     1  GLN1        0.0381
      6  CG        23.2410   21.7780    9.9170 C.3     1  GLN1        0.0905
      7  CD        22.1010   22.6460   10.3570 C.2     1  GLN1        0.2608
      8  OE1       21.8710   23.7440    9.7940 O.2     1  GLN1       -0.2717
      9  NE2       21.3780   22.1400   11.2760 N.am    1  GLN1       -0.0878
     10  N         25.1120   19.0430    9.1300 N.am    2  CYS2       -0.1970
     11  CA        24.7320   17.6350    9.0110 C.3     2  CYS2        0.1712
     12  C         23.3880   17.4280    9.7080 C.2     2  CYS2        0.2296
     13  O         23.3280   17.3210   10.9320 O.2     2  CYS2       -0.2864
     14  CB        25.8010   16.7160    9.6330 C.3     2  CYS2        0.0983
     15  SG        27.4560   16.7680    8.8460 S.3     2  CYS2       -0.0798
     16  N         16.9510   23.2420   20.4190 N.3    28  ILE28      -0.1231
     17  CA        17.9650   24.1270   19.8450 C.3    28  ILE28       0.1692
     18  C         18.3600   23.5690   18.4900 C.2    28  ILE28       0.2592
     19  O         18.7940   22.4250   18.3940 O.2    28  ILE28      -0.2718
     20  CB        19.1970   24.2560   20.7560 C.3    28  ILE28       0.0266
     21  CG1       18.7750   24.9600   22.0590 C.3    28  ILE28       0.0019
     22  CG2       20.2930   25.0610   20.0560 C.3    28  ILE28       0.0020
     23  CD1       19.6740   24.7180   23.2150 C.3    28  ILE28       0.0001
     24  N         18.1740   24.3720   17.4520 N.am   29  GLY29      -0.1957
     25  CA        18.4540   23.9490   16.0930 C.3    29  GLY29       0.1869
     26  C         17.2070   23.3460   15.4750 C.2    29  GLY29       0.2309
     27  O         16.6590   22.3560   15.9700 O.2    29  GLY29      -0.2863
     28  N         14.8810   27.3840   19.0940 N.3    49  ILE49      -0.1231
     29  CA        15.8250   28.4800   18.8600 C.3    49  ILE49       0.1692
     30  C         16.7160   28.0880   17.6910 C.2    49  ILE49       0.2592
     31  O         17.3930   27.0620   17.7460 O.2    49  ILE49      -0.2718
     32  CB        16.6950   28.7950   20.1020 C.3    49  ILE49       0.0266
     33  CG1       15.8100   29.1390   21.3110 C.3    49  ILE49       0.0019
     34  CG2       17.6820   29.9180   19.7840 C.3    49  ILE49       0.0020
     35  CD1       16.5860   29.2260   22.6410 C.3    49  ILE49       0.0001
     36  N         16.6890   28.9120   16.6460 N.am   50  GLU50      -0.1966
     37  CA        17.4160   28.6430   15.4040 C.3    50  GLU50       0.1733
     38  C         18.0440   29.9310   14.8710 C.2    50  GLU50       0.2616
     39  O         17.3520   30.9280   14.7030 O.2    50  GLU50      -0.2715
     40  CB        16.4730   28.0330   14.3600 C.3    50  GLU50       0.0429
     41  CG        17.0780   27.8640   12.9680 C.3    50  GLU50       0.1163
     42  CD        18.3730   27.0820   12.9840 C.2    50  GLU50       0.3649
     43  OE1       18.3490   25.9060   13.3970 O.co2  50  GLU50      -0.2457
     44  OE2       19.4120   27.6450   12.5700 O.co2  50  GLU50      -0.2457
     45  N         19.3530   29.8800   14.6210 N.am   51  ILE51      -0.1963
     46  CA        20.1360   31.0570   14.2050 C.3    51  ILE51       0.1727
     47  C         20.0390   31.3900   12.7170 C.2    51  ILE51       0.2616
     48  O         20.2620   32.5450   12.3090 O.2    51  ILE51      -0.2715
     49  CB        21.6310   30.8870   14.5880 C.3    51  ILE51       0.0290
     50  CG1       22.3040   32.2500   14.7800 C.3    51  ILE51       0.0022
     51  CG2       22.3810   30.0010   13.5750 C.3    51  ILE51       0.0023
     52  CD1       23.6270   32.1590   15.5490 C.3    51  ILE51       0.0001
     53  N         19.7380   30.3700   11.9140 N.am   52  ASP52      -0.1971
     54  CA        19.8170   30.4670   10.4530 C.3    52  ASP52       0.1709
     55  C         18.4270   30.6240    9.8460 C.2    52  ASP52       0.2293
     56  O         17.6650   29.6540    9.7520 O.2    52  ASP52      -0.2864
     57  CB        20.5170   29.2140    9.8950 C.3    52  ASP52       0.1436
     58  CG        20.7730   29.2930    8.3910 C.2    52  ASP52       0.3671
     59  OD1       20.3070   30.2490    7.7310 O.co2  52  ASP52      -0.2456
     60  OD2       21.4590   28.3820    7.8770 O.co2  52  ASP52      -0.2456
     61  N         16.3700   28.5940    6.9390 N.3    55  LEU55      -0.1245
     62  CA        15.6240   27.3720    7.2610 C.3    55  LEU55       0.1561
     63  C         14.1350   27.6460    7.4890 C.2    55  LEU55       0.2260
     64  O         13.3820   26.7440    7.8670 O.2    55  LEU55      -0.2867
     65  CB        16.2130   26.6860    8.5110 C.3    55  LEU55       0.0270
     66  CG        17.6350   26.1140    8.4500 C.3    55  LEU55       0.0019
     67  CD1       18.0520   25.5400    9.8040 C.3    55  LEU55       0.0001
     68  CD2       17.7810   25.0630    7.3380 C.3    55  LEU55       0.0001
     69  N         17.3160   33.2510   16.4800 N.3    74  GLY74      -0.1210
     70  CA        18.4250   33.8530   17.1910 C.3    74  GLY74       0.1956
     71  C         19.4500   32.8530   17.6730 C.2    74  GLY74       0.2612
     72  O         19.3610   31.6580   17.4080 O.2    74  GLY74      -0.2717
     73  N         20.4300   33.3810   18.3940 N.am   75  ASP75      -0.1959
     74  CA        21.5650   32.6220   18.8870 C.3    75  ASP75       0.1840
     75  C         21.2650   32.0430   20.2630 C.2    75  ASP75       0.2622
     76  O         21.0470   32.7850   21.2130 O.2    75  ASP75      -0.2715
     77  CB        22.7560   33.5880   18.9480 C.3    75  ASP75       0.1450
     78  CG        24.0480   32.9160   19.3760 C.2    75  ASP75       0.3671
     79  OD1       24.0140   31.8840   20.0840 O.co2  75  ASP75      -0.2456
     80  OD2       25.1100   33.4550   19.0070 O.co2  75  ASP75      -0.2456
     81  N         21.2700   30.7100   20.3820 N.am   76  ALA76      -0.1963
     82  CA        20.8850   30.0460   21.6320 C.3    76  ALA76       0.1728
     83  C         21.7670   30.4330   22.8190 C.2    76  ALA76       0.2616
     84  O         21.3420   30.3100   23.9700 O.2    76  ALA76      -0.2715
     85  CB        20.8650   28.5190   21.4620 C.3    76  ALA76       0.0334
     86  N         22.9850   30.8910   22.5350 N.am   77  LEU77      -0.1977
     87  CA        23.9020   31.2990   23.6090 C.3    77  LEU77       0.1596
     88  C         23.6110   32.7090   24.1050 C.2    77  LEU77       0.2287
     89  O         24.1630   33.1390   25.1240 O.2    77  LEU77      -0.2864
     90  CB        25.3580   31.1840   23.1640 C.3    77  LEU77       0.0297
     91  CG        25.8990   29.7510   23.1000 C.3    77  LEU77       0.0022
     92  CD1       27.3680   29.7840   22.7210 C.3    77  LEU77       0.0001
     93  CD2       25.6910   28.9980   24.4200 C.3    77  LEU77       0.0001
     94  N         19.1770   18.0270   18.7960 N.3    92  ASN92      -0.1225
     95  CA        20.4560   17.6510   18.2040 C.3    92  ASN92       0.1785
     96  C         21.2760   18.9340   18.2230 C.2    92  ASN92       0.2597
     97  O         21.0730   19.8170   17.3760 O.2    92  ASN92      -0.2718
     98  CB        20.2840   17.1550   16.7630 C.3    92  ASN92       0.1169
     99  CG        21.6260   16.8970   16.0670 C.2    92  ASN92       0.2627
    100  OD1       22.6360   16.6100   16.7190 O.2    92  ASN92      -0.2716
    101  ND2       21.6400   17.0060   14.7440 N.am   92  ASN92      -0.0877
    102  N         22.1780   19.0580   19.1910 N.am   93  LEU93      -0.1966
    103  CA        22.8550   20.3380   19.4090 C.3    93  LEU93       0.1713
    104  C         23.7910   20.7170   18.2650 C.2    93  LEU93       0.2458
    105  O         24.3740   19.8480   17.6150 O.2    93  LEU93      -0.2730
    106  CB        23.6390   20.3120   20.7250 C.3    93  LEU93       0.0310
    107  CG        22.8710   20.1980   22.0440 C.3    93  LEU93       0.0022
    108  CD1       23.8610   20.0480   23.1900 C.3    93  LEU93       0.0001
    109  CD2       21.9590   21.4010   22.2910 C.3    93  LEU93       0.0001
    110  N         23.9520   22.0230   18.0320 N.am   94  PRO94      -0.2716
    111  CA        25.0580   22.4660   17.2080 C.3    94  PRO94       0.1536
    112  C         26.3090   22.1990   18.0270 C.2    94  PRO94       0.2599
    113  O         26.4500   22.7330   19.1350 O.2    94  PRO94      -0.2715
    114  CB        24.8320   23.9800   17.1070 C.3    94  PRO94       0.0310
    115  CG        23.3970   24.1890   17.5000 C.3    94  PRO94       0.0237
    116  CD        23.1410   23.1530   18.5190 C.3    94  PRO94       0.0939
    117  N         27.1890   21.3530   17.5120 N.am   95  TYR95      -0.1960
    118  CA        28.2630   20.8010   18.3320 C.3    95  TYR95       0.1771
    119  C         29.2150   21.8830   18.8390 C.2    95  TYR95       0.2619
    120  O         29.7610   21.7760   19.9440 O.2    95  TYR95      -0.2715
    121  CB        29.0160   19.7360   17.5730 C.3    95  TYR95       0.0574
    122  CG        28.0760   18.6860   17.0030 C.ar   95  TYR95      -0.0198
    123  CD1       27.3180   17.8790   17.8430 C.ar   95  TYR95      -0.0009
    124  CD2       27.9050   18.5630   15.6270 C.ar   95  TYR95      -0.0009
    125  CE1       26.4320   16.9480   17.3360 C.ar   95  TYR95       0.0417
    126  CE2       27.0250   17.6270   15.1130 C.ar   95  TYR95       0.0417
    127  CZ        26.2830   16.8310   15.9640 C.ar   95  TYR95       0.1957
    128  OH        25.4060   15.9040   15.4470 O.3    95  TYR95      -0.2866
    129  N         29.3870   22.9370   18.0450 N.am   96  GLN96      -0.1963
    130  CA        30.3260   24.0010   18.3920 C.3    96  GLN96       0.1733
    131  C         29.9480   24.6960   19.7000 C.2    96  GLN96       0.2616
    132  O         30.8060   25.2950   20.3530 O.2    96  GLN96      -0.2715
    133  CB        30.4440   25.0160   17.2490 C.3    96  GLN96       0.0408
    134  CG        30.7970   24.4280   15.9000 C.3    96  GLN96       0.0908
    135  CD        32.0560   23.5840   15.9130 C.2    96  GLN96       0.2608
    136  OE1       33.1140   24.0540   16.3560 O.2    96  GLN96      -0.2717
    137  NE2       31.9450   22.3560   15.4500 N.am   96  GLN96      -0.0878
    138  N         28.6710   24.6180   20.0790 N.am   97  ILE97      -0.1977
    139  CA        28.2170   25.2510   21.3240 C.3    97  ILE97       0.1596
    140  C         28.0490   24.2980   22.5060 C.2    97  ILE97       0.2287
    141  O         27.5840   24.7050   23.5700 O.2    97  ILE97      -0.2864
    142  CB        26.9410   26.1460   21.1330 C.3    97  ILE97       0.0276
    143  CG1       25.6770   25.3040   20.9410 C.3    97  ILE97       0.0022
    144  CG2       27.1530   27.1370   19.9700 C.3    97  ILE97       0.0022
    145  CD1       24.3690   26.0890   21.1380 C.3    97  ILE97       0.0001
@<TRIPOS>BOND
     1    61    62    1
     2     4     3    2
     3    62    63    1
     4    62    65    1
     5    68    66    1
     6     1     2    1
     7    63    64    2
     8    59    58   ar
     9    60    58   ar
    10     3     2    1
    11     3    10   am
    12    58    57    1
    13    66    65    1
    14    66    67    1
    15     2     5    1
    16     5     6    1
    17    15    14    1
    18    11    10    1
    19    11    14    1
    20    11    12    1
    21    12    13    2
    22    56    55    2
    23     8     7    2
    24    55    54    1
    25    57    54    1
    26     6     7    1
    27     7     9   am
    28    54    53    1
    29    53    47   am
    30    48    47    2
    31    44    42   ar
    32    47    46    1
    33    41    42    1
    34    41    40    1
    35    42    43   ar
    36    51    49    1
    37    46    49    1
    38    46    45    1
    39    40    37    1
    40    49    50    1
    41    45    38   am
    42    39    38    2
    43   101    99   am
    44    50    52    1
    45    38    37    1
    46   126   124   ar
    47   126   127   ar
    48    37    36    1
    49   128   127    1
    50   137   135   am
    51    26    27    2
    52    26    25    1
    53   124   122   ar
    54   134   135    1
    55   134   133    1
    56   135   136    2
    57   127   125   ar
    58    99   100    2
    59    99    98    1
    60    25    24    1
    61    69    70    1
    62    36    30   am
    63    98    95    1
    64   122   121    1
    65   122   123   ar
    66   114   111    1
    67   114   115    1
    68    70    71    1
    69   111   112    1
    70   111   110    1
    71   133   130    1
    72   125   123   ar
    73    97    96    2
    74    72    71    2
    75    24    18   am
    76   115   116    1
    77   117   112   am
    78   117   118    1
    79   121   118    1
    80   105   104    2
    81    71    73   am
    82    30    31    2
    83    30    29    1
    84   112   113    2
    85   110   104   am
    86   110   116    1
    87   129   130    1
    88   129   119   am
    89    95    96    1
    90    95    94    1
    91    96   102   am
    92   104   103    1
    93   118   119    1
    94   130   131    1
    95    73    74    1
    96    19    18    2
    97    18    17    1
    98   119   120    2
    99    29    28    1
   100    29    32    1
   101    74    77    1
   102    74    75    1
   103    77    78    1
   104    80    78   ar
   105   102   103    1
   106    78    79   ar
   107   103   106    1
   108   131   138   am
   109   131   132    2
   110    34    32    1
   111    17    16    1
   112    17    20    1
   113   144   142    1
   114    22    20    1
   115   138   139    1
   116    32    33    1
   117    75    81   am
   118    75    76    2
   119    81    82    1
   120   106   107    1
   121    20    21    1
   122   143   142    1
   123   143   145    1
   124   142   139    1
   125    33    35    1
   126   139   140    1
   127    85    82    1
   128    82    83    1
   129   107   109    1
   130   107   108    1
   131    21    23    1
   132   140   141    2
   133    86    83   am
   134    86    87    1
   135    92    91    1
   136    83    84    2
   137    91    90    1
   138    91    93    1
   139    90    87    1
   140    87    88    1
   141    88    89    2
