@<TRIPOS>MOLECULE
tmp/3grvA00.pdb
 132 125 0 0 0
SMALL
GASTEIGER

@<TRIPOS>ATOM
      1  N         26.1410   24.8910    8.6000 N.3     1  GLN1       -0.1231
      2  CA        24.7490   24.5140    8.9870 C.3     1  GLN1        0.1698
      3  C         24.5000   23.0110    8.8520 C.2     1  GLN1        0.2592
      4  O         24.3320   22.4900    7.7470 O.2     1  GLN1       -0.2718
      5  CB        23.7230   25.3100    8.1720 C.3     1  GLN1        0.0381
      6  CG        23.7440   26.8010    8.6010 C.3     1  GLN1        0.0905
      7  CD        22.6590   27.6110    7.9720 C.2     1  GLN1        0.2608
      8  OE1       22.8820   28.4830    7.1240 O.2     1  GLN1       -0.2717
      9  NE2       21.4230   27.3510    8.3660 N.am    1  GLN1       -0.0878
     10  N         24.4950   22.3250    9.9930 N.am    2  CYS2       -0.1956
     11  CA        24.1420   20.9150   10.0650 C.3     2  CYS2        0.1843
     12  C         22.6520   20.7690   10.3280 C.2     2  CYS2        0.2625
     13  O         22.1170   21.3510   11.2740 O.2     2  CYS2       -0.2714
     14  CB        24.9300   20.2160   11.1720 C.3     2  CYS2        0.0997
     15  SG        26.2030   19.0810   10.5760 S.3     2  CYS2       -0.0797
     16  N         21.9800   20.0030    9.4770 N.am    3  PHE3       -0.1974
     17  CA        20.5630   19.7350    9.6580 C.3     3  PHE3        0.1639
     18  C         20.3860   18.2800   10.0730 C.2     3  PHE3        0.2290
     19  O         20.9620   17.3900    9.4570 O.2     3  PHE3       -0.2864
     20  CB        19.7920   20.0160    8.3640 C.3     3  PHE3        0.0560
     21  CG        19.9480   21.4230    7.8500 C.ar    3  PHE3       -0.0200
     22  CD1       19.3310   22.4920    8.4990 C.ar    3  PHE3       -0.0042
     23  CD2       20.6980   21.6770    6.7030 C.ar    3  PHE3       -0.0042
     24  CE1       19.4680   23.7960    8.0240 C.ar    3  PHE3       -0.0003
     25  CE2       20.8460   22.9780    6.2180 C.ar    3  PHE3       -0.0003
     26  CZ        20.2290   24.0390    6.8810 C.ar    3  PHE3       -0.0000
     27  N         16.5800   25.3610   20.1070 N.3    28  ILE28      -0.1231
     28  CA        17.6390   26.2100   19.5520 C.3    28  ILE28       0.1692
     29  C         17.9290   25.7330   18.1450 C.2    28  ILE28       0.2592
     30  O         18.3250   24.5790   17.9430 O.2    28  ILE28      -0.2718
     31  CB        18.9400   26.1820   20.3920 C.3    28  ILE28       0.0266
     32  CG1       18.6850   26.5380   21.8710 C.3    28  ILE28       0.0019
     33  CG2       20.0000   27.1130   19.7650 C.3    28  ILE28       0.0020
     34  CD1       18.1590   27.9210   22.1050 C.3    28  ILE28       0.0001
     35  N         17.7030   26.6140   17.1790 N.am   29  GLY29      -0.1957
     36  CA        17.8570   26.2590   15.7800 C.3    29  GLY29       0.1869
     37  C         16.5760   25.6830   15.2250 C.2    29  GLY29       0.2309
     38  O         15.9820   24.7740   15.8170 O.2    29  GLY29      -0.2863
     39  N         16.3350   24.6560   11.6930 N.3    31  GLY31      -0.1225
     40  CA        16.6610   23.6440   10.6990 C.3    31  GLY31       0.1811
     41  C         15.5550   23.5400    9.6660 C.2    31  GLY31       0.2280
     42  O         15.0420   24.5540    9.1890 O.2    31  GLY31      -0.2866
     43  N         14.5310   29.6530   18.6230 N.3    49  ILE49      -0.1231
     44  CA        15.4920   30.7180   18.3330 C.3    49  ILE49       0.1692
     45  C         16.2910   30.2480   17.1240 C.2    49  ILE49       0.2592
     46  O         16.9170   29.1860   17.1700 O.2    49  ILE49      -0.2718
     47  CB        16.4490   31.0230   19.5320 C.3    49  ILE49       0.0266
     48  CG1       15.6580   31.3290   20.8140 C.3    49  ILE49       0.0019
     49  CG2       17.3850   32.2080   19.1940 C.3    49  ILE49       0.0020
     50  CD1       16.5420   31.5750   22.0470 C.3    49  ILE49       0.0001
     51  N         16.2300   31.0290   16.0520 N.am   50  GLU50      -0.1966
     52  CA        16.9310   30.7270   14.8010 C.3    50  GLU50       0.1733
     53  C         17.6340   31.9760   14.2730 C.2    50  GLU50       0.2616
     54  O         17.0140   33.0370   14.1670 O.2    50  GLU50      -0.2715
     55  CB        15.9450   30.1850   13.7550 C.3    50  GLU50       0.0429
     56  CG        16.5400   29.9380   12.3570 C.3    50  GLU50       0.1163
     57  CD        17.7670   29.0300   12.3750 C.2    50  GLU50       0.3649
     58  OE1       17.6760   27.8880   12.8780 O.co2  50  GLU50      -0.2457
     59  OE2       18.8200   29.4560   11.8650 O.co2  50  GLU50      -0.2457
     60  N         18.9140   31.8310   13.9220 N.am   51  ILE51      -0.1963
     61  CA        19.7410   32.9600   13.4610 C.3    51  ILE51       0.1727
     62  C         19.5980   33.2930   11.9710 C.2    51  ILE51       0.2616
     63  O         19.8370   34.4370   11.5500 O.2    51  ILE51      -0.2715
     64  CB        21.2510   32.7480   13.8230 C.3    51  ILE51       0.0290
     65  CG1       22.0200   34.0720   13.7860 C.3    51  ILE51       0.0022
     66  CG2       21.9140   31.6870   12.9130 C.3    51  ILE51       0.0023
     67  CD1       23.3280   34.0380   14.5660 C.3    51  ILE51       0.0001
     68  N         19.2060   32.2990   11.1800 N.am   52  ASP52      -0.1971
     69  CA        19.2550   32.4210    9.7170 C.3    52  ASP52       0.1709
     70  C         17.8640   32.6690    9.1420 C.2    52  ASP52       0.2293
     71  O         17.0090   31.7760    9.1210 O.2    52  ASP52      -0.2864
     72  CB        19.8980   31.1610    9.1190 C.3    52  ASP52       0.1436
     73  CG        20.0800   31.2340    7.6160 C.2    52  ASP52       0.3671
     74  OD1       19.7750   32.2760    6.9940 O.co2  52  ASP52      -0.2456
     75  OD2       20.5350   30.2180    7.0520 O.co2  52  ASP52      -0.2456
     76  N         15.7140   30.6390    6.4100 N.3    55  LEU55      -0.1245
     77  CA        14.9010   29.4800    6.8060 C.3    55  LEU55       0.1561
     78  C         13.4360   29.8240    7.1260 C.2    55  LEU55       0.2260
     79  O         12.6590   28.9510    7.5100 O.2    55  LEU55      -0.2867
     80  CB        15.5430   28.7460    8.0010 C.3    55  LEU55       0.0270
     81  CG        16.8910   28.0470    7.7820 C.3    55  LEU55       0.0019
     82  CD1       17.3960   27.4560    9.0890 C.3    55  LEU55       0.0001
     83  CD2       16.7960   26.9590    6.7040 C.3    55  LEU55       0.0001
     84  N         17.2050   35.4890   15.8230 N.3    74  GLY74      -0.1210
     85  CA        18.3870   36.0380   16.4730 C.3    74  GLY74       0.1956
     86  C         19.3500   34.9490   16.8790 C.2    74  GLY74       0.2612
     87  O         19.0790   33.7570   16.6870 O.2    74  GLY74      -0.2717
     88  N         20.4720   35.3850   17.4410 N.am   75  ASP75      -0.1959
     89  CA        21.5310   34.5300   17.9770 C.3    75  ASP75       0.1840
     90  C         21.1360   34.0840   19.3840 C.2    75  ASP75       0.2621
     91  O         20.8780   34.9230   20.2450 O.2    75  ASP75      -0.2715
     92  CB        22.8300   35.3520   18.0210 C.3    75  ASP75       0.1450
     93  CG        24.0560   34.5440   18.4400 C.2    75  ASP75       0.3671
     94  OD1       23.9330   33.4270   18.9880 O.co2  75  ASP75      -0.2456
     95  OD2       25.1720   35.0610   18.2210 O.co2  75  ASP75      -0.2456
     96  N         21.0830   32.7720   19.6230 N.am   76  ALA76      -0.1977
     97  CA        20.6540   32.2580   20.9390 C.3    76  ALA76       0.1597
     98  C         21.6030   32.6470   22.0780 C.2    76  ALA76       0.2287
     99  O         21.2170   32.6240   23.2410 O.2    76  ALA76      -0.2864
    100  CB        20.4670   30.7420   20.9050 C.3    76  ALA76       0.0319
    101  N         18.7830   20.2290   18.4160 N.3    92  ASN92      -0.1240
    102  CA        19.9870   19.8310   17.7440 C.3    92  ASN92       0.1653
    103  C         20.8880   21.0660   17.7430 C.2    92  ASN92       0.2266
    104  O         20.7930   21.9190   16.8580 O.2    92  ASN92      -0.2867
    105  CB        19.6820   19.3750   16.3130 C.3    92  ASN92       0.1155
    106  CG        20.9440   19.1750   15.4820 C.2    92  ASN92       0.2627
    107  OD1       21.9570   18.6860   15.9810 O.2    92  ASN92      -0.2716
    108  ND2       20.8880   19.5700   14.2110 N.am   92  ASN92      -0.0877
    109  N         23.7120   23.8710   17.4400 N.3    94  PRO94      -0.2116
    110  CA        24.8670   24.1590   16.5950 C.3    94  PRO94       0.1372
    111  C         26.1210   23.9230   17.4370 C.2    94  PRO94       0.2244
    112  O         26.2610   24.5310   18.4950 O.2    94  PRO94      -0.2868
    113  CB        24.7150   25.6480   16.2590 C.3    94  PRO94       0.0268
    114  CG        23.3050   26.0020   16.6400 C.3    94  PRO94       0.0207
    115  CD        22.8800   25.0620   17.6960 C.3    94  PRO94       0.0892
    116  N         29.1740   24.7180   17.4130 N.3    96  GLN96      -0.1231
    117  CA        30.0030   25.8920   17.6900 C.3    96  GLN96       0.1698
    118  C         29.6470   26.5950   19.0100 C.2    96  GLN96       0.2592
    119  O         30.5190   27.1580   19.6690 O.2    96  GLN96      -0.2718
    120  CB        29.9130   26.8850   16.5300 C.3    96  GLN96       0.0381
    121  CG        30.4320   26.3450   15.1880 C.3    96  GLN96       0.0905
    122  CD        29.3300   25.7840   14.2840 C.2    96  GLN96       0.2608
    123  OE1       28.2810   25.3210   14.7500 O.2    96  GLN96      -0.2717
    124  NE2       29.5730   25.8210   12.9780 N.am   96  GLN96      -0.0878
    125  N         28.3740   26.5450   19.3990 N.am   97  ILE97      -0.1980
    126  CA        27.9090   27.2100   20.6320 C.3    97  ILE97       0.1595
    127  C         27.7230   26.3080   21.8580 C.2    97  ILE97       0.2287
    128  O         27.2570   26.7770   22.9050 O.2    97  ILE97      -0.2864
    129  CB        26.6200   28.0540   20.3780 C.3    97  ILE97       0.0276
    130  CG1       25.4160   27.1700   20.0400 C.3    97  ILE97       0.0022
    131  CG2       26.8780   29.0960   19.2640 C.3    97  ILE97       0.0022
    132  CD1       24.0660   27.8840   20.0860 C.3    97  ILE97       0.0001
@<TRIPOS>BOND
     1    25    23   ar
     2    25    26   ar
     3    76    77    1
     4    23    21   ar
     5    83    81    1
     6    77    78    1
     7    77    80    1
     8    26    24   ar
     9    74    73   ar
    10    75    73   ar
    11     8     7    2
    12    78    79    2
    13    73    72    1
    14     4     3    2
    15    81    80    1
    16    81    82    1
    17    21    20    1
    18    21    22   ar
    19     7     9   am
    20     7     6    1
    21    24    22   ar
    22     5     6    1
    23     5     2    1
    24    20    17    1
    25     1     2    1
    26     3     2    1
    27     3    10   am
    28    72    69    1
    29    71    70    2
    30    70    69    1
    31    42    41    2
    32    19    18    2
    33    16    17    1
    34    16    12   am
    35    17    18    1
    36    41    40    1
    37    69    68    1
    38    10    11    1
    39    11    12    1
    40    11    14    1
    41    12    13    2
    42    15    14    1
    43    40    39    1
    44    68    62   am
    45    63    62    2
    46    59    57   ar
    47    62    61    1
    48    56    57    1
    49    56    55    1
    50    57    58   ar
    51    66    64    1
    52   124   122   am
    53    61    64    1
    54    61    60    1
    55    55    52    1
    56    65    64    1
    57    65    67    1
    58    60    53   am
    59    54    53    2
    60   108   106   am
    61    53    52    1
    62   122   123    2
    63   122   121    1
    64    52    51    1
    65   121   120    1
    66    37    36    1
    67    37    38    2
    68   106   107    2
    69   106   105    1
    70    36    35    1
    71    84    85    1
    72    51    45   am
    73   113   110    1
    74   113   114    1
    75   105   102    1
    76    85    86    1
    77   120   117    1
    78   110   111    1
    79   110   109    1
    80   114   115    1
    81    87    86    2
    82   104   103    2
    83    86    88   am
    84    45    46    2
    85    45    44    1
    86    35    29   am
    87   116   117    1
    88   111   112    2
    89   109   115    1
    90    88    89    1
    91   117   118    1
    92   103   102    1
    93   102   101    1
    94    30    29    2
    95    89    92    1
    96    89    90    1
    97    92    93    1
    98    29    28    1
    99    95    93   ar
   100    44    43    1
   101    44    47    1
   102    93    94   ar
   103   118   125   am
   104   118   119    2
   105    49    47    1
   106   131   129    1
   107    90    96   am
   108    90    91    2
   109   125   126    1
   110    47    48    1
   111    28    27    1
   112    28    31    1
   113    96    97    1
   114    33    31    1
   115   130   132    1
   116   130   129    1
   117   129   126    1
   118    31    32    1
   119   126   127    1
   120    48    50    1
   121   100    97    1
   122    97    98    1
   123   127   128    2
   124    32    34    1
   125    98    99    2
