@<TRIPOS>MOLECULE
tmp/3grxA00.pdb
 99 97 0 0 0
SMALL
GASTEIGER

@<TRIPOS>ATOM
      1  N          7.4090    5.6510    2.3770 N.3     8  LYS8       -0.1245
      2  CA         8.7170    6.2250    2.6400 C.3     8  LYS8        0.1561
      3  C          8.4280    7.6170    3.1740 C.2     8  LYS8        0.2260
      4  O          7.5260    8.2880    2.6600 O.2     8  LYS8       -0.2867
      5  CB         9.5760    6.2020    1.3650 C.3     8  LYS8        0.0271
      6  CG        10.9540    6.8590    1.5400 C.3     8  LYS8        0.0035
      7  CD        11.8840    6.6850    0.3310 C.3     8  LYS8        0.0206
      8  CE        12.4070    5.2420    0.2570 C.3     8  LYS8        0.1093
      9  NZ        13.3680    5.0370   -0.8470 N.3     8  LYS8       -0.1314
     10  N         10.3320   10.3870    3.0700 N.3    10  THR10      -0.1203
     11  CA        10.5840   11.2680    1.9470 C.3    10  THR10       0.1994
     12  C          9.9850   10.6090    0.6920 C.2    10  THR10       0.2618
     13  O         10.6750    9.9340   -0.0730 O.2    10  THR10      -0.2717
     14  CB        12.0870   11.6120    1.9570 C.3    10  THR10       0.1784
     15  OG1       12.4170   12.5980    1.0080 O.3    10  THR10      -0.2211
     16  CG2       13.0680   10.4380    1.8570 C.3    10  THR10       0.0376
     17  N          8.6600   10.7100    0.5400 N.am   11  CYS11      -0.1956
     18  CA         7.9020   10.2860   -0.6300 C.3    11  CYS11       0.1828
     19  C          6.4520   10.7590   -0.4590 C.2    11  CYS11       0.2467
     20  O          5.6850   10.1350    0.2880 O.2    11  CYS11      -0.2730
     21  CB         7.9270    8.7610   -0.7910 C.3    11  CYS11       0.0996
     22  SG         6.9110    8.1190   -2.1490 S.3    11  CYS11      -0.0797
     23  N          6.0080   11.8190   -1.1490 N.am   12  PRO12      -0.2715
     24  CA         4.6700   12.3400   -0.9310 C.3    12  PRO12       0.1536
     25  C          3.6080   11.4180   -1.5250 C.2    12  PRO12       0.2598
     26  O          2.5090   11.3370   -0.9820 O.2    12  PRO12      -0.2715
     27  CB         4.6520   13.7100   -1.5820 C.3    12  PRO12       0.0310
     28  CG         5.7060   13.6070   -2.6830 C.3    12  PRO12       0.0237
     29  CD         6.7310   12.6200   -2.1230 C.3    12  PRO12       0.0939
     30  N          3.9290   10.6760   -2.5900 N.am   13  TYR13      -0.1974
     31  CA         3.0390    9.6790   -3.1760 C.3    13  TYR13       0.1639
     32  C          2.6570    8.6110   -2.1390 C.2    13  TYR13       0.2290
     33  O          1.5250    8.1320   -2.1200 O.2    13  TYR13      -0.2864
     34  CB         3.7250    9.0760   -4.4200 C.3    13  TYR13       0.0560
     35  CG         2.7980    8.5010   -5.4760 C.ar   13  TYR13      -0.0198
     36  CD1        1.6680    9.2250   -5.8990 C.ar   13  TYR13      -0.0009
     37  CD2        3.0920    7.2640   -6.0820 C.ar   13  TYR13      -0.0009
     38  CE1        0.7800    8.6700   -6.8290 C.ar   13  TYR13       0.0417
     39  CE2        2.1970    6.6910   -7.0040 C.ar   13  TYR13       0.0417
     40  CZ         1.0180    7.3840   -7.3610 C.ar   13  TYR13       0.1957
     41  OH         0.0880    6.7880   -8.1530 O.3    13  TYR13      -0.2866
     42  N          9.9920    2.2130    4.3570 N.3    33  ILE33      -0.1245
     43  CA        11.2390    1.8610    3.6740 C.3    33  ILE33       0.1561
     44  C         12.1670    3.0600    3.5680 C.2    33  ILE33       0.2260
     45  O         13.0600    3.1140    2.7180 O.2    33  ILE33      -0.2867
     46  CB        10.9740    1.2210    2.3110 C.3    33  ILE33       0.0252
     47  CG1       10.1240    2.0590    1.3440 C.3    33  ILE33       0.0019
     48  CG2       10.2990   -0.1100    2.5670 C.3    33  ILE33       0.0019
     49  CD1       10.7350    2.2240   -0.0510 C.3    33  ILE33       0.0001
     50  N         12.0170   -3.4540    2.2730 N.3    40  ARG40      -0.1245
     51  CA        11.9240   -2.7850    0.9870 C.3    40  ARG40       0.1563
     52  C         12.1720   -3.7860   -0.1220 C.2    40  ARG40       0.2260
     53  O         11.3570   -3.9160   -1.0190 O.2    40  ARG40      -0.2867
     54  CB        12.9520   -1.6490    0.9290 C.3    40  ARG40       0.0307
     55  CG        12.6890   -0.6230   -0.1650 C.3    40  ARG40       0.0489
     56  CD        12.8670   -1.0630   -1.6220 C.3    40  ARG40       0.2205
     57  NE        14.2040   -1.6410   -1.8830 N.pl3  40  ARG40      -0.0865
     58  CZ        15.1620   -1.1130   -2.6580 C.cat  40  ARG40       0.5346
     59  NH1       14.9760    0.0550   -3.2630 N.pl3  40  ARG40       0.1354
     60  NH2       16.3040   -1.7630   -2.8470 N.pl3  40  ARG40       0.1354
     61  N          7.9180   -4.8730   -8.5480 N.3    49  ARG49      -0.1231
     62  CA         8.0270   -3.4170   -8.6710 C.3    49  ARG49       0.1694
     63  C          8.9720   -2.8760   -7.6130 C.2    49  ARG49       0.2593
     64  O          8.9340   -3.3320   -6.4700 O.2    49  ARG49      -0.2718
     65  CB         6.6680   -2.7350   -8.4910 C.3    49  ARG49       0.0321
     66  CG         5.8320   -2.6300   -9.7650 C.3    49  ARG49       0.0489
     67  CD         4.7540   -1.5610   -9.5460 C.3    49  ARG49       0.2205
     68  NE         4.2080   -1.0500  -10.8100 N.pl3  49  ARG49      -0.0865
     69  CZ         4.7500   -0.0680  -11.5450 C.cat  49  ARG49       0.5346
     70  NH1        5.9470    0.4370  -11.2430 N.pl3  49  ARG49       0.1354
     71  NH2        4.0910    0.4170  -12.5850 N.pl3  49  ARG49       0.1354
     72  N          9.7310   -1.8410   -7.9560 N.am   50  THR50      -0.1939
     73  CA        10.7320   -1.2600   -7.0730 C.3    50  THR50       0.2028
     74  C         10.1830   -0.0730   -6.2710 C.2    50  THR50       0.2643
     75  O         10.6250    0.1740   -5.1470 O.2    50  THR50      -0.2714
     76  CB        11.9550   -0.8380   -7.9060 C.3    50  THR50       0.1808
     77  OG1       11.5800    0.1230   -8.8720 O.3    50  THR50      -0.2208
     78  CG2       12.5840   -2.0120   -8.6660 C.3    50  THR50       0.0379
     79  N          9.2380    0.6770   -6.8380 N.am   51  THR51      -0.1936
     80  CA         8.8010    1.9560   -6.2980 C.3    51  THR51       0.2028
     81  C          7.7790    1.7910   -5.1730 C.2    51  THR51       0.2642
     82  O          7.1110    0.7640   -5.0870 O.2    51  THR51      -0.2714
     83  CB         8.2100    2.7810   -7.4550 C.3    51  THR51       0.1808
     84  OG1        7.1570    2.0700   -8.0840 O.3    51  THR51      -0.2208
     85  CG2        9.2420    3.1220   -8.5360 C.3    51  THR51       0.0379
     86  N          7.5840    2.8360   -4.3740 N.am   52  VAL52      -0.1963
     87  CA         6.5170    2.9950   -3.3930 C.3    52  VAL52       0.1712
     88  C          5.5460    4.1220   -3.8010 C.2    52  VAL52       0.2458
     89  O          5.8580    4.8990   -4.7120 O.2    52  VAL52      -0.2730
     90  CB         7.1290    3.2320   -1.9980 C.3    52  VAL52       0.0289
     91  CG1        7.7320    1.9190   -1.5150 C.3    52  VAL52       0.0023
     92  CG2        8.1700    4.3580   -1.9330 C.3    52  VAL52       0.0023
     93  N          4.3410    4.1940   -3.2030 N.am   53  PRO53      -0.2727
     94  CA         3.7680    3.1600   -2.3590 C.3    53  PRO53       0.1402
     95  C          3.3760    1.9610   -3.2180 C.2    53  PRO53       0.2269
     96  O          3.3190    2.0430   -4.4510 O.2    53  PRO53      -0.2865
     97  CB         2.5450    3.7980   -1.7000 C.3    53  PRO53       0.0296
     98  CG         2.0480    4.7530   -2.7770 C.3    53  PRO53       0.0237
     99  CD         3.3260    5.1940   -3.4930 C.3    53  PRO53       0.0939
@<TRIPOS>BOND
     1    71    69    1
     2    69    70    1
     3    69    68    2
     4    68    67    1
     5    66    67    1
     6    66    65    1
     7    77    76    1
     8    62    61    1
     9    62    65    1
    10    62    63    1
    11    78    76    1
    12    85    83    1
    13    41    40    1
    14    84    83    1
    15    72    63   am
    16    72    73    1
    17    76    73    1
    18    63    64    2
    19    83    80    1
    20    40    39   ar
    21    40    38   ar
    22    73    74    1
    23    39    37   ar
    24    79    80    1
    25    79    74   am
    26    38    36   ar
    27    80    81    1
    28    74    75    2
    29    37    35   ar
    30    36    35   ar
    31    35    34    1
    32    81    82    2
    33    81    86   am
    34    89    88    2
    35    96    95    2
    36    34    31    1
    37    86    87    1
    38    88    87    1
    39    88    93   am
    40    99    93    1
    41    99    98    1
    42    87    90    1
    43    59    58    1
    44    95    94    1
    45    93    94    1
    46    31    30    1
    47    31    32    1
    48    60    58    1
    49    98    97    1
    50    28    29    1
    51    28    27    1
    52    58    57    2
    53    30    25   am
    54    94    97    1
    55    22    21    1
    56    32    33    2
    57    29    23    1
    58    90    92    1
    59    90    91    1
    60    57    56    1
    61    56    55    1
    62    27    24    1
    63    25    26    2
    64    25    24    1
    65    23    24    1
    66    23    19   am
    67    53    52    2
    68     9     8    1
    69    21    18    1
    70    18    19    1
    71    18    17    1
    72    19    20    2
    73    55    54    1
    74    52    51    1
    75    13    12    2
    76    49    47    1
    77     8     7    1
    78     7     6    1
    79    17    12   am
    80    12    11    1
    81    54    51    1
    82    51    50    1
    83    15    14    1
    84    47    46    1
    85     5     6    1
    86     5     2    1
    87    16    14    1
    88    11    14    1
    89    11    10    1
    90    46    48    1
    91    46    43    1
    92     1     2    1
    93     2     3    1
    94     4     3    2
    95    45    44    2
    96    44    43    1
    97    43    42    1
