@<TRIPOS>MOLECULE
tmp/3gsdJ00.pdb
 92 90 0 0 0
SMALL
GASTEIGER

@<TRIPOS>ATOM
      1  N         16.5840   27.8800   -8.8350 N.3    10  THR10      -0.1218
      2  CA        15.5750   28.4830   -9.7400 C.3    10  THR10       0.1862
      3  C         15.2620   29.9300   -9.3200 C.2    10  THR10       0.2287
      4  O         15.3690   30.2680   -8.1510 O.2    10  THR10      -0.2866
      5  CB        14.2720   27.6900   -9.7960 C.3    10  THR10       0.1770
      6  OG1       13.6850   27.6430   -8.4890 O.3    10  THR10      -0.2211
      7  CG2       14.5100   26.2870  -10.2980 C.3    10  THR10       0.0375
      8  N          7.7120   24.9900  -13.1600 N.3    41  SER41      -0.1217
      9  CA         7.8760   24.1830  -11.9560 C.3    41  SER41       0.1889
     10  C          6.5370   23.8990  -11.3110 C.2    41  SER41       0.2288
     11  O          5.7130   24.7940  -11.1770 O.2    41  SER41      -0.2866
     12  CB         8.7820   24.8730  -10.9250 C.3    41  SER41       0.2089
     13  OG        10.1310   24.8540  -11.3290 O.3    41  SER41      -0.2183
     14  N          4.8120   22.1060   -7.8250 N.3    43  TYR43      -0.1241
     15  CA         5.1420   21.7670   -6.4510 C.3    43  TYR43       0.1605
     16  C          3.9950   22.1940   -5.5670 C.2    43  TYR43       0.2264
     17  O          3.1990   23.0450   -5.9500 O.2    43  TYR43      -0.2867
     18  CB         6.3980   22.5460   -6.0170 C.3    43  TYR43       0.0534
     19  CG         6.2600   24.0430   -6.2520 C.ar   43  TYR43      -0.0201
     20  CD1        5.7820   24.8910   -5.2490 C.ar   43  TYR43      -0.0009
     21  CD2        6.5890   24.6010   -7.4810 C.ar   43  TYR43      -0.0009
     22  CE1        5.6320   26.2610   -5.4760 C.ar   43  TYR43       0.0417
     23  CE2        6.4250   25.9600   -7.7260 C.ar   43  TYR43       0.0417
     24  CZ         5.9580   26.7830   -6.7120 C.ar   43  TYR43       0.1957
     25  OH         5.8200   28.1230   -6.9470 O.3    43  TYR43      -0.2866
     26  N          2.7550   24.1220   -2.2750 N.3    45  TRP45      -0.1241
     27  CA         3.1940   25.1710   -1.3760 C.3    45  TRP45       0.1605
     28  C          2.0100   25.5510   -0.5120 C.2    45  TRP45       0.2264
     29  O          0.9280   25.8990   -1.0260 O.2    45  TRP45      -0.2867
     30  CB         3.7600   26.3790   -2.1350 C.3    45  TRP45       0.0550
     31  CG         4.4490   27.3590   -1.2320 C.ar   45  TRP45       0.0003
     32  CD1        3.9580   28.5560   -0.7960 C.ar   45  TRP45       0.0946
     33  CD2        5.7400   27.2110   -0.6250 C.ar   45  TRP45       0.0152
     34  NE1        4.8660   29.1660    0.0370 N.ar   45  TRP45      -0.2442
     35  CE2        5.9680   28.3650    0.1590 C.ar   45  TRP45       0.0810
     36  CE3        6.7300   26.2170   -0.6710 C.ar   45  TRP45       0.0012
     37  CZ2        7.1440   28.5520    0.9030 C.ar   45  TRP45       0.0191
     38  CZ3        7.9010   26.4060    0.0640 C.ar   45  TRP45       0.0001
     39  CH2        8.0940   27.5660    0.8440 C.ar   45  TRP45       0.0015
     40  N          9.5160   29.5760  -14.2230 N.3    54  GLU54      -0.1245
     41  CA        10.7730   29.8590  -13.5350 C.3    54  GLU54       0.1567
     42  C         11.9160   29.7500  -14.4970 C.2    54  GLU54       0.2260
     43  O         11.7590   29.2340  -15.5950 O.2    54  GLU54      -0.2867
     44  CB        11.0280   28.8640  -12.3920 C.3    54  GLU54       0.0388
     45  CG        10.1930   29.0770  -11.1510 C.3    54  GLU54       0.1160
     46  CD        10.6680   28.2500   -9.9690 C.2    54  GLU54       0.3649
     47  OE1       10.9810   27.0340  -10.1270 O.co2  54  GLU54      -0.2457
     48  OE2       10.7260   28.8160   -8.8720 O.co2  54  GLU54      -0.2457
     49  N         15.4170   36.3450   -4.5870 N.3    78  PRO78      -0.2102
     50  CA        14.0480   36.8240   -4.4070 C.3    78  PRO78       0.1504
     51  C         13.2620   35.9160   -3.4710 C.2    78  PRO78       0.2576
     52  O         12.3790   36.3940   -2.7460 O.2    78  PRO78      -0.2718
     53  CB        13.4320   36.7490   -5.8210 C.3    78  PRO78       0.0282
     54  CG        14.5040   36.3480   -6.7410 C.3    78  PRO78       0.0208
     55  CD        15.8130   36.2930   -6.0050 C.3    78  PRO78       0.0893
     56  N         13.5680   34.6190   -3.4660 N.am   79  TYR79      -0.1963
     57  CA        12.8110   33.7200   -2.6000 C.3    79  TYR79       0.1771
     58  C         13.4180   33.6290   -1.2250 C.2    79  TYR79       0.2619
     59  O         14.6230   33.8410   -1.0510 O.2    79  TYR79      -0.2715
     60  CB        12.7230   32.2920   -3.1520 C.3    79  TYR79       0.0574
     61  CG        12.1590   32.1070   -4.5400 C.ar   79  TYR79      -0.0198
     62  CD1       11.1450   32.9190   -5.0280 C.ar   79  TYR79      -0.0009
     63  CD2       12.5540   31.0110   -5.3120 C.ar   79  TYR79      -0.0009
     64  CE1       10.6000   32.7030   -6.2980 C.ar   79  TYR79       0.0417
     65  CE2       12.0330   30.7920   -6.5750 C.ar   79  TYR79       0.0417
     66  CZ        11.0500   31.6300   -7.0560 C.ar   79  TYR79       0.1957
     67  OH        10.5300   31.3990   -8.3020 O.3    79  TYR79      -0.2866
     68  N         12.5860   33.3040   -0.2430 N.am   80  GLN80      -0.1963
     69  CA        13.0530   33.1220    1.1200 C.3    80  GLN80       0.1733
     70  C         13.7560   31.7680    1.2190 C.2    80  GLN80       0.2617
     71  O         14.7890   31.6380    1.8770 O.2    80  GLN80      -0.2715
     72  CB        11.8800   33.1780    2.1010 C.3    80  GLN80       0.0408
     73  CG        12.2600   32.8630    3.5460 C.3    80  GLN80       0.0908
     74  CD        13.1720   33.9100    4.1670 C.2    80  GLN80       0.2608
     75  OE1       13.2890   35.0300    3.6650 O.2    80  GLN80      -0.2717
     76  NE2       13.8060   33.5530    5.2780 N.am   80  GLN80      -0.0878
     77  N         13.1960   30.7650    0.5480 N.am   81  THR81      -0.1951
     78  CA        13.7650   29.4270    0.5660 C.3    81  THR81       0.1897
     79  C         14.0840   28.9800   -0.8650 C.2    81  THR81       0.2313
     80  O         13.3560   28.1790   -1.4460 O.2    81  THR81      -0.2863
     81  CB        12.8070   28.4240    1.2410 C.3    81  THR81       0.1794
     82  OG1       12.2820   29.0100    2.4420 O.3    81  THR81      -0.2208
     83  CG2       13.5350   27.0970    1.5700 C.3    81  THR81       0.0378
     84  N         15.7200   27.0480   -4.0620 N.3    83  GLU83      -0.1245
     85  CA        16.2560   25.7460   -4.4000 C.3    83  GLU83       0.1567
     86  C         17.7810   25.8860   -4.4790 C.2    83  GLU83       0.2260
     87  O         18.2970   26.7860   -5.1570 O.2    83  GLU83      -0.2867
     88  CB        15.7330   25.3250   -5.7750 C.3    83  GLU83       0.0388
     89  CG        16.4470   24.1050   -6.3860 C.3    83  GLU83       0.1160
     90  CD        16.0120   23.8380   -7.8230 C.2    83  GLU83       0.3649
     91  OE1       16.8870   23.7380   -8.6960 O.co2  83  GLU83      -0.2457
     92  OE2       14.7920   23.7650   -8.0830 O.co2  83  GLU83      -0.2457
@<TRIPOS>BOND
     1    43    42    2
     2    42    41    1
     3    40    41    1
     4    41    44    1
     5     8     9    1
     6    44    45    1
     7     9    10    1
     8     9    12    1
     9    13    12    1
    10    10    11    2
    11    45    46    1
    12     7     5    1
    13    47    46   ar
    14    46    48   ar
    15     5     2    1
    16     5     6    1
    17     2     3    1
    18     2     1    1
    19     3     4    2
    20    91    90   ar
    21    67    66    1
    22    92    90   ar
    23    14    15    1
    24    90    89    1
    25    23    21   ar
    26    23    24   ar
    27    21    19   ar
    28    66    65   ar
    29    66    64   ar
    30    25    24    1
    31    54    55    1
    32    54    53    1
    33    24    22   ar
    34    65    63   ar
    35    15    18    1
    36    15    16    1
    37    89    88    1
    38    64    62   ar
    39    19    18    1
    40    19    20   ar
    41    55    49    1
    42    17    16    2
    43    53    50    1
    44    88    85    1
    45    22    20   ar
    46    63    61   ar
    47    87    86    2
    48    62    61   ar
    49    49    50    1
    50    61    60    1
    51    86    85    1
    52    50    51    1
    53    85    84    1
    54    51    56   am
    55    51    52    2
    56    56    57    1
    57    60    57    1
    58    57    58    1
    59    26    27    1
    60    30    27    1
    61    30    31    1
    62    80    79    2
    63    27    28    1
    64    31    32   ar
    65    31    33   ar
    66    58    59    2
    67    58    68   am
    68    29    28    2
    69    79    78    1
    70    32    34   ar
    71    36    33   ar
    72    36    38   ar
    73    33    35   ar
    74    68    69    1
    75    34    35   ar
    76    38    39   ar
    77    35    37   ar
    78    77    78    1
    79    77    70   am
    80    78    81    1
    81    39    37   ar
    82    69    70    1
    83    69    72    1
    84    70    71    2
    85    81    83    1
    86    81    82    1
    87    72    73    1
    88    73    74    1
    89    75    74    2
    90    74    76   am
