@<TRIPOS>MOLECULE
tmp/3gsgA00.pdb
 124 115 0 0 0
SMALL
GASTEIGER

@<TRIPOS>ATOM
      1  N        -32.7530    1.2040   15.9890 N.3    61  SER61      -0.1217
      2  CA       -31.4010    1.6910   16.3260 C.3    61  SER61       0.1889
      3  C        -30.5270    0.7550   17.1410 C.2    61  SER61       0.2288
      4  O        -29.3260    0.9940   17.2580 O.2    61  SER61      -0.2866
      5  CB       -31.4870    3.0100   17.0670 C.3    61  SER61       0.2089
      6  OG       -31.9890    4.0110   16.2020 O.3    61  SER61      -0.2183
      7  N        -30.1910   13.8950   12.1110 N.3   116  LEU116     -0.1231
      8  CA       -30.6950   12.6180   12.6280 C.3   116  LEU116      0.1693
      9  C        -31.0000   11.6210   11.5120 C.2   116  LEU116      0.2591
     10  O        -30.6680   10.4410   11.6230 O.2   116  LEU116     -0.2718
     11  CB       -31.9270   12.8200   13.5190 C.3   116  LEU116      0.0284
     12  CG       -32.6420   11.5560   14.0240 C.3   116  LEU116      0.0019
     13  CD1      -31.7370   10.7110   14.9050 C.3   116  LEU116      0.0001
     14  CD2      -33.9220   11.9060   14.7680 C.3   116  LEU116      0.0001
     15  N        -31.6270   12.1060   10.4460 N.am  117  GLN117     -0.1979
     16  CA       -32.0170   11.2690    9.3280 C.3   117  GLN117      0.1601
     17  C        -31.3970   11.7750    8.0300 C.2   117  GLN117      0.2287
     18  O        -31.2300   12.9800    7.8430 O.2   117  GLN117     -0.2864
     19  CB       -33.5470   11.2360    9.1750 C.3   117  GLN117      0.0394
     20  CG       -34.3570   10.9690   10.4600 C.3   117  GLN117      0.0908
     21  CD       -35.1990   12.1690   10.9090 C.2   117  GLN117      0.2608
     22  OE1      -34.8620   13.3210   10.6370 O.2   117  GLN117     -0.2717
     23  NE2      -36.3000   11.8940   11.6050 N.am  117  GLN117     -0.0878
     24  N        -26.8360   12.7170   18.1930 N.3   147  TYR147     -0.1241
     25  CA       -27.2790   11.4120   17.7010 C.3   147  TYR147      0.1605
     26  C        -27.8010   11.5300   16.2780 C.2   147  TYR147      0.2264
     27  O        -28.6370   12.3890   15.9850 O.2   147  TYR147     -0.2867
     28  CB       -28.3670   10.8650   18.6130 C.3   147  TYR147      0.0534
     29  CG       -28.7770    9.4370   18.3440 C.ar  147  TYR147     -0.0201
     30  CD1      -29.9620    9.1510   17.6630 C.ar  147  TYR147     -0.0009
     31  CD2      -28.0010    8.3730   18.8000 C.ar  147  TYR147     -0.0009
     32  CE1      -30.3610    7.8270   17.4270 C.ar  147  TYR147      0.0417
     33  CE2      -28.3820    7.0540   18.5670 C.ar  147  TYR147      0.0417
     34  CZ       -29.5620    6.7890   17.8830 C.ar  147  TYR147      0.1957
     35  OH       -29.9410    5.4900   17.6630 O.3   147  TYR147     -0.2866
     36  N        -28.4110    9.1310   12.4840 N.3   149  ASN149     -0.1240
     37  CA       -28.3300    7.9930   11.5700 C.3   149  ASN149      0.1653
     38  C        -27.4090    8.2590   10.3860 C.2   149  ASN149      0.2266
     39  O        -26.7430    7.3500    9.9160 O.2   149  ASN149     -0.2867
     40  CB       -29.7160    7.5940   11.0640 C.3   149  ASN149      0.1155
     41  CG       -30.6200    7.0990   12.1760 C.2   149  ASN149      0.2627
     42  OD1      -30.3090    6.1200   12.8470 O.2   149  ASN149     -0.2716
     43  ND2      -31.7450    7.7790   12.3800 N.am  149  ASN149     -0.0877
     44  N        -40.8590   -1.2990    8.5510 N.3   208  VAL208     -0.1245
     45  CA       -39.9310   -0.2140    8.2140 C.3   208  VAL208      0.1561
     46  C        -39.8600   -0.0360    6.6840 C.2   208  VAL208      0.2260
     47  O        -39.8850   -1.0190    5.9380 O.2   208  VAL208     -0.2867
     48  CB       -38.5200   -0.4410    8.8780 C.3   208  VAL208      0.0252
     49  CG1      -37.8200   -1.6810    8.3150 C.3   208  VAL208      0.0019
     50  CG2      -37.6350    0.7920    8.7550 C.3   208  VAL208      0.0019
     51  N        -30.4720    1.4230   11.2190 N.3   218  TYR218     -0.1241
     52  CA       -31.7370    0.9890   11.8490 C.3   218  TYR218      0.1605
     53  C        -32.4180   -0.2400   11.2200 C.2   218  TYR218      0.2264
     54  O        -33.6080   -0.4830   11.4560 O.2   218  TYR218     -0.2867
     55  CB       -32.7360    2.1600   11.9120 C.3   218  TYR218      0.0534
     56  CG       -33.0790    2.7860   10.5640 C.ar  218  TYR218     -0.0201
     57  CD1      -34.1240    2.2870    9.7840 C.ar  218  TYR218     -0.0009
     58  CD2      -32.3670    3.8880   10.0800 C.ar  218  TYR218     -0.0009
     59  CE1      -34.4470    2.8540    8.5510 C.ar  218  TYR218      0.0417
     60  CE2      -32.6810    4.4640    8.8430 C.ar  218  TYR218      0.0417
     61  CZ       -33.7290    3.9420    8.0880 C.ar  218  TYR218      0.1957
     62  OH       -34.0500    4.4960    6.8630 O.3   218  TYR218     -0.2866
     63  N        -29.3760   10.9430   22.4630 N.3   286  ASN286     -0.1240
     64  CA       -30.6720   11.5280   22.1380 C.3   286  ASN286      0.1653
     65  C        -30.9660   12.7740   22.9660 C.2   286  ASN286      0.2266
     66  O        -30.8600   13.8970   22.4730 O.2   286  ASN286     -0.2867
     67  CB       -30.7520   11.8560   20.6460 C.3   286  ASN286      0.1155
     68  CG       -32.0450   11.3820   20.0130 C.2   286  ASN286      0.2627
     69  OD1      -32.0780   10.3560   19.3340 O.2   286  ASN286     -0.2716
     70  ND2      -33.1210   12.1290   20.2340 N.am  286  ASN286     -0.0877
     71  N        -33.8930   12.5060   23.5520 N.3   288  ILE288     -0.1245
     72  CA       -35.2490   12.2650   23.0730 C.3   288  ILE288      0.1561
     73  C        -36.2560   13.1540   23.7940 C.2   288  ILE288      0.2260
     74  O        -36.5410   12.9530   24.9750 O.2   288  ILE288     -0.2867
     75  CB       -35.6570   10.7910   23.2530 C.3   288  ILE288      0.0252
     76  CG1      -36.8180   10.4420   22.3200 C.3   288  ILE288      0.0019
     77  CG2      -36.0280   10.5140   24.7010 C.3   288  ILE288      0.0019
     78  CD1      -36.7260    9.0550   21.7220 C.3   288  ILE288      0.0001
     79  N        -31.0810    1.8020   23.1130 N.3   313  THR313     -0.1203
     80  CA       -32.4980    1.8650   22.7920 C.3   313  THR313      0.1994
     81  C        -32.6500    1.8810   21.2700 C.2   313  THR313      0.2618
     82  O        -31.7520    2.3410   20.5520 O.2   313  THR313     -0.2717
     83  CB       -33.1610    3.1220   23.4260 C.3   313  THR313      0.1784
     84  OG1      -34.5780    2.9380   23.4930 O.3   313  THR313     -0.2211
     85  CG2      -32.8560    4.3880   22.6210 C.3   313  THR313      0.0376
     86  N        -33.7770    1.3740   20.7790 N.am  314  GLY314     -0.1942
     87  CA       -34.0400    1.3510   19.3360 C.3   314  GLY314      0.2014
     88  C        -35.5170    1.3690   18.9900 C.2   314  GLY314      0.2639
     89  O        -36.3120    0.7110   19.6490 O.2   314  GLY314     -0.2714
     90  N        -35.8770    2.1150   17.9490 N.am  315  ALA315     -0.1963
     91  CA       -37.2540    2.1670   17.4650 C.3   315  ALA315      0.1728
     92  C        -37.3220    2.1890   15.9430 C.2   315  ALA315      0.2617
     93  O        -36.3600    2.5670   15.2720 O.2   315  ALA315     -0.2715
     94  CB       -37.9690    3.3980   18.0280 C.3   315  ALA315      0.0334
     95  N        -38.4590    1.7470   15.4120 N.am  316  THR316     -0.1937
     96  CA       -38.9090    2.1080   14.0690 C.3   316  THR316      0.2028
     97  C        -40.3310    2.6270   14.2670 C.2   316  THR316      0.2642
     98  O        -40.7980    2.7050   15.4040 O.2   316  THR316     -0.2714
     99  CB       -38.9320    0.9090   13.1020 C.3   316  THR316      0.1808
    100  OG1      -39.8140   -0.0950   13.6150 O.3   316  THR316     -0.2208
    101  CG2      -37.5440    0.3090   12.9290 C.3   316  THR316      0.0379
    102  N        -41.0180    2.9780   13.1800 N.am  317  GLY317     -0.1954
    103  CA       -42.4050    3.4490   13.2480 C.3   317  GLY317      0.1869
    104  C        -43.3340    2.5530   14.0610 C.2   317  GLY317      0.2309
    105  O        -44.1830    3.0540   14.8160 O.2   317  GLY317     -0.2863
    106  N        -43.7740    1.0740   19.0680 N.3   340  ASN340     -0.1240
    107  CA       -42.8050    2.0730   19.5200 C.3   340  ASN340      0.1653
    108  C        -43.3480    2.8340   20.7410 C.2   340  ASN340      0.2266
    109  O        -44.0430    3.8400   20.5960 O.2   340  ASN340     -0.2867
    110  CB       -42.4480    3.0430   18.3780 C.3   340  ASN340      0.1155
    111  CG       -41.4240    4.1180   18.7970 C.2   340  ASN340      0.2627
    112  OD1      -40.9140    4.1110   19.9160 O.2   340  ASN340     -0.2716
    113  ND2      -41.1220    5.0380   17.8830 N.am  340  ASN340     -0.0877
    114  N        -39.0920    1.7080   28.9110 N.3   346  ARG346     -0.1245
    115  CA       -38.2840    0.5130   28.6530 C.3   346  ARG346      0.1563
    116  C        -37.1450    0.4490   29.6440 C.2   346  ARG346      0.2260
    117  O        -36.9150   -0.5870   30.2670 O.2   346  ARG346     -0.2867
    118  CB       -37.7020    0.5060   27.2350 C.3   346  ARG346      0.0307
    119  CG       -38.5950    1.0870   26.1770 C.3   346  ARG346      0.0489
    120  CD       -38.0040    0.8780   24.7950 C.3   346  ARG346      0.2205
    121  NE       -38.7200    1.6920   23.8280 N.pl3 346  ARG346     -0.0865
    122  CZ       -38.2810    1.9820   22.6110 C.cat 346  ARG346      0.5346
    123  NH1      -37.1110    1.5130   22.1810 N.pl3 346  ARG346      0.1354
    124  NH2      -39.0220    2.7430   21.8220 N.pl3 346  ARG346      0.1354
@<TRIPOS>BOND
     1    47    46    2
     2    46    45    1
     3    62    61    1
     4    18    17    2
     5    17    16    1
     6    61    59   ar
     7    61    60   ar
     8    45    44    1
     9    45    48    1
    10    49    48    1
    11    59    57   ar
    12    50    48    1
    13    60    58   ar
    14    19    16    1
    15    19    20    1
    16    16    15    1
    17    57    56   ar
    18    39    38    2
    19    58    56   ar
    20    38    37    1
    21    15     9   am
    22    20    21    1
    23    56    55    1
    24    22    21    2
    25    21    23   am
    26    40    37    1
    27    40    41    1
    28    51    52    1
    29    53    54    2
    30    53    52    1
    31     9    10    2
    32     9     8    1
    33    37    36    1
    34    52    55    1
    35     7     8    1
    36    41    43   am
    37    41    42    2
    38     8    11    1
    39   101    99    1
    40    99   100    1
    41    99    96    1
    42   102   103    1
    43   102    97   am
    44   103   104    1
    45    11    12    1
    46    12    14    1
    47    12    13    1
    48   104   105    2
    49    96    97    1
    50    96    95    1
    51    97    98    2
    52    93    92    2
    53    95    92   am
    54    92    91    1
    55    27    26    2
    56     1     2    1
    57     6     5    1
    58    26    25    1
    59     2     5    1
    60     2     3    1
    61     3     4    2
    62    32    30   ar
    63    32    34   ar
    64    91    90    1
    65    91    94    1
    66    35    34    1
    67    30    29   ar
    68    25    24    1
    69    25    28    1
    70    34    33   ar
    71   113   111   am
    72    90    88   am
    73    29    28    1
    74    29    31   ar
    75   110   111    1
    76   110   107    1
    77    33    31   ar
    78   111   112    2
    79    88    87    1
    80    88    89    2
    81   106   107    1
    82    69    68    2
    83    87    86    1
    84   107   108    1
    85    68    70   am
    86    68    67    1
    87    82    81    2
    88   109   108    2
    89    67    64    1
    90    86    81   am
    91    81    80    1
    92    78    76    1
    93   124   122    1
    94    64    63    1
    95    64    65    1
    96   123   122    1
    97    76    75    1
    98    66    65    2
    99   122   121    2
   100    85    83    1
   101    80    79    1
   102    80    83    1
   103    72    75    1
   104    72    71    1
   105    72    73    1
   106    75    77    1
   107    83    84    1
   108    73    74    2
   109   121   120    1
   110   120   119    1
   111   119   118    1
   112   118   115    1
   113   115   114    1
   114   115   116    1
   115   116   117    2
