@<TRIPOS>MOLECULE
tmp/3gshA01.pdb
 143 133 0 0 0
SMALL
GASTEIGER

@<TRIPOS>ATOM
      1  N          7.5930   12.0680   27.3910 N.3     3  CYS3       -0.1235
      2  CA         8.0050   10.8600   26.6450 C.3     3  CYS3        0.1677
      3  C          7.5780    9.5490   27.3280 C.2     3  CYS3        0.2270
      4  O          7.4620    8.5120   26.6820 O.2     3  CYS3       -0.2867
      5  CB         9.4810   10.8630   26.3200 C.3     3  CYS3        0.0956
      6  SG        10.0450   12.3670   25.3990 S.3     3  CYS3       -0.0801
      7  N          5.9920    6.6980   25.1660 N.3     7  ASP7       -0.1239
      8  CA         6.4530    5.3290   25.0730 C.3     7  ASP7        0.1674
      9  C          5.2770    4.4790   25.5320 C.2     7  ASP7        0.2266
     10  O          4.9220    3.4230   24.9790 O.2     7  ASP7       -0.2867
     11  CB         7.4140    5.3080   26.2400 C.3     7  ASP7        0.1410
     12  CG         7.8610    3.8670   26.2460 C.2     7  ASP7        0.3668
     13  OD1        7.2680    3.1260   26.9880 O.co2   7  ASP7       -0.2456
     14  OD2        9.0110    3.5730   25.4280 O.co2   7  ASP7       -0.2456
     15  N          2.5590    3.8940   22.8980 N.3    10  MET10      -0.1230
     16  CA         3.1540    3.1220   21.7730 C.3    10  MET10       0.1702
     17  C          3.6350    1.6950   22.1160 C.2    10  MET10       0.2592
     18  O          4.0320    0.9400   21.2280 O.2    10  MET10      -0.2718
     19  CB         4.2950    3.8870   21.0980 C.3    10  MET10       0.0401
     20  CG         3.9440    5.2420   20.5450 C.3    10  MET10       0.0596
     21  SD         2.9080    5.1470   19.0700 S.3    10  MET10      -0.1393
     22  CE         3.9580    4.3270   17.8680 C.3    10  MET10       0.0692
     23  N          3.6370    1.3190   23.3970 N.am   11  LYS11      -0.1980
     24  CA         4.1150   -0.0240   23.7840 C.3    11  LYS11       0.1596
     25  C          3.4970   -1.2100   22.9730 C.2    11  LYS11       0.2287
     26  O          4.1850   -2.1920   22.6430 O.2    11  LYS11      -0.2864
     27  CB         3.9060   -0.2370   25.2990 C.3    11  LYS11       0.0298
     28  CG         4.8190    0.6450   26.1500 C.3    11  LYS11       0.0038
     29  CD         5.4040   -0.1090   27.3510 C.3    11  LYS11       0.0206
     30  CE         4.8200    0.3720   28.6560 C.3    11  LYS11       0.1093
     31  NZ         5.7940    0.2300   29.8060 N.3    11  LYS11      -0.1314
     32  N          3.0620   -1.3670   20.0160 N.3    13  CYS13      -0.1221
     33  CA         3.7310   -1.4490   18.7230 C.3    13  CYS13       0.1808
     34  C          5.1300   -2.0870   18.7780 C.2    13  CYS13       0.2601
     35  O          5.7740   -2.2850   17.7530 O.2    13  CYS13      -0.2717
     36  CB         3.8410   -0.0740   18.0650 C.3    13  CYS13       0.0970
     37  SG         2.2950    0.8080   17.9030 S.3    13  CYS13      -0.0800
     38  N          5.5860   -2.3960   19.9800 N.am   14  LEU14      -0.1979
     39  CA         6.9490   -2.8270   20.1950 C.3    14  LEU14       0.1596
     40  C          7.2990   -4.0550   19.3630 C.2    14  LEU14       0.2287
     41  O          8.2950   -4.0430   18.6760 O.2    14  LEU14      -0.2864
     42  CB         7.2080   -3.1010   21.6840 C.3    14  LEU14       0.0297
     43  CG         8.6340   -3.5090   22.0640 C.3    14  LEU14       0.0022
     44  CD1        9.6810   -2.5000   21.5700 C.3    14  LEU14       0.0001
     45  CD2        8.7460   -3.6270   23.5780 C.3    14  LEU14       0.0001
     46  N          7.6250   -3.1280   15.5920 N.3    17  VAL17      -0.1245
     47  CA         8.8510   -2.3600   15.2880 C.3    17  VAL17       0.1561
     48  C         10.1770   -3.1150   15.5530 C.2    17  VAL17       0.2260
     49  O         11.2550   -2.6130   15.2490 O.2    17  VAL17      -0.2867
     50  CB         8.8500   -0.9740   15.9600 C.3    17  VAL17       0.0252
     51  CG1        7.5820   -0.2070   15.5280 C.3    17  VAL17       0.0019
     52  CG2        9.0060   -1.0940   17.5350 C.3    17  VAL17       0.0019
     53  N         10.0930   14.4540   18.9870 N.3    49  ASN49      -0.1225
     54  CA        11.3750   14.2240   19.6190 C.3    49  ASN49       0.1785
     55  C         11.3200   13.0110   20.5420 C.2    49  ASN49       0.2597
     56  O         12.2630   12.2250   20.5770 O.2    49  ASN49      -0.2718
     57  CB        11.9160   15.4860   20.3250 C.3    49  ASN49       0.1169
     58  CG        12.6060   16.4420   19.3650 C.2    49  ASN49       0.2627
     59  OD1       13.4290   16.0470   18.5450 O.2    49  ASN49      -0.2716
     60  ND2       12.2600   17.6970   19.4620 N.am   49  ASN49      -0.0877
     61  N         10.2260   12.8270   21.2840 N.am   50  CYS50      -0.1956
     62  CA        10.0760   11.5600   22.0320 C.3    50  CYS50       0.1843
     63  C         10.1710   10.3130   21.1470 C.2    50  CYS50       0.2625
     64  O         10.8300    9.3510   21.4920 O.2    50  CYS50      -0.2714
     65  CB         8.7500   11.4880   22.7950 C.3    50  CYS50       0.0997
     66  SG         8.5630   12.7480   24.0800 S.3    50  CYS50      -0.0797
     67  N          9.5010   10.3230   20.0000 N.am   51  LEU51      -0.1977
     68  CA         9.5190    9.1280   19.1620 C.3    51  LEU51       0.1596
     69  C         10.9070    8.8830   18.5600 C.2    51  LEU51       0.2287
     70  O         11.2790    7.7360   18.2920 O.2    51  LEU51      -0.2864
     71  CB         8.4470    9.2270   18.0540 C.3    51  LEU51       0.0297
     72  CG         6.9650    9.1060   18.4550 C.3    51  LEU51       0.0022
     73  CD1        6.0000    9.4030   17.2740 C.3    51  LEU51       0.0001
     74  CD2        6.6480    7.7200   19.0720 C.3    51  LEU51       0.0001
     75  N         13.8280    9.6370   19.9500 N.3    53  GLY53      -0.1210
     76  CA        14.6780    9.0720   20.9960 C.3    53  GLY53       0.1956
     77  C         14.2950    7.6370   21.3230 C.2    53  GLY53       0.2612
     78  O         15.1500    6.7690   21.5510 O.2    53  GLY53      -0.2717
     79  N         12.9970    7.3620   21.3340 N.am   54  ILE54      -0.1965
     80  CA        12.5150    6.0100   21.5830 C.3    54  ILE54       0.1727
     81  C         12.9490    5.0740   20.4610 C.2    54  ILE54       0.2616
     82  O         13.3990    3.9630   20.7350 O.2    54  ILE54      -0.2715
     83  CB        10.9760    5.9660   21.7920 C.3    54  ILE54       0.0290
     84  CG1       10.6500    6.4350   23.2060 C.3    54  ILE54       0.0022
     85  CG2       10.4430    4.5300   21.6480 C.3    54  ILE54       0.0023
     86  CD1        9.3010    7.0930   23.3830 C.3    54  ILE54       0.0001
     87  N         12.8410    5.5210   19.2080 N.am   55  ALA55      -0.1963
     88  CA        13.2830    4.7340   18.0500 C.3    55  ALA55       0.1728
     89  C         14.7570    4.3730   18.2230 C.2    55  ALA55       0.2616
     90  O         15.2030    3.2400   17.9580 O.2    55  ALA55      -0.2715
     91  CB        13.0970    5.5360   16.7580 C.3    55  ALA55       0.0334
     92  N         15.5070    5.3670   18.6620 N.am   56  ARG56      -0.1963
     93  CA        16.9160    5.1890   18.9890 C.3    56  ARG56       0.1729
     94  C         17.1830    4.1550   20.1000 C.2    56  ARG56       0.2617
     95  O         18.1960    3.4670   20.0500 O.2    56  ARG56      -0.2715
     96  CB        17.5100    6.5390   19.3770 C.3    56  ARG56       0.0348
     97  CG        17.9290    7.3730   18.2070 C.3    56  ARG56       0.0492
     98  CD        18.4840    8.7160   18.6590 C.3    56  ARG56       0.2205
     99  NE        19.5620    8.5240   19.6290 N.pl3  56  ARG56      -0.0865
    100  CZ        19.7670    9.2760   20.7040 C.cat  56  ARG56       0.5346
    101  NH1       18.9680   10.3150   20.9820 N.pl3  56  ARG56       0.1354
    102  NH2       20.7760    8.9770   21.5130 N.pl3  56  ARG56       0.1354
    103  N         16.3050    4.0570   21.0950 N.am   57  GLY57      -0.1940
    104  CA        16.5300    3.1790   22.2730 C.3    57  GLY57       0.2014
    105  C         15.9770    1.7660   22.1330 C.2    57  GLY57       0.2638
    106  O         16.0290    0.9470   23.0630 O.2    57  GLY57      -0.2714
    107  N         15.3950    1.4750   20.9770 N.am   58  ILE58      -0.1977
    108  CA        14.8240    0.1550   20.7730 C.3    58  ILE58       0.1596
    109  C         15.8630   -0.7670   20.1150 C.2    58  ILE58       0.2287
    110  O         16.3970   -0.4840   19.0530 O.2    58  ILE58      -0.2864
    111  CB        13.4830    0.1990   20.0150 C.3    58  ILE58       0.0276
    112  CG1       12.4220    0.8100   20.9460 C.3    58  ILE58       0.0022
    113  CG2       13.0480   -1.2350   19.6320 C.3    58  ILE58       0.0022
    114  CD1       11.0260    0.9560   20.3460 C.3    58  ILE58       0.0001
    115  N         15.7210   -2.4410   16.0000 N.3    61  LEU61      -0.1245
    116  CA        14.6390   -1.7090   15.3630 C.3    61  LEU61       0.1561
    117  C         14.5420   -2.1090   13.9110 C.2    61  LEU61       0.2260
    118  O         15.5510   -2.1390   13.1800 O.2    61  LEU61      -0.2867
    119  CB        14.8810   -0.1920   15.4810 C.3    61  LEU61       0.0270
    120  CG        13.7640    0.6920   14.8820 C.3    61  LEU61       0.0019
    121  CD1       12.4230    0.6300   15.6510 C.3    61  LEU61       0.0001
    122  CD2       14.2000    2.1690   14.7260 C.3    61  LEU61       0.0001
    123  N          8.6740    0.3410   11.6190 N.3    66  ALA66      -0.1245
    124  CA         8.5540    1.6360   12.3390 C.3    66  ALA66       0.1562
    125  C          8.0370    2.7400   11.4140 C.2    66  ALA66       0.2260
    126  O          7.1040    3.4430   11.7830 O.2    66  ALA66      -0.2867
    127  CB         9.8920    2.0430   12.9990 C.3    66  ALA66       0.0290
    128  N          4.0650    2.6160   10.3920 N.3    69  ILE69      -0.1245
    129  CA         2.9350    2.7040   11.3310 C.3    69  ILE69       0.1561
    130  C          1.8300    3.7180   10.9340 C.2    69  ILE69       0.2260
    131  O          0.6410    3.3300   10.8580 O.2    69  ILE69      -0.2867
    132  CB         3.4010    2.8640   12.8050 C.3    69  ILE69       0.0252
    133  CG1        4.0810    1.5660   13.2710 C.3    69  ILE69       0.0019
    134  CG2        2.1940    3.2000   13.7060 C.3    69  ILE69       0.0019
    135  CD1        4.8490    1.7240   14.6360 C.3    69  ILE69       0.0001
    136  N          8.5370    8.0780   11.1300 N.3    81  ILE81      -0.1245
    137  CA         9.1350    7.5330   12.3480 C.3    81  ILE81       0.1561
    138  C         10.4660    6.7640   12.0610 C.2    81  ILE81       0.2260
    139  O         10.4790    5.7940   11.3260 O.2    81  ILE81      -0.2867
    140  CB         8.0940    6.6680   13.1270 C.3    81  ILE81       0.0252
    141  CG1        6.9120    7.5840   13.5860 C.3    81  ILE81       0.0019
    142  CG2        8.7370    5.9920   14.2850 C.3    81  ILE81       0.0019
    143  CD1        5.6360    6.8070   14.0290 C.3    81  ILE81       0.0001
@<TRIPOS>BOND
     1   128   129    1
     2   131   130    2
     3   130   129    1
     4   136   137    1
     5   139   138    2
     6   129   132    1
     7   125   126    2
     8   125   124    1
     9   123   124    1
    10   138   137    1
    11   124   127    1
    12   137   140    1
    13   132   133    1
    14   132   134    1
    15   140   141    1
    16   140   142    1
    17   118   117    2
    18   133   135    1
    19   141   143    1
    20   117   116    1
    21   122   120    1
    22   120   119    1
    23   120   121    1
    24    49    48    2
    25    47    48    1
    26    47    46    1
    27    47    50    1
    28   116   119    1
    29   116   115    1
    30    51    50    1
    31    50    52    1
    32    91    88    1
    33    73    72    1
    34    35    34    2
    35    22    21    1
    36    37    36    1
    37    90    89    2
    38    88    89    1
    39    88    87    1
    40    71    72    1
    41    71    68    1
    42    36    33    1
    43    97    98    1
    44    97    96    1
    45    89    92   am
    46    70    69    2
    47    72    74    1
    48    59    58    2
    49    69    68    1
    50    98    99    1
    51    92    93    1
    52    41    40    2
    53    33    34    1
    54    33    32    1
    55    34    38   am
    56    53    54    1
    57    93    96    1
    58    93    94    1
    59   110   109    2
    60    21    20    1
    61    68    67    1
    62    87    81   am
    63    40    39    1
    64    58    60   am
    65    58    57    1
    66    54    57    1
    67    54    55    1
    68    99   100    2
    69   113   111    1
    70    75    76    1
    71    38    39    1
    72    67    63   am
    73   111   108    1
    74   111   112    1
    75    95    94    2
    76    94   103   am
    77   109   108    1
    78    39    42    1
    79   114   112    1
    80    81    82    2
    81    81    80    1
    82    55    56    2
    83    55    61   am
    84    20    19    1
    85   100   101    1
    86   100   102    1
    87   108   107    1
    88   107   105   am
    89    76    77    1
    90   103   104    1
    91    19    16    1
    92    63    64    2
    93    63    62    1
    94    18    17    2
    95    61    62    1
    96    77    79   am
    97    77    78    2
    98    79    80    1
    99    44    43    1
   100    80    83    1
   101    85    83    1
   102    42    43    1
   103    16    17    1
   104    16    15    1
   105    83    84    1
   106    62    65    1
   107    43    45    1
   108    17    23   am
   109   105   104    1
   110   105   106    2
   111    26    25    2
   112    65    66    1
   113    25    24    1
   114    84    86    1
   115    23    24    1
   116    24    27    1
   117    66     6    1
   118    10     9    2
   119     8     7    1
   120     8     9    1
   121     8    11    1
   122    27    28    1
   123     6     5    1
   124    14    12   ar
   125    28    29    1
   126    11    12    1
   127    12    13   ar
   128     5     2    1
   129     2     3    1
   130     2     1    1
   131     4     3    2
   132    29    30    1
   133    30    31    1
