@<TRIPOS>MOLECULE
tmp/3gshA00.pdb
 82 78 0 0 0
SMALL
GASTEIGER

@<TRIPOS>ATOM
      1  N         -1.0670    4.8050   18.5180 N.3    31  VAL31      -0.1245
      2  CA        -0.6970    5.9650   17.6820 C.3    31  VAL31       0.1561
      3  C         -1.8240    6.9960   17.4300 C.2    31  VAL31       0.2260
      4  O         -1.5650    8.1860   17.4220 O.2    31  VAL31      -0.2867
      5  CB        -0.0600    5.5410   16.3310 C.3    31  VAL31       0.0252
      6  CG1       -1.0700    4.8600   15.4200 C.3    31  VAL31       0.0019
      7  CG2        0.5890    6.7450   15.6370 C.3    31  VAL31       0.0019
      8  N         -2.2630    9.1900   20.4330 N.3    34  LEU34      -0.1231
      9  CA        -1.2230   10.2060   20.4350 C.3    34  LEU34       0.1693
     10  C         -1.5110   11.3430   19.4710 C.2    34  LEU34       0.2592
     11  O         -1.3640   12.5170   19.7820 O.2    34  LEU34      -0.2718
     12  CB         0.0990    9.5600   20.0170 C.3    34  LEU34       0.0284
     13  CG         0.9240    8.9670   21.1500 C.3    34  LEU34       0.0019
     14  CD1        2.2700    8.4980   20.6360 C.3    34  LEU34       0.0001
     15  CD2        1.1150   10.0150   22.2070 C.3    34  LEU34       0.0001
     16  N         -1.9520   10.9770   18.2750 N.am   35  HIS35      -0.1976
     17  CA        -2.3040   11.9870   17.2940 C.3    35  HIS35       0.1656
     18  C         -3.3870   12.9550   17.7940 C.2    35  HIS35       0.2291
     19  O         -3.2940   14.1750   17.5780 O.2    35  HIS35      -0.2864
     20  CB        -2.7850   11.2890   16.0360 C.3    35  HIS35       0.0771
     21  CG        -3.1260   12.2290   14.9460 C.ar   35  HIS35       0.0820
     22  ND1       -2.1830   12.9940   14.3040 N.ar   35  HIS35      -0.2267
     23  CD2       -4.3220   12.5310   14.3740 C.ar   35  HIS35       0.1154
     24  CE1       -2.7740   13.6950   13.3480 C.ar   35  HIS35       0.1986
     25  NE2       -4.0690   13.4370   13.3780 N.ar   35  HIS35      -0.2212
     26  N         -2.0470   15.1990   20.5010 N.3    38  ALA38      -0.1245
     27  CA        -1.0570   16.1840   20.0170 C.3    38  ALA38       0.1562
     28  C         -1.6560   17.2640   19.0900 C.2    38  ALA38       0.2260
     29  O         -1.2940   17.3560   17.9120 O.2    38  ALA38      -0.2867
     30  CB         0.1150   15.4800   19.3180 C.3    38  ALA38       0.0290
     31  N          3.0930   18.5590   18.9490 N.3    44  ARG44      -0.1245
     32  CA         3.6030   17.7620   17.8250 C.3    44  ARG44       0.1563
     33  C          5.1250   17.6850   17.9000 C.2    44  ARG44       0.2260
     34  O          5.6940   16.6120   17.7020 O.2    44  ARG44      -0.2867
     35  CB         3.1290   18.3300   16.4650 C.3    44  ARG44       0.0307
     36  CG         1.6260   18.2510   16.2740 C.3    44  ARG44       0.0489
     37  CD         1.2280   18.5590   14.8370 C.3    44  ARG44       0.2205
     38  NE         1.3010   19.9850   14.5740 N.pl3  44  ARG44      -0.0865
     39  CZ         0.2370   20.7700   14.4390 C.cat  44  ARG44       0.5346
     40  NH1       -0.9890   20.2580   14.5000 N.pl3  44  ARG44       0.1354
     41  NH2        0.4050   22.0610   14.2220 N.pl3  44  ARG44       0.1354
     42  N          6.1890   15.2900   20.8820 N.3    47  VAL47      -0.1245
     43  CA         5.9130   13.8880   20.5480 C.3    47  VAL47       0.1561
     44  C          6.9180   13.3810   19.5030 C.2    47  VAL47       0.2260
     45  O          7.3980   12.2790   19.6360 O.2    47  VAL47      -0.2867
     46  CB         4.4720   13.6910   20.0530 C.3    47  VAL47       0.0252
     47  CG1        4.2970   12.3150   19.4370 C.3    47  VAL47       0.0019
     48  CG2        3.4480   13.9090   21.2230 C.3    47  VAL47       0.0019
     49  N          9.5010   10.3230   20.0000 N.3    51  LEU51      -0.1245
     50  CA         9.5190    9.1280   19.1620 C.3    51  LEU51       0.1561
     51  C         10.9070    8.8830   18.5600 C.2    51  LEU51       0.2260
     52  O         11.2790    7.7360   18.2920 O.2    51  LEU51      -0.2867
     53  CB         8.4470    9.2270   18.0540 C.3    51  LEU51       0.0270
     54  CG         6.9650    9.1060   18.4550 C.3    51  LEU51       0.0019
     55  CD1        6.0000    9.4030   17.2740 C.3    51  LEU51       0.0001
     56  CD2        6.6480    7.7200   19.0720 C.3    51  LEU51       0.0001
     57  N          0.4010   11.1450   10.9290 N.3    77  VAL77      -0.1231
     58  CA         1.6610   11.6220   11.5170 C.3    77  VAL77       0.1678
     59  C          2.4930   12.4450   10.4950 C.2    77  VAL77       0.2434
     60  O          2.7750   11.9800    9.3830 O.2    77  VAL77      -0.2733
     61  CB         2.4860   10.4310   12.1170 C.3    77  VAL77       0.0265
     62  CG1        3.6970   10.9480   12.8580 C.3    77  VAL77       0.0020
     63  CG2        1.6160    9.6170   13.0570 C.3    77  VAL77       0.0020
     64  N          2.8860   13.6780   10.8650 N.am   78  PRO78      -0.2718
     65  CA         3.5050   14.6060    9.8900 C.3    78  PRO78       0.1535
     66  C          5.0140   14.4710    9.6640 C.2    78  PRO78       0.2598
     67  O          5.6980   15.4580    9.3850 O.2    78  PRO78      -0.2715
     68  CB         3.1450   15.9780   10.4580 C.3    78  PRO78       0.0310
     69  CG         3.1280   15.7350   11.9820 C.3    78  PRO78       0.0237
     70  CD         2.6550   14.3140   12.1810 C.3    78  PRO78       0.0939
     71  N          5.5260   13.2460    9.7700 N.am   79  TYR79      -0.1974
     72  CA         6.9280   12.9470    9.5900 C.3    79  TYR79       0.1639
     73  C          7.0270   11.4420    9.6110 C.2    79  TYR79       0.2290
     74  O          6.0490   10.7650    9.9030 O.2    79  TYR79      -0.2864
     75  CB         7.8010   13.5240   10.7100 C.3    79  TYR79       0.0560
     76  CG         7.2420   13.2470   12.1020 C.ar   79  TYR79      -0.0198
     77  CD1        7.5440   12.0600   12.7800 C.ar   79  TYR79      -0.0009
     78  CD2        6.4400   14.1920   12.7460 C.ar   79  TYR79      -0.0009
     79  CE1        7.0240   11.8070   14.0730 C.ar   79  TYR79       0.0417
     80  CE2        5.9100   13.9540   14.0170 C.ar   79  TYR79       0.0417
     81  CZ         6.2060   12.7670   14.6750 C.ar   79  TYR79       0.1957
     82  OH         5.6630   12.5790   15.9540 O.3    79  TYR79      -0.2866
@<TRIPOS>BOND
     1    60    59    2
     2    67    66    2
     3    72    73    1
     4    72    71    1
     5    72    75    1
     6    73    74    2
     7    66    71   am
     8    66    65    1
     9    65    68    1
    10    65    64    1
    11    68    69    1
    12    59    64   am
    13    59    58    1
    14    75    76    1
    15    64    70    1
    16    57    58    1
    17    58    61    1
    18    69    70    1
    19    76    78   ar
    20    76    77   ar
    21    61    62    1
    22    61    63    1
    23    78    80   ar
    24    77    79   ar
    25    24    25   ar
    26    24    22   ar
    27    25    23   ar
    28    80    81   ar
    29    79    81   ar
    30    41    39    1
    31    22    21   ar
    32    23    21   ar
    33    39    40    1
    34    39    38    2
    35    38    37    1
    36    81    82    1
    37    37    36    1
    38    21    20    1
    39     6     5    1
    40     7     5    1
    41    20    17    1
    42    36    35    1
    43     5     2    1
    44    35    32    1
    45    55    54    1
    46    17    18    1
    47    17    16    1
    48     4     3    2
    49     3     2    1
    50    19    18    2
    51     2     1    1
    52    34    33    2
    53    32    33    1
    54    32    31    1
    55    29    28    2
    56    53    54    1
    57    53    50    1
    58    16    10   am
    59    52    51    2
    60    54    56    1
    61    51    50    1
    62    28    27    1
    63    50    49    1
    64    30    27    1
    65    47    46    1
    66    10    11    2
    67    10     9    1
    68    44    45    2
    69    44    43    1
    70    27    26    1
    71    12     9    1
    72    12    13    1
    73    46    43    1
    74    46    48    1
    75     8     9    1
    76    43    42    1
    77    14    13    1
    78    13    15    1
