@<TRIPOS>MOLECULE
tmp/3gsmA00.pdb
 140 131 0 0 0
SMALL
GASTEIGER

@<TRIPOS>ATOM
      1  N          5.5500   13.5320    3.1870 N.3    30  ILE30      -0.1245
      2  CA         4.2800   13.0360    3.6770 C.3    30  ILE30       0.1561
      3  C          3.2760   12.9390    2.5340 C.2    30  ILE30       0.2260
      4  O          3.0140   13.9040    1.7920 O.2    30  ILE30      -0.2867
      5  CB         3.7540   13.8780    4.8540 C.3    30  ILE30       0.0252
      6  CG1        2.3130   13.5200    5.1530 C.3    30  ILE30       0.0019
      7  CG2        3.8810   15.3680    4.5810 C.3    30  ILE30       0.0019
      8  CD1        1.9080   13.8970    6.5730 C.3    30  ILE30       0.0001
      9  N         -0.3960   11.8330    0.6740 N.3    32  PHE32      -0.1241
     10  CA        -1.8270   11.8900    0.9050 C.3    32  PHE32       0.1605
     11  C         -2.5630   11.0080   -0.1140 C.2    32  PHE32       0.2264
     12  O         -1.9440   10.2540   -0.8530 O.2    32  PHE32      -0.2867
     13  CB        -2.3180   13.3410    0.8770 C.3    32  PHE32       0.0534
     14  CG        -1.7150   14.2240    1.9750 C.ar   32  PHE32      -0.0203
     15  CD1       -0.5510   14.9380    1.7520 C.ar   32  PHE32      -0.0042
     16  CD2       -2.3390   14.3600    3.1980 C.ar   32  PHE32      -0.0042
     17  CE1       -0.0050   15.7640    2.7520 C.ar   32  PHE32      -0.0003
     18  CE2       -1.8000   15.1740    4.2020 C.ar   32  PHE32      -0.0003
     19  CZ        -0.6220   15.8740    3.9730 C.ar   32  PHE32      -0.0000
     20  N         -0.5830    9.3940    6.9150 N.3    62  ASP62      -0.1239
     21  CA        -1.5850    9.2420    7.9680 C.3    62  ASP62       0.1674
     22  C         -2.4170    8.0160    7.6640 C.2    62  ASP62       0.2266
     23  O         -3.4140    8.1130    6.9590 O.2    62  ASP62      -0.2867
     24  CB        -2.5360   10.4370    7.9820 C.3    62  ASP62       0.1410
     25  CG        -1.8330   11.7320    8.2750 C.2    62  ASP62       0.3668
     26  OD1       -1.1740   11.8070    9.3320 O.co2  62  ASP62      -0.2456
     27  OD2       -1.9560   12.6630    7.4500 O.co2  62  ASP62      -0.2456
     28  N         -5.3310    6.9500    3.9130 N.3    70  ARG70      -0.1245
     29  CA        -5.0460    7.5740    2.6190 C.3    70  ARG70       0.1563
     30  C         -5.0900    6.5620    1.5030 C.2    70  ARG70       0.2260
     31  O         -5.5580    6.8510    0.4340 O.2    70  ARG70      -0.2867
     32  CB        -3.6500    8.2130    2.6070 C.3    70  ARG70       0.0307
     33  CG        -3.3820    9.1620    3.7430 C.3    70  ARG70       0.0489
     34  CD        -4.4240   10.2780    3.8240 C.3    70  ARG70       0.2205
     35  NE        -3.9990   11.2550    4.8130 N.pl3  70  ARG70      -0.0865
     36  CZ        -4.7870   12.1560    5.3790 C.cat  70  ARG70       0.5346
     37  NH1       -6.0660   12.2200    5.0400 N.pl3  70  ARG70       0.1354
     38  NH2       -4.2860   12.9950    6.2850 N.pl3  70  ARG70       0.1354
     39  N          1.6030    7.9090   10.7160 N.3   114  PHE114     -0.1241
     40  CA         1.5630    8.7910   11.8600 C.3   114  PHE114      0.1605
     41  C          0.4790    8.2370   12.7550 C.2   114  PHE114      0.2264
     42  O         -0.6850    8.5880   12.6110 O.2   114  PHE114     -0.2867
     43  CB         1.2930   10.2600   11.4620 C.3   114  PHE114      0.0534
     44  CG         2.4110   10.8790   10.6530 C.ar  114  PHE114     -0.0203
     45  CD1        2.2570   11.1250    9.2920 C.ar  114  PHE114     -0.0042
     46  CD2        3.6340   11.1830   11.2490 C.ar  114  PHE114     -0.0042
     47  CE1        3.2890   11.6620    8.5400 C.ar  114  PHE114     -0.0003
     48  CE2        4.6880   11.7140   10.4870 C.ar  114  PHE114     -0.0003
     49  CZ         4.5120   11.9580    9.1380 C.ar  114  PHE114     -0.0000
     50  N        -13.5600   16.2420   15.4270 N.3   126  ALA126     -0.1231
     51  CA       -12.4890   15.9110   14.5030 C.3   126  ALA126      0.1694
     52  C        -11.7780   14.6060   14.8520 C.2   126  ALA126      0.2591
     53  O        -11.2410   13.9450   13.9740 O.2   126  ALA126     -0.2718
     54  CB       -11.4930   17.0540   14.4290 C.3   126  ALA126      0.0304
     55  N        -11.7610   14.2270   16.1260 N.am  127  ILE127     -0.1980
     56  CA       -11.1080   12.9780   16.5310 C.3   127  ILE127      0.1595
     57  C        -12.1140   11.8380   16.4030 C.2   127  ILE127      0.2287
     58  O        -11.9580   10.9450   15.5770 O.2   127  ILE127     -0.2864
     59  CB       -10.5700   13.0790   17.9560 C.3   127  ILE127      0.0276
     60  CG1       -9.6360   14.2870   18.0760 C.3   127  ILE127      0.0022
     61  CG2       -9.8290   11.8160   18.3430 C.3   127  ILE127      0.0022
     62  CD1       -8.3890   14.2020   17.2040 C.3   127  ILE127      0.0001
     63  N        -11.6270    7.9730   15.8280 N.3   130  ARG130     -0.1245
     64  CA       -10.1950    7.8270   15.5660 C.3   130  ARG130      0.1563
     65  C         -9.5220    7.4530   16.8730 C.2   130  ARG130      0.2260
     66  O         -8.3610    7.0530   16.8860 O.2   130  ARG130     -0.2867
     67  CB        -9.5680    9.1350   15.0610 C.3   130  ARG130      0.0307
     68  CG        -9.7310    9.4320   13.5910 C.3   130  ARG130      0.0489
     69  CD        -9.2690   10.8740   13.2640 C.3   130  ARG130      0.2205
     70  NE        -7.8070   11.0390   13.2620 N.pl3 130  ARG130     -0.0865
     71  CZ        -7.1730   12.2080   13.1910 C.cat 130  ARG130      0.5346
     72  NH1       -7.8420   13.3490   13.1280 N.pl3 130  ARG130      0.1354
     73  NH2       -5.8560   12.2460   13.2130 N.pl3 130  ARG130      0.1354
     74  N         -0.0170   10.6360   18.8450 N.3   160  LYS160     -0.1231
     75  CA        -0.6050   11.9530   18.6690 C.3   160  LYS160      0.1693
     76  C         -1.9680   11.9780   19.3490 C.2   160  LYS160      0.2592
     77  O         -2.5930   10.9260   19.4590 O.2   160  LYS160     -0.2718
     78  CB        -0.7080   12.2770   17.1760 C.3   160  LYS160      0.0285
     79  CG        -1.5700   11.3690   16.3760 C.3   160  LYS160      0.0035
     80  CD        -1.2640   11.5440   14.9000 C.3   160  LYS160      0.0206
     81  CE        -2.3180   10.8420   14.0740 C.3   160  LYS160      0.1093
     82  NZ        -2.1820   11.0090   12.6050 N.3   160  LYS160     -0.1314
     83  N         -2.4640   13.1450   19.7890 N.am  161  HIS161     -0.1976
     84  CA        -1.8830   14.4710   19.5260 C.3   161  HIS161      0.1656
     85  C         -1.5810   15.1640   20.8520 C.2   161  HIS161      0.2291
     86  O         -2.4570   15.7900   21.4230 O.2   161  HIS161     -0.2864
     87  CB        -2.8610   15.3750   18.7660 C.3   161  HIS161      0.0771
     88  CG        -3.4400   14.7730   17.5210 C.ar  161  HIS161      0.0820
     89  ND1       -4.5660   13.9720   17.5330 N.ar  161  HIS161     -0.2267
     90  CD2       -3.0820   14.9000   16.2220 C.ar  161  HIS161      0.1154
     91  CE1       -4.8580   13.6140   16.2930 C.ar  161  HIS161      0.1986
     92  NE2       -3.9640   14.1490   15.4800 N.ar  161  HIS161     -0.2212
     93  N         -6.1550   15.6640   22.4320 N.3   165  HIS165     -0.1241
     94  CA        -7.0850   16.4240   21.6060 C.3   165  HIS165      0.1621
     95  C         -8.5310   15.9430   21.8010 C.2   165  HIS165      0.2264
     96  O         -9.4540   16.4780   21.1970 O.2   165  HIS165     -0.2867
     97  CB        -6.6680   16.2840   20.1300 C.3   165  HIS165      0.0745
     98  CG        -7.0680   17.4420   19.2600 C.ar  165  HIS165      0.0817
     99  ND1       -8.3860   17.7670   19.0030 N.ar  165  HIS165     -0.2268
    100  CD2       -6.3210   18.3120   18.5380 C.ar  165  HIS165      0.1154
    101  CE1       -8.4290   18.8060   18.1860 C.ar  165  HIS165      0.1986
    102  NE2       -7.1910   19.1560   17.8920 N.ar  165  HIS165     -0.2212
    103  N          3.4720   13.6440   17.9510 N.3   203  MET203     -0.1245
    104  CA         2.8980   14.7860   17.2840 C.3   203  MET203      0.1570
    105  C          2.0250   15.5730   18.2710 C.2   203  MET203      0.2261
    106  O          1.1350   15.0100   18.9110 O.2   203  MET203     -0.2867
    107  CB         2.0840   14.3380   16.0820 C.3   203  MET203      0.0387
    108  CG         1.9200   15.4270   15.0260 C.3   203  MET203      0.0595
    109  SD         1.1650   14.8240   13.5070 S.3   203  MET203     -0.1393
    110  CE         2.4700   13.8560   12.7800 C.3   203  MET203      0.0692
    111  N          3.0310   20.5090   14.2560 N.3   241  ASP241     -0.1225
    112  CA         1.8040   20.3940   13.4700 C.3   241  ASP241      0.1805
    113  C          2.0930   20.9870   12.0890 C.2   241  ASP241      0.2597
    114  O          3.0880   21.6810   11.8980 O.2   241  ASP241     -0.2718
    115  CB         0.6250   21.1320   14.1430 C.3   241  ASP241      0.1424
    116  CG         0.6950   22.6740   13.9710 C.2   241  ASP241      0.3668
    117  OD1        1.7860   23.2530   14.1850 O.co2 241  ASP241     -0.2456
    118  OD2       -0.3460   23.3160   13.6290 O.co2 241  ASP241     -0.2456
    119  N          1.2420   20.6980   11.1170 N.am  242  ASP242     -0.1974
    120  CA         1.3650   21.3230    9.8060 C.3   242  ASP242      0.1709
    121  C          1.4600   22.8450    9.9280 C.2   242  ASP242      0.2293
    122  O          0.4880   23.5020   10.2990 O.2   242  ASP242     -0.2864
    123  CB         0.1540   20.9550    8.9460 C.3   242  ASP242      0.1436
    124  CG         0.2460   21.5050    7.5530 C.2   242  ASP242      0.3671
    125  OD1        1.2820   22.1110    7.2270 O.co2 242  ASP242     -0.2456
    126  OD2       -0.7060   21.3140    6.7800 O.co2 242  ASP242     -0.2456
    127  N          6.4970   20.1740    9.7530 N.3   266  LEU266     -0.1245
    128  CA         5.7600   19.7690    8.5610 C.3   266  LEU266      0.1561
    129  C          5.1870   20.9770    7.8940 C.2   266  LEU266      0.2260
    130  O          4.5210   21.7740    8.5420 O.2   266  LEU266     -0.2867
    131  CB         4.6070   18.8040    8.9100 C.3   266  LEU266      0.0270
    132  CG         5.0170   17.4010    9.3860 C.3   266  LEU266      0.0019
    133  CD1        5.8450   17.5090   10.6550 C.3   266  LEU266      0.0001
    134  CD2        3.8040   16.5550    9.6270 C.3   266  LEU266      0.0001
    135  N          2.7030   21.4030    4.8140 N.3   268  CYS268     -0.1235
    136  CA         1.8770   20.7680    3.7960 C.3   268  CYS268      0.1677
    137  C          1.0280   21.7290    3.0060 C.2   268  CYS268      0.2270
    138  O          0.7500   22.8540    3.4290 O.2   268  CYS268     -0.2867
    139  CB         0.9240   19.7730    4.4370 C.3   268  CYS268      0.0956
    140  SG         1.7750   18.4680    5.2820 S.3   268  CYS268     -0.0801
@<TRIPOS>BOND
     1    12    11    2
     2    11    10    1
     3    31    30    2
     4     9    10    1
     5    13    10    1
     6    13    14    1
     7    30    29    1
     8    15    14   ar
     9    15    17   ar
    10     4     3    2
    11    14    16   ar
    12     3     2    1
    13    32    29    1
    14    32    33    1
    15    29    28    1
    16    17    19   ar
    17   137   138    2
    18   137   136    1
    19     1     2    1
    20    16    18   ar
    21     2     5    1
    22    33    34    1
    23   136   139    1
    24   136   135    1
    25    34    35    1
    26    19    18   ar
    27   139   140    1
    28     7     5    1
    29    35    36    2
    30     5     6    1
    31    37    36    1
    32     6     8    1
    33    36    38    1
    34   126   124   ar
    35    20    21    1
    36    23    22    2
    37   125   124   ar
    38    27    25   ar
    39   124   123    1
    40    22    21    1
    41   129   130    2
    42   129   128    1
    43    21    24    1
    44    24    25    1
    45    25    26   ar
    46    47    49   ar
    47    47    45   ar
    48   128   131    1
    49   128   127    1
    50   131   132    1
    51   123   120    1
    52    49    48   ar
    53    45    44   ar
    54   132   134    1
    55   132   133    1
    56   120   121    1
    57   120   119    1
    58   121   122    2
    59    48    46   ar
    60    44    46   ar
    61    44    43    1
    62    39    40    1
    63   119   113   am
    64    43    40    1
    65    40    41    1
    66   114   113    2
    67   113   112    1
    68    82    81    1
    69    42    41    2
    70   110   109    1
    71    72    71    1
    72    71    73    1
    73    71    70    2
    74    70    69    1
    75    69    68    1
    76   112   115    1
    77   112   111    1
    78   109   108    1
    79    68    67    1
    80   118   116   ar
    81   116   115    1
    82   116   117   ar
    83    53    52    2
    84    81    80    1
    85    54    51    1
    86    51    52    1
    87    51    50    1
    88    52    55   am
    89    80    79    1
    90   108   107    1
    91    67    64    1
    92    92    90   ar
    93    92    91   ar
    94    64    63    1
    95    64    65    1
    96    58    57    2
    97   107   104    1
    98    55    56    1
    99    90    88   ar
   100    91    89   ar
   101    79    78    1
   102    57    56    1
   103    56    59    1
   104    65    66    2
   105    78    75    1
   106    62    60    1
   107   104   103    1
   108   104   105    1
   109    88    89   ar
   110    88    87    1
   111   102   101   ar
   112   102   100   ar
   113    59    60    1
   114    59    61    1
   115   101    99   ar
   116   105   106    2
   117   100    98   ar
   118    75    74    1
   119    75    76    1
   120    87    84    1
   121    99    98   ar
   122    98    97    1
   123    76    77    2
   124    76    83   am
   125    84    83    1
   126    84    85    1
   127    97    94    1
   128    85    86    2
   129    96    95    2
   130    94    95    1
   131    94    93    1
