@<TRIPOS>MOLECULE
tmp/3gspA00.pdb
 152 151 0 0 0
SMALL
GASTEIGER

@<TRIPOS>ATOM
      1  N         28.6390   35.4220   16.1460 N.3    36  ASN36      -0.1240
      2  CA        27.4820   34.7980   16.7750 C.3    36  ASN36       0.1653
      3  C         26.7510   33.8460   15.8360 C.2    36  ASN36       0.2266
      4  O         25.6140   33.4490   16.0900 O.2    36  ASN36      -0.2867
      5  CB        26.5400   35.8570   17.3390 C.3    36  ASN36       0.1155
      6  CG        27.1440   36.5990   18.5110 C.2    36  ASN36       0.2627
      7  OD1       27.0120   37.8130   18.6250 O.2    36  ASN36      -0.2716
      8  ND2       27.8210   35.8680   19.3890 N.am   36  ASN36      -0.0877
      9  N         25.3440   33.7320   12.2980 N.3    38  TYR38      -0.1241
     10  CA        24.0480   33.9950   11.6940 C.3    38  TYR38       0.1605
     11  C         24.0410   33.3960   10.2930 C.2    38  TYR38       0.2264
     12  O         25.0650   33.3710    9.6090 O.2    38  TYR38      -0.2867
     13  CB        23.7830   35.5000   11.6170 C.3    38  TYR38       0.0534
     14  CG        23.6360   36.1750   12.9640 C.ar   38  TYR38      -0.0201
     15  CD1       22.4620   36.0510   13.7050 C.ar   38  TYR38      -0.0009
     16  CD2       24.6730   36.9380   13.5000 C.ar   38  TYR38      -0.0009
     17  CE1       22.3270   36.6680   14.9440 C.ar   38  TYR38       0.0417
     18  CE2       24.5480   37.5550   14.7380 C.ar   38  TYR38       0.0417
     19  CZ        23.3750   37.4150   15.4510 C.ar   38  TYR38       0.1957
     20  OH        23.2570   38.0220   16.6730 O.3    38  TYR38      -0.2866
     21  N         20.9160   31.6890   12.6730 N.3    40  HIS40      -0.1226
     22  CA        20.8190   30.5860   13.6020 C.3    40  HIS40       0.1752
     23  C         19.3990   30.4760   14.1210 C.2    40  HIS40       0.2596
     24  O         18.5740   31.3770   13.9250 O.2    40  HIS40      -0.2718
     25  CB        21.8580   30.6450   14.7280 C.3    40  HIS40       0.0759
     26  CG        21.7530   31.8440   15.6100 C.ar   40  HIS40       0.0818
     27  ND1       22.8160   32.6950   15.8310 N.ar   40  HIS40      -0.2268
     28  CD2       20.7320   32.3170   16.3650 C.ar   40  HIS40       0.1154
     29  CE1       22.4550   33.6370   16.6820 C.ar   40  HIS40       0.1986
     30  NE2       21.1930   33.4290   17.0190 N.ar   40  HIS40      -0.2212
     31  N         19.1060   29.3620   14.7760 N.am   41  LYS41      -0.1966
     32  CA        17.7690   29.1310   15.2840 C.3    41  LYS41       0.1728
     33  C         17.2640   30.1600   16.2910 C.2    41  LYS41       0.2616
     34  O         17.9900   30.6020   17.1820 O.2    41  LYS41      -0.2715
     35  CB        17.6470   27.7170   15.8690 C.3    41  LYS41       0.0311
     36  CG        16.2040   27.2840   16.0150 C.3    41  LYS41       0.0038
     37  CD        16.0230   25.9450   16.6770 C.3    41  LYS41       0.0206
     38  CE        14.5430   25.7670   16.8950 C.3    41  LYS41       0.1093
     39  NZ        14.1870   24.3740   17.1990 N.3    41  LYS41      -0.1314
     40  N         16.0160   30.5700   16.0930 N.am   42  TYR42      -0.1960
     41  CA        15.3420   31.5050   16.9790 C.3    42  TYR42       0.1771
     42  C         14.2910   30.6440   17.6820 C.2    42  TYR42       0.2620
     43  O         13.3710   30.1320   17.0440 O.2    42  TYR42      -0.2715
     44  CB        14.6830   32.6310   16.1780 C.3    42  TYR42       0.0574
     45  CG        13.8830   33.5660   17.0460 C.ar   42  TYR42      -0.0198
     46  CD1       14.5160   34.3980   17.9700 C.ar   42  TYR42      -0.0009
     47  CD2       12.4890   33.5650   17.0000 C.ar   42  TYR42      -0.0009
     48  CE1       13.7810   35.1980   18.8340 C.ar   42  TYR42       0.0417
     49  CE2       11.7430   34.3610   17.8610 C.ar   42  TYR42       0.0417
     50  CZ        12.4010   35.1700   18.7800 C.ar   42  TYR42       0.1957
     51  OH        11.6710   35.9260   19.6670 O.3    42  TYR42      -0.2866
     52  N         14.4470   30.4670   18.9890 N.am   43  ASN43      -0.1958
     53  CA        13.5510   29.6160   19.7700 C.3    43  ASN43       0.1819
     54  C         12.1740   30.1680   20.1200 C.2    43  ASN43       0.2621
     55  O         11.2890   29.4080   20.5220 O.2    43  ASN43      -0.2715
     56  CB        14.2650   29.1720   21.0410 C.3    43  ASN43       0.1195
     57  CG        15.5480   28.4250   20.7510 C.2    43  ASN43       0.2630
     58  OD1       16.6270   28.8120   21.2020 O.2    43  ASN43      -0.2716
     59  ND2       15.4380   27.3530   19.9800 N.am   43  ASN43      -0.0877
     60  N         11.9940   31.4770   19.9590 N.am   44  ASN44      -0.1958
     61  CA        10.7370   32.1530   20.2760 C.3    44  ASN44       0.1819
     62  C         10.3660   32.0470   21.7620 C.2    44  ASN44       0.2621
     63  O          9.2260   31.7210   22.1150 O.2    44  ASN44      -0.2715
     64  CB         9.5970   31.6520   19.3840 C.3    44  ASN44       0.1195
     65  CG         8.3650   32.5470   19.4460 C.2    44  ASN44       0.2630
     66  OD1        8.4470   33.7230   19.8030 O.2    44  ASN44      -0.2716
     67  ND2        7.2150   31.9880   19.0940 N.am   44  ASN44      -0.0877
     68  N         11.3450   32.3100   22.6270 N.am   45  TYR45      -0.1960
     69  CA        11.1320   32.2880   24.0750 C.3    45  TYR45       0.1771
     70  C         10.1260   33.3790   24.4470 C.2    45  TYR45       0.2619
     71  O          9.4240   33.2760   25.4580 O.2    45  TYR45      -0.2715
     72  CB        12.4390   32.5580   24.8220 C.3    45  TYR45       0.0574
     73  CG        13.4830   31.4780   24.6990 C.ar   45  TYR45      -0.0198
     74  CD1       13.1270   30.1290   24.6700 C.ar   45  TYR45      -0.0009
     75  CD2       14.8350   31.8060   24.6300 C.ar   45  TYR45      -0.0009
     76  CE1       14.0960   29.1350   24.5770 C.ar   45  TYR45       0.0417
     77  CE2       15.8080   30.8240   24.5340 C.ar   45  TYR45       0.0417
     78  CZ        15.4350   29.4940   24.5110 C.ar   45  TYR45       0.1957
     79  OH        16.4130   28.5350   24.4240 O.3    45  TYR45      -0.2866
     80  N         10.0800   34.4270   23.6230 N.am   46  GLU46      -0.1977
     81  CA         9.1730   35.5540   23.8250 C.3    46  GLU46       0.1602
     82  C          7.7180   35.1490   23.6290 C.2    46  GLU46       0.2287
     83  O          6.8090   35.7790   24.1720 O.2    46  GLU46      -0.2864
     84  CB         9.5180   36.7010   22.8670 C.3    46  GLU46       0.0415
     85  CG        10.7090   37.5600   23.2940 C.3    46  GLU46       0.1163
     86  CD        12.0630   36.9190   23.0330 C.2    46  GLU46       0.3649
     87  OE1       12.1360   35.8660   22.3650 O.co2  46  GLU46      -0.2457
     88  OE2       13.0670   37.4840   23.4980 O.co2  46  GLU46      -0.2457
     89  N         16.8840   33.4220   12.8430 N.3    58  GLU58      -0.1245
     90  CA        17.0500   34.8640   12.8970 C.3    58  GLU58       0.1567
     91  C         18.2420   35.3130   12.0800 C.2    58  GLU58       0.2260
     92  O         19.2560   34.6240   12.0070 O.2    58  GLU58      -0.2867
     93  CB        17.1440   35.3690   14.3350 C.3    58  GLU58       0.0388
     94  CG        18.3830   34.9860   15.0920 C.3    58  GLU58       0.1160
     95  CD        18.4730   35.7150   16.4210 C.2    58  GLU58       0.3649
     96  OE1       18.9370   36.8730   16.4450 O.co2  58  GLU58      -0.2457
     97  OE2       18.0520   35.1410   17.4400 O.co2  58  GLU58      -0.2457
     98  N         25.7620   43.1270   14.7080 N.3    73  PRO73      -0.2116
     99  CA        24.5000   42.8840   14.0020 C.3    73  PRO73       0.1372
    100  C         23.4280   43.9260   14.3050 C.2    73  PRO73       0.2244
    101  O         22.3510   43.8970   13.7120 O.2    73  PRO73      -0.2868
    102  CB        24.0920   41.5110   14.5260 C.3    73  PRO73       0.0268
    103  CG        24.5490   41.5650   15.9460 C.3    73  PRO73       0.0207
    104  CD        25.9280   42.1810   15.8270 C.3    73  PRO73       0.0892
    105  N         16.3210   42.2330   13.7200 N.3    77  ARG77      -0.1245
    106  CA        16.3990   40.9200   13.0730 C.3    77  ARG77       0.1563
    107  C         15.1670   40.5880   12.2410 C.2    77  ARG77       0.2260
    108  O         14.0670   41.0560   12.5300 O.2    77  ARG77      -0.2867
    109  CB        16.4930   39.7980   14.1220 C.3    77  ARG77       0.0307
    110  CG        17.5400   39.9540   15.2020 C.3    77  ARG77       0.0489
    111  CD        18.9380   39.6130   14.7320 C.3    77  ARG77       0.2205
    112  NE        19.8720   39.6940   15.8530 N.pl3  77  ARG77      -0.0865
    113  CZ        20.5070   40.8070   16.2210 C.cat  77  ARG77       0.5346
    114  NH1       20.3290   41.9330   15.5480 N.pl3  77  ARG77       0.1354
    115  NH2       21.2520   40.8140   17.3170 N.pl3  77  ARG77       0.1354
    116  N         15.7570   44.3270   19.7020 N.3    92  HIS92      -0.1241
    117  CA        16.1730   44.3830   21.0980 C.3    92  HIS92       0.1621
    118  C         15.8340   45.7680   21.6510 C.2    92  HIS92       0.2264
    119  O         15.8110   45.9760   22.8670 O.2    92  HIS92      -0.2867
    120  CB        17.6810   44.1990   21.2080 C.3    92  HIS92       0.0745
    121  CG        18.1350   42.7870   21.0620 C.ar   92  HIS92       0.0817
    122  ND1       17.6710   41.7660   21.8610 N.ar   92  HIS92      -0.2268
    123  CD2       19.0620   42.2290   20.2440 C.ar   92  HIS92       0.1154
    124  CE1       18.2950   40.6430   21.5520 C.ar   92  HIS92       0.1986
    125  NE2       19.1430   40.9020   20.5720 N.ar   92  HIS92      -0.2212
    126  N         18.5100   41.0370   26.7440 N.3    98  ASN98      -0.1225
    127  CA        18.6080   40.4490   25.4150 C.3    98  ASN98       0.1785
    128  C         17.2900   39.8980   24.8750 C.2    98  ASN98       0.2597
    129  O         17.2720   39.0250   24.0010 O.2    98  ASN98      -0.2718
    130  CB        19.7270   39.4000   25.3680 C.3    98  ASN98       0.1169
    131  CG        21.1240   40.0300   25.3490 C.2    98  ASN98       0.2627
    132  OD1       21.9610   39.7390   26.2060 O.2    98  ASN98      -0.2716
    133  ND2       21.3750   40.8960   24.3660 N.am   98  ASN98      -0.0877
    134  N         16.1850   40.4100   25.4100 N.am   99  ASN99      -0.1960
    135  CA        14.8610   40.0140   24.9500 C.3    99  ASN99       0.1819
    136  C         14.5360   40.7930   23.6750 C.2    99  ASN99       0.2621
    137  O         15.2550   41.7260   23.3010 O.2    99  ASN99      -0.2715
    138  CB        13.8010   40.3120   26.0150 C.3    99  ASN99       0.1195
    139  CG        13.9140   39.4020   27.2210 C.2    99  ASN99       0.2630
    140  OD1       14.1030   38.1940   27.0830 O.2    99  ASN99      -0.2716
    141  ND2       13.8030   39.9790   28.4120 N.am   99  ASN99      -0.0877
    142  N         13.4480   40.4050   23.0190 N.am  100  PHE100     -0.1974
    143  CA        13.0000   41.0520   21.7950 C.3   100  PHE100      0.1639
    144  C         11.5530   41.5070   21.9200 C.2   100  PHE100      0.2290
    145  O         10.8000   40.9940   22.7440 O.2   100  PHE100     -0.2864
    146  CB        13.0300   40.0630   20.6170 C.3   100  PHE100      0.0560
    147  CG        14.4040   39.6930   20.1380 C.ar  100  PHE100     -0.0200
    148  CD1       15.0930   40.5160   19.2510 C.ar  100  PHE100     -0.0042
    149  CD2       14.9840   38.4890   20.5220 C.ar  100  PHE100     -0.0042
    150  CE1       16.3340   40.1390   18.7470 C.ar  100  PHE100     -0.0003
    151  CE2       16.2210   38.1030   20.0270 C.ar  100  PHE100     -0.0003
    152  CZ        16.8980   38.9290   19.1390 C.ar  100  PHE100     -0.0000
@<TRIPOS>BOND
     1    12    11    2
     2    11    10    1
     3    13    10    1
     4    13    14    1
     5    10     9    1
     6    92    91    2
     7    91    90    1
     8   107   108    2
     9   107   106    1
    10    21    22    1
    11    89    90    1
    12    90    93    1
    13    14    16   ar
    14    14    15   ar
    15   106   105    1
    16   106   109    1
    17    16    18   ar
    18    22    23    1
    19    22    25    1
    20    15    17   ar
    21   101   100    2
    22    24    23    2
    23    99   100    1
    24    99   102    1
    25    99    98    1
    26    23    31   am
    27   109   110    1
    28    93    94    1
    29   102   103    1
    30    98   104    1
    31    25    26    1
    32   111   110    1
    33   111   112    1
    34    18    19   ar
    35    31    32    1
    36    17    19   ar
    37    94    95    1
    38    32    35    1
    39    32    33    1
    40    19    20    1
    41   114   113    1
    42    26    27   ar
    43    26    28   ar
    44   104   103    1
    45    27    29   ar
    46     3     4    2
    47     3     2    1
    48   112   113    2
    49    35    36    1
    50    36    37    1
    51    40    33   am
    52    40    41    1
    53     1     2    1
    54    44    41    1
    55    44    45    1
    56   113   115    1
    57    33    34    2
    58    28    30   ar
    59    95    96   ar
    60    95    97   ar
    61    37    38    1
    62    29    30   ar
    63     2     5    1
    64    38    39    1
    65    41    42    1
    66    47    45   ar
    67    47    49   ar
    68    43    42    2
    69    45    46   ar
    70     5     6    1
    71    42    52   am
    72    49    50   ar
    73    46    48   ar
    74     6     7    2
    75     6     8   am
    76   150   152   ar
    77   150   148   ar
    78    50    48   ar
    79    50    51    1
    80    52    53    1
    81    67    65   am
    82   152   151   ar
    83   148   147   ar
    84    64    65    1
    85    64    61    1
    86    65    66    2
    87   116   117    1
    88    53    54    1
    89    53    56    1
    90    60    54   am
    91    60    61    1
    92    59    57   am
    93   151   149   ar
    94    54    55    2
    95   147   149   ar
    96   147   146    1
    97   123   125   ar
    98   123   121   ar
    99    61    62    1
   100   125   124   ar
   101   146   143    1
   102    57    56    1
   103    57    58    2
   104   121   120    1
   105   121   122   ar
   106   117   120    1
   107   117   118    1
   108   124   122   ar
   109   118   119    2
   110    62    63    2
   111    62    68   am
   112   143   144    1
   113   143   142    1
   114   144   145    2
   115    87    86   ar
   116    68    69    1
   117    84    85    1
   118    84    81    1
   119   142   136   am
   120    86    85    1
   121    86    88   ar
   122   137   136    2
   123    80    81    1
   124    80    70   am
   125    82    81    1
   126    82    83    2
   127   136   135    1
   128   129   128    2
   129    69    70    1
   130    69    72    1
   131   133   131   am
   132    79    78    1
   133    70    71    2
   134    78    77   ar
   135    78    76   ar
   136    77    75   ar
   137    76    74   ar
   138    75    73   ar
   139    74    73   ar
   140    73    72    1
   141   128   134   am
   142   128   127    1
   143   135   134    1
   144   135   138    1
   145   131   130    1
   146   131   132    2
   147   130   127    1
   148   127   126    1
   149   138   139    1
   150   140   139    2
   151   139   141   am
