@<TRIPOS>MOLECULE
tmp/3gsxA00.pdb
 242 234 0 0 0
SMALL
GASTEIGER

@<TRIPOS>ATOM
      1  N         24.9960   -2.7730   12.1150 N.3     5  MET5       -0.1245
      2  CA        25.0460   -1.7890   13.1880 C.3     5  MET5        0.1570
      3  C         24.3300   -0.5370   12.6810 C.2     5  MET5        0.2261
      4  O         24.6470   -0.0340   11.6060 O.2     5  MET5       -0.2867
      5  CB        26.4870   -1.4420   13.5920 C.3     5  MET5        0.0387
      6  CG        26.5430   -0.5050   14.7960 C.3     5  MET5        0.0595
      7  SD        28.1750   -0.2060   15.4950 S.3     5  MET5       -0.1393
      8  CE        29.0260    0.6980   14.2120 C.3     5  MET5        0.0692
      9  N         22.5670    3.3800   13.9790 N.3     7  TYR7       -0.1241
     10  CA        22.2930    4.4160   14.9580 C.3     7  TYR7        0.1605
     11  C         21.0930    5.2490   14.4850 C.2     7  TYR7        0.2264
     12  O         20.9700    5.5360   13.2840 O.2     7  TYR7       -0.2867
     13  CB        23.5100    5.3200   15.1320 C.3     7  TYR7        0.0534
     14  CG        24.6440    4.7630   15.9870 C.ar    7  TYR7       -0.0201
     15  CD1       25.7640    4.1740   15.3960 C.ar    7  TYR7       -0.0009
     16  CD2       24.6080    4.8580   17.3760 C.ar    7  TYR7       -0.0009
     17  CE1       26.8300    3.6740   16.1690 C.ar    7  TYR7        0.0417
     18  CE2       25.6780    4.3590   18.1720 C.ar    7  TYR7        0.0417
     19  CZ        26.7730    3.7700   17.5550 C.ar    7  TYR7        0.1957
     20  OH        27.8240    3.2930   18.3170 O.3     7  TYR7       -0.2866
     21  N         18.8030    8.8300   15.4990 N.3     9  PHE9       -0.1241
     22  CA        18.8360   10.1010   16.2470 C.3     9  PHE9        0.1605
     23  C         17.5890   10.9450   15.9770 C.2     9  PHE9        0.2264
     24  O         17.2260   11.1530   14.8280 O.2     9  PHE9       -0.2867
     25  CB        20.0680   10.9300   15.8490 C.3     9  PHE9        0.0534
     26  CG        21.3500   10.1540   15.8240 C.ar    9  PHE9       -0.0203
     27  CD1       21.7590    9.5010   14.6730 C.ar    9  PHE9       -0.0042
     28  CD2       22.1570   10.0860   16.9490 C.ar    9  PHE9       -0.0042
     29  CE1       22.9490    8.7840   14.6370 C.ar    9  PHE9       -0.0003
     30  CE2       23.3580    9.3620   16.9280 C.ar    9  PHE9       -0.0003
     31  CZ        23.7500    8.7150   15.7680 C.ar    9  PHE9       -0.0000
     32  N         26.7000    9.0030   27.2080 N.3    45  MET45      -0.1245
     33  CA        26.2510    7.8020   26.5130 C.3    45  MET45       0.1570
     34  C         26.1550    6.6710   27.5340 C.2    45  MET45       0.2261
     35  O         27.0770    6.4900   28.3370 O.2    45  MET45      -0.2867
     36  CB        27.2150    7.4310   25.3860 C.3    45  MET45       0.0387
     37  CG        26.6730    6.3480   24.4680 C.3    45  MET45       0.0595
     38  SD        25.4650    6.9490   23.2520 S.3    45  MET45      -0.1393
     39  CE        26.5450    7.2330   21.8790 C.3    45  MET45       0.0692
     40  N         36.3620    4.7000   25.7590 N.3    59  TYR59      -0.1241
     41  CA        35.2250    4.4850   24.8690 C.3    59  TYR59       0.1605
     42  C         34.0420    5.3650   25.3000 C.2    59  TYR59       0.2264
     43  O         33.4960    6.1120   24.4860 O.2    59  TYR59      -0.2867
     44  CB        34.8450    2.9900   24.8010 C.3    59  TYR59       0.0534
     45  CG        33.6070    2.6860   23.9720 C.ar   59  TYR59      -0.0201
     46  CD1       33.7040    2.4040   22.6100 C.ar   59  TYR59      -0.0009
     47  CD2       32.3390    2.6910   24.5530 C.ar   59  TYR59      -0.0009
     48  CE1       32.5550    2.1350   21.8450 C.ar   59  TYR59       0.0417
     49  CE2       31.1920    2.4210   23.8090 C.ar   59  TYR59       0.0417
     50  CZ        31.3050    2.1440   22.4570 C.ar   59  TYR59       0.1957
     51  OH        30.1700    1.8870   21.7310 O.3    59  TYR59      -0.2866
     52  N         32.6320    8.2460   22.9420 N.3    63  GLU63      -0.1245
     53  CA        31.2350    8.1590   22.5020 C.3    63  GLU63       0.1567
     54  C         30.3630    9.3240   23.0070 C.2    63  GLU63       0.2260
     55  O         29.5370    9.8720   22.2640 O.2    63  GLU63      -0.2867
     56  CB        30.6190    6.7990   22.8890 C.3    63  GLU63       0.0388
     57  CG        31.3180    5.6180   22.2280 C.3    63  GLU63       0.1160
     58  CD        31.4250    5.7580   20.7150 C.2    63  GLU63       0.3649
     59  OE1       32.5620    5.7680   20.1970 O.co2  63  GLU63      -0.2457
     60  OE2       30.3700    5.8560   20.0420 O.co2  63  GLU63      -0.2457
     61  N         31.4580   12.4330   23.8810 N.3    65  ARG65      -0.1231
     62  CA        31.8970   13.5830   23.1040 C.3    65  ARG65       0.1694
     63  C         31.2170   13.6210   21.7170 C.2    65  ARG65       0.2592
     64  O         30.5750   14.6210   21.3560 O.2    65  ARG65      -0.2718
     65  CB        33.4190   13.5540   22.9590 C.3    65  ARG65       0.0321
     66  CG        33.9820   14.5820   21.9940 C.3    65  ARG65       0.0489
     67  CD        35.5110   14.6250   22.0350 C.3    65  ARG65       0.2205
     68  NE        36.1400   13.3290   21.7470 N.pl3  65  ARG65      -0.0865
     69  CZ        36.1890   12.7400   20.5500 C.cat  65  ARG65       0.5346
     70  NH1       35.6280   13.2980   19.4800 N.pl3  65  ARG65       0.1354
     71  NH2       36.7940   11.5660   20.4280 N.pl3  65  ARG65       0.1354
     72  N         31.3590   12.5390   20.9500 N.am   66  LYS66      -0.1966
     73  CA        30.7270   12.4530   19.6130 C.3    66  LYS66       0.1728
     74  C         29.1970   12.6290   19.6670 C.2    66  LYS66       0.2616
     75  O         28.6260   13.3430   18.8480 O.2    66  LYS66      -0.2715
     76  CB        31.1000   11.1450   18.9050 C.3    66  LYS66       0.0311
     77  CG        32.5740   11.0270   18.5760 C.3    66  LYS66       0.0038
     78  CD        32.9080    9.7210   17.8600 C.3    66  LYS66       0.0206
     79  CE        32.9590    8.5550   18.8140 C.3    66  LYS66       0.1093
     80  NZ        33.3200    7.3130   18.0930 N.3    66  LYS66      -0.1314
     81  N         28.5320   12.0000   20.6330 N.am   67  VAL67      -0.1977
     82  CA        27.0650   12.0740   20.6600 C.3    67  VAL67       0.1596
     83  C         26.5870   13.5170   20.9310 C.2    67  VAL67       0.2287
     84  O         25.5360   13.9550   20.4290 O.2    67  VAL67      -0.2864
     85  CB        26.4120   11.0040   21.5980 C.3    67  VAL67       0.0276
     86  CG1       26.3510   11.4570   23.0550 C.3    67  VAL67       0.0022
     87  CG2       25.0220   10.6420   21.0910 C.3    67  VAL67       0.0022
     88  N         28.3440   16.1860   19.9710 N.3    69  ALA69      -0.1231
     89  CA        28.5980   16.8060   18.6630 C.3    69  ALA69       0.1694
     90  C         27.4520   16.5550   17.6760 C.2    69  ALA69       0.2592
     91  O         27.0580   17.4540   16.9380 O.2    69  ALA69      -0.2718
     92  CB        29.9190   16.2860   18.0880 C.3    69  ALA69       0.0304
     93  N         26.9330   15.3260   17.6610 N.am   70  HIS70      -0.1976
     94  CA        25.7440   14.9860   16.8920 C.3    70  HIS70       0.1656
     95  C         24.6160   15.9300   17.3100 C.2    70  HIS70       0.2291
     96  O         23.9680   16.5370   16.4650 O.2    70  HIS70      -0.2864
     97  CB        25.3130   13.5300   17.1610 C.3    70  HIS70       0.0771
     98  CG        26.0880   12.4960   16.3920 C.ar   70  HIS70       0.0820
     99  ND1       27.4620   12.4090   16.4230 N.ar   70  HIS70      -0.2267
    100  CD2       25.6680   11.4780   15.6000 C.ar   70  HIS70       0.1154
    101  CE1       27.8570   11.3980   15.6660 C.ar   70  HIS70       0.1986
    102  NE2       26.7870   10.8130   15.1590 N.ar   70  HIS70      -0.2212
    103  N         25.0800   19.5750   16.0330 N.3    73  THR73      -0.1218
    104  CA        24.7810   19.6480   14.5900 C.3    73  THR73       0.1862
    105  C         23.2590   19.6880   14.3540 C.2    73  THR73       0.2287
    106  O         22.7660   20.5500   13.6240 O.2    73  THR73      -0.2866
    107  CB        25.4270   18.4660   13.8040 C.3    73  THR73       0.1770
    108  OG1       26.8530   18.5540   13.8790 O.3    73  THR73      -0.2211
    109  CG2       25.0050   18.4840   12.3230 C.3    73  THR73       0.0375
    110  N         21.0870   22.5610   12.7400 N.3    77  ASP77      -0.1239
    111  CA        20.2610   22.1500   11.6100 C.3    77  ASP77       0.1674
    112  C         18.8220   22.6280   11.7090 C.2    77  ASP77       0.2266
    113  O         18.2510   23.0490   10.7050 O.2    77  ASP77      -0.2867
    114  CB        20.2840   20.6240   11.4270 C.3    77  ASP77       0.1410
    115  CG        21.5780   20.1200   10.7870 C.2    77  ASP77       0.3668
    116  OD1       22.4170   20.9640   10.3960 O.co2  77  ASP77      -0.2456
    117  OD2       21.7530   18.8800   10.6710 O.co2  77  ASP77      -0.2456
    118  N         17.8280   11.2730   11.9230 N.3    97  ARG97      -0.1245
    119  CA        18.9990   10.7640   11.2060 C.3    97  ARG97       0.1563
    120  C         19.1660    9.2780   11.5350 C.2    97  ARG97       0.2260
    121  O         19.0330    8.8680   12.7060 O.2    97  ARG97      -0.2867
    122  CB        20.2620   11.5330   11.6340 C.3    97  ARG97       0.0307
    123  CG        21.5690   11.1050   10.9100 C.3    97  ARG97       0.0489
    124  CD        22.7850   11.6640   11.6480 C.3    97  ARG97       0.2205
    125  NE        22.6590   13.1070   11.8360 N.pl3  97  ARG97      -0.0865
    126  CZ        23.1550   14.0230   11.0030 C.cat  97  ARG97       0.5346
    127  NH1       22.9640   15.3120   11.2450 N.pl3  97  ARG97       0.1354
    128  NH2       23.8530   13.6580    9.9340 N.pl3  97  ARG97       0.1354
    129  N         22.0340    6.1560   10.4270 N.3    99  TYR99      -0.1241
    130  CA        23.1150    5.6050    9.6130 C.3    99  TYR99       0.1605
    131  C         23.6290    4.2740   10.1530 C.2    99  TYR99       0.2264
    132  O         23.3330    3.8840   11.2800 O.2    99  TYR99      -0.2867
    133  CB        24.2710    6.6070    9.4080 C.3    99  TYR99       0.0534
    134  CG        25.0120    7.0160   10.6620 C.ar   99  TYR99      -0.0201
    135  CD1       25.8510    6.1270   11.3310 C.ar   99  TYR99      -0.0009
    136  CD2       24.8930    8.3230   11.1630 C.ar   99  TYR99      -0.0009
    137  CE1       26.5410    6.5140   12.4770 C.ar   99  TYR99       0.0417
    138  CE2       25.5780    8.7150   12.2950 C.ar   99  TYR99       0.0417
    139  CZ        26.4030    7.8070   12.9500 C.ar   99  TYR99       0.1957
    140  OH        27.0680    8.1990   14.0850 O.3    99  TYR99      -0.2866
    141  N         23.2160    6.4640    5.1180 N.3   114  HIS114     -0.1241
    142  CA        23.1750    7.6600    5.9250 C.3   114  HIS114      0.1621
    143  C         22.0450    8.5050    5.3880 C.2   114  HIS114      0.2264
    144  O         22.1730    9.0960    4.3190 O.2   114  HIS114     -0.2867
    145  CB        24.4830    8.4530    5.8520 C.3   114  HIS114      0.0745
    146  CG        24.4860    9.6680    6.7330 C.ar  114  HIS114      0.0817
    147  ND1       23.7670   10.8060    6.4310 N.ar  114  HIS114     -0.2268
    148  CD2       25.0940    9.9100    7.9160 C.ar  114  HIS114      0.1154
    149  CE1       23.9440   11.7000    7.3880 C.ar  114  HIS114      0.1986
    150  NE2       24.7500   11.1820    8.2960 N.ar  114  HIS114     -0.2212
    151  N         26.7750   22.0590   -0.6160 N.3   146  LYS146     -0.1231
    152  CA        27.6060   22.3540    0.5700 C.3   146  LYS146      0.1693
    153  C         28.4640   21.1180    0.9180 C.2   146  LYS146      0.2592
    154  O         29.6810   21.2200    1.1290 O.2   146  LYS146     -0.2718
    155  CB        26.6990   22.7290    1.7590 C.3   146  LYS146      0.0285
    156  CG        27.3990   23.4190    2.9470 C.3   146  LYS146      0.0035
    157  CD        26.4790   23.5210    4.1870 C.3   146  LYS146      0.0206
    158  CE        25.4040   24.5890    4.0060 C.3   146  LYS146      0.1093
    159  NZ        24.8320   25.0820    5.3060 N.3   146  LYS146     -0.1314
    160  N         27.8170   19.9590    0.9370 N.am  147  TRP147     -0.1976
    161  CA        28.4630   18.6990    1.2650 C.3   147  TRP147      0.1640
    162  C         29.4140   18.1850    0.1640 C.2   147  TRP147      0.2290
    163  O         30.3740   17.4800    0.4630 O.2   147  TRP147     -0.2864
    164  CB        27.3910   17.6480    1.6200 C.3   147  TRP147      0.0576
    165  CG        26.7270   17.9140    2.9650 C.ar  147  TRP147      0.0006
    166  CD1       26.9200   19.0010    3.7770 C.ar  147  TRP147      0.0946
    167  CD2       25.7470   17.1020    3.6160 C.ar  147  TRP147      0.0152
    168  NE1       26.1420   18.8970    4.9080 N.ar  147  TRP147     -0.2442
    169  CE2       25.4070   17.7420    4.8300 C.ar  147  TRP147      0.0810
    170  CE3       25.1320   15.8800    3.3010 C.ar  147  TRP147      0.0012
    171  CZ2       24.4830   17.2010    5.7270 C.ar  147  TRP147      0.0191
    172  CZ3       24.2090   15.3510    4.1890 C.ar  147  TRP147      0.0001
    173  CH2       23.8980   16.0050    5.3900 C.ar  147  TRP147      0.0015
    174  N         32.0400   15.6220    2.0940 N.3   152  VAL152     -0.1245
    175  CA        31.3900   14.9160    3.1890 C.3   152  VAL152      0.1561
    176  C         31.2440   13.4240    2.8810 C.2   152  VAL152      0.2260
    177  O         31.5710   12.5920    3.7220 O.2   152  VAL152     -0.2867
    178  CB        30.0240   15.5570    3.5460 C.3   152  VAL152      0.0252
    179  CG1       29.2250   14.6630    4.4930 C.3   152  VAL152      0.0019
    180  CG2       30.2350   16.9420    4.1470 C.3   152  VAL152      0.0019
    181  N         34.3000   11.2610    3.7130 N.3   155  GLN155     -0.1231
    182  CA        34.5270   10.9700    5.1330 C.3   155  GLN155      0.1698
    183  C         33.5680    9.8780    5.6250 C.2   155  GLN155      0.2592
    184  O         33.9730    8.9610    6.3570 O.2   155  GLN155     -0.2718
    185  CB        34.3850   12.2410    6.0030 C.3   155  GLN155      0.0381
    186  CG        35.1570   13.4780    5.5030 C.3   155  GLN155      0.0905
    187  CD        34.9880   14.7020    6.4020 C.2   155  GLN155      0.2608
    188  OE1       35.6460   14.8300    7.4410 O.2   155  GLN155     -0.2717
    189  NE2       34.1220   15.6190    5.9900 N.am  155  GLN155     -0.0878
    190  N         32.3020    9.9780    5.2080 N.am  156  LEU156     -0.1980
    191  CA        31.2770    9.0000    5.5870 C.3   156  LEU156      0.1596
    192  C         31.5750    7.6070    5.0440 C.2   156  LEU156      0.2287
    193  O         31.4430    6.6100    5.7590 O.2   156  LEU156     -0.2864
    194  CB        29.8890    9.4570    5.1320 C.3   156  LEU156      0.0297
    195  CG        29.0090   10.2070    6.1320 C.3   156  LEU156      0.0022
    196  CD1       27.7530   10.7170    5.4390 C.3   156  LEU156      0.0001
    197  CD2       28.6540    9.3170    7.3410 C.3   156  LEU156      0.0001
    198  N         34.2800    5.8680    7.1280 N.3   159  TYR159     -0.1241
    199  CA        33.6550    5.3410    8.3450 C.3   159  TYR159      0.1605
    200  C         32.8210    4.0810    8.0710 C.2   159  TYR159      0.2264
    201  O         33.0190    3.0480    8.7120 O.2   159  TYR159     -0.2867
    202  CB        32.7990    6.4210    9.0460 C.3   159  TYR159      0.0534
    203  CG        31.8830    5.8690   10.1310 C.ar  159  TYR159     -0.0201
    204  CD1       32.3610    5.6150   11.4200 C.ar  159  TYR159     -0.0009
    205  CD2       30.5400    5.5910    9.8600 C.ar  159  TYR159     -0.0009
    206  CE1       31.5210    5.0980   12.4100 C.ar  159  TYR159      0.0417
    207  CE2       29.7000    5.0770   10.8390 C.ar  159  TYR159      0.0417
    208  CZ        30.1920    4.8290   12.1060 C.ar  159  TYR159      0.1957
    209  OH        29.3470    4.3140   13.0640 O.3   159  TYR159     -0.2866
    210  N         35.6600    1.8280   10.0540 N.3   163  THR163     -0.1218
    211  CA        35.3080    1.8110   11.4730 C.3   163  THR163      0.1862
    212  C         33.9980    1.0630   11.7760 C.2   163  THR163      0.2287
    213  O         33.9640    0.2160   12.6740 O.2   163  THR163     -0.2866
    214  CB        35.2320    3.2480   12.0050 C.3   163  THR163      0.1770
    215  OG1       36.5020    3.8800   11.8060 O.3   163  THR163     -0.2211
    216  CG2       34.9070    3.2780   13.4680 C.3   163  THR163      0.0375
    217  N         34.0130   -2.2230   14.0030 N.3   167  TRP167     -0.1241
    218  CA        33.4230   -2.2180   15.3430 C.3   167  TRP167      0.1605
    219  C         32.1790   -3.0970   15.4920 C.2   167  TRP167      0.2264
    220  O         31.9420   -3.6350   16.5670 O.2   167  TRP167     -0.2867
    221  CB        33.2100   -0.7810   15.8610 C.3   167  TRP167      0.0550
    222  CG        34.5080   -0.1710   16.3130 C.ar  167  TRP167      0.0003
    223  CD1       35.5110    0.3050   15.5160 C.ar  167  TRP167      0.0946
    224  CD2       34.9600   -0.0150   17.6620 C.ar  167  TRP167      0.0152
    225  NE1       36.5510    0.7600   16.2870 N.ar  167  TRP167     -0.2442
    226  CE2       36.2390    0.5750   17.6080 C.ar  167  TRP167      0.0810
    227  CE3       34.4020   -0.3030   18.9120 C.ar  167  TRP167      0.0012
    228  CZ2       36.9760    0.8800   18.7600 C.ar  167  TRP167      0.0191
    229  CZ3       35.1430   -0.0090   20.0610 C.ar  167  TRP167      0.0001
    230  CH2       36.4090    0.5760   19.9730 C.ar  167  TRP167      0.0015
    231  N         31.8290   -5.9030   18.2680 N.3   171  TYR171     -0.1241
    232  CA        30.6470   -6.0930   19.1040 C.3   171  TYR171      0.1605
    233  C         30.1010   -7.5210   18.9890 C.2   171  TYR171      0.2264
    234  O         29.7210   -8.1330   19.9970 O.2   171  TYR171     -0.2867
    235  CB        29.5450   -5.0510   18.7900 C.3   171  TYR171      0.0534
    236  CG        29.9490   -3.5920   19.0250 C.ar  171  TYR171     -0.0201
    237  CD1       30.9000   -3.2360   19.9980 C.ar  171  TYR171     -0.0009
    238  CD2       29.3410   -2.5620   18.2990 C.ar  171  TYR171     -0.0009
    239  CE1       31.2660   -1.8810   20.2060 C.ar  171  TYR171      0.0417
    240  CE2       29.6960   -1.2240   18.5000 C.ar  171  TYR171      0.0417
    241  CZ        30.6490   -0.8890   19.4470 C.ar  171  TYR171      0.1957
    242  OH        30.9740    0.4340   19.6120 O.3   171  TYR171     -0.2866
@<TRIPOS>BOND
     1   151   152    1
     2   162   163    2
     3   162   161    1
     4   152   153    1
     5   152   155    1
     6   153   160   am
     7   153   154    2
     8   160   161    1
     9   161   164    1
    10   164   165    1
    11   155   156    1
    12   174   175    1
    13   176   175    1
    14   176   177    2
    15   156   157    1
    16   165   167   ar
    17   165   166   ar
    18   175   178    1
    19   170   167   ar
    20   170   172   ar
    21   178   180    1
    22   178   179    1
    23   167   169   ar
    24   181   182    1
    25   166   168   ar
    26   158   157    1
    27   158   159    1
    28   172   173   ar
    29   144   143    2
    30   169   168   ar
    31   169   171   ar
    32   192   191    1
    33   192   193    2
    34   141   142    1
    35   194   191    1
    36   194   195    1
    37   182   183    1
    38   182   185    1
    39   190   191    1
    40   190   183   am
    41   143   142    1
    42   173   171   ar
    43   196   195    1
    44   186   185    1
    45   186   187    1
    46   183   184    2
    47   145   142    1
    48   145   146    1
    49   189   187   am
    50   195   197    1
    51   187   188    2
    52   147   146   ar
    53   147   149   ar
    54   146   148   ar
    55   198   199    1
    56   149   150   ar
    57   148   150   ar
    58   200   199    1
    59   200   201    2
    60   199   202    1
    61   202   203    1
    62   133   130    1
    63   133   134    1
    64   130   131    1
    65   130   129    1
    66   205   203   ar
    67   205   207   ar
    68   128   126    1
    69   210   211    1
    70   203   204   ar
    71   131   132    2
    72   116   115   ar
    73   134   136   ar
    74   134   135   ar
    75   117   115   ar
    76   113   112    2
    77   115   114    1
    78   207   208   ar
    79   123   122    1
    80   123   124    1
    81   126   127    1
    82   126   125    2
    83   136   138   ar
    84   119   120    1
    85   119   122    1
    86   119   118    1
    87   135   137   ar
    88   204   206   ar
    89   114   111    1
    90   211   212    1
    91   211   214    1
    92   120   121    2
    93     4     3    2
    94   111   112    1
    95   111   110    1
    96   124   125    1
    97   212   213    2
    98   215   214    1
    99   214   216    1
   100   208   206   ar
   101   208   209    1
   102     1     2    1
   103   138   139   ar
   104   109   107    1
   105   137   139   ar
   106     3     2    1
   107   139   140    1
   108     2     5    1
   109    12    11    2
   110     5     6    1
   111   106   105    2
   112   107   108    1
   113   107   104    1
   114     9    10    1
   115   217   218    1
   116     8     7    1
   117   105   104    1
   118    11    10    1
   119   104   103    1
   120    29    27   ar
   121    29    31   ar
   122    27    26   ar
   123     6     7    1
   124    24    23    2
   125    10    13    1
   126    13    14    1
   127   102   100   ar
   128   102   101   ar
   129   218   219    1
   130   218   221    1
   131    15    14   ar
   132    15    17   ar
   133   219   220    2
   134    21    22    1
   135   223   225   ar
   136   223   222   ar
   137   100    98   ar
   138   101    99   ar
   139    31    30   ar
   140    26    25    1
   141    26    28   ar
   142    25    22    1
   143   221   222    1
   144    23    22    1
   145    14    16   ar
   146    17    19   ar
   147   225   226   ar
   148   222   224   ar
   149    98    99   ar
   150    98    97    1
   151    96    95    2
   152    94    97    1
   153    94    95    1
   154    94    93    1
   155    30    28   ar
   156    91    90    2
   157    16    18   ar
   158    19    18   ar
   159    19    20    1
   160   226   224   ar
   161   226   228   ar
   162    93    90   am
   163   224   227   ar
   164    90    89    1
   165    78    77    1
   166    78    79    1
   167    92    89    1
   168    80    79    1
   169   231   232    1
   170   238   240   ar
   171   238   236   ar
   172   240   241   ar
   173    77    76    1
   174    89    88    1
   175   228   230   ar
   176   235   236    1
   177   235   232    1
   178    75    74    2
   179    76    73    1
   180   227   229   ar
   181   233   232    1
   182   233   234    2
   183   236   237   ar
   184   241   242    1
   185   241   239   ar
   186    70    69    1
   187    73    74    1
   188    73    72    1
   189    74    81   am
   190   230   229   ar
   191   237   239   ar
   192    60    58   ar
   193    59    58   ar
   194    71    69    1
   195    84    83    2
   196    69    68    2
   197    81    82    1
   198    82    83    1
   199    82    85    1
   200    58    57    1
   201    72    63   am
   202    87    85    1
   203    64    63    2
   204    85    86    1
   205    63    62    1
   206    51    50    1
   207    68    67    1
   208    48    50   ar
   209    48    46   ar
   210    39    38    1
   211    66    67    1
   212    66    65    1
   213    57    56    1
   214    55    54    2
   215    50    49   ar
   216    53    56    1
   217    53    52    1
   218    53    54    1
   219    46    45   ar
   220    65    62    1
   221    62    61    1
   222    38    37    1
   223    49    47   ar
   224    45    47   ar
   225    45    44    1
   226    37    36    1
   227    43    42    2
   228    44    41    1
   229    41    42    1
   230    41    40    1
   231    36    33    1
   232    33    32    1
   233    33    34    1
   234    34    35    2
