@<TRIPOS>MOLECULE
tmp/3gt3A00.pdb
 76 72 0 0 0
SMALL
GASTEIGER

@<TRIPOS>ATOM
      1  N         22.5960   12.7100   34.7650 N.3    69  HIS69      -0.1241
      2  CA        21.7360   13.7910   34.2300 C.3    69  HIS69       0.1621
      3  C         22.1990   14.2980   32.8840 C.2    69  HIS69       0.2264
      4  O         21.4820   14.4620   31.8890 O.2    69  HIS69      -0.2867
      5  CB        21.6970   14.8960   35.2680 C.3    69  HIS69       0.0745
      6  CG        20.8420   16.0770   34.9800 C.ar   69  HIS69       0.0817
      7  ND1       21.3010   17.1950   34.3420 N.ar   69  HIS69      -0.2268
      8  CD2       19.5380   16.3330   35.2810 C.ar   69  HIS69       0.1154
      9  CE1       20.3220   18.0860   34.2500 C.ar   69  HIS69       0.1986
     10  NE2       19.2410   17.5860   34.8130 N.ar   69  HIS69      -0.2212
     11  N         20.6280   22.6080   30.9730 N.3   132  SER132     -0.1202
     12  CA        19.6240   22.0040   31.8260 C.3   132  SER132      0.2020
     13  C         20.0370   22.1640   33.2930 C.2   132  SER132      0.2619
     14  O         20.3530   21.2340   34.0310 O.2   132  SER132     -0.2717
     15  CB        19.4540   20.5450   31.4160 C.3   132  SER132      0.2103
     16  OG        18.7260   20.4540   30.2090 O.3   132  SER132     -0.2182
     17  N         20.0420   23.4320   33.7230 N.am  133  LEU133     -0.1965
     18  CA        20.5870   23.8150   35.0110 C.3   133  LEU133      0.1728
     19  C         20.0300   25.1920   35.3610 C.2   133  LEU133      0.2616
     20  O         19.5370   25.9340   34.5180 O.2   133  LEU133     -0.2715
     21  CB        22.1000   23.7940   35.0280 C.3   133  LEU133      0.0311
     22  CG        22.9170   24.5800   34.0190 C.3   133  LEU133      0.0022
     23  CD1       23.0100   26.0620   34.3380 C.3   133  LEU133      0.0001
     24  CD2       24.3330   24.0080   33.9540 C.3   133  LEU133      0.0001
     25  N         20.1690   25.5470   36.6410 N.am  134  GLY134     -0.1955
     26  CA        19.8440   26.9180   37.0140 C.3   134  GLY134      0.1869
     27  C         19.7330   27.0050   38.5260 C.2   134  GLY134      0.2309
     28  O         19.6870   26.0060   39.2310 O.2   134  GLY134     -0.2863
     29  N         16.8610   25.7090   30.6720 N.3   158  ALA158     -0.1245
     30  CA        15.6770   25.2130   31.3690 C.3   158  ALA158      0.1562
     31  C         14.9600   26.3060   32.1480 C.2   158  ALA158      0.2260
     32  O         15.5930   27.1390   32.8150 O.2   158  ALA158     -0.2867
     33  CB        16.0890   24.1180   32.3230 C.3   158  ALA158      0.0290
     34  N         13.1250   25.8490   34.8290 N.3   160  GLY160     -0.1210
     35  CA        13.1670   25.4750   36.2150 C.3   160  GLY160      0.1956
     36  C         11.9040   24.7340   36.6660 C.2   160  GLY160      0.2611
     37  O         10.9150   24.7530   35.9600 O.2   160  GLY160     -0.2717
     38  N         12.0070   24.1070   37.8160 N.am  161  ASN161     -0.1974
     39  CA        11.0270   23.1130   38.2300 C.3   161  ASN161      0.1688
     40  C         10.3280   23.5250   39.5160 C.2   161  ASN161      0.2292
     41  O         10.0260   22.6700   40.3540 O.2   161  ASN161     -0.2864
     42  CB        11.6850   21.7440   38.4330 C.3   161  ASN161      0.1181
     43  CG        12.1750   21.1070   37.1500 C.2   161  ASN161      0.2629
     44  OD1       12.0160   21.6120   36.0430 O.2   161  ASN161     -0.2716
     45  ND2       12.7870   19.9260   37.3040 N.am  161  ASN161     -0.0877
     46  N         11.9560   13.1520   34.5510 N.3   221  SER221     -0.1202
     47  CA        11.1420   14.3200   34.2480 C.3   221  SER221      0.2020
     48  C         11.8100   15.6170   34.7200 C.2   221  SER221      0.2619
     49  O         12.4920   15.6540   35.7420 O.2   221  SER221     -0.2717
     50  CB         9.7870   14.2370   34.9610 C.3   221  SER221      0.2103
     51  OG         9.0390   13.0980   34.5920 O.3   221  SER221     -0.2182
     52  N         11.5620   16.6770   33.9560 N.am  222  GLY222     -0.1942
     53  CA        12.1000   17.9710   34.3300 C.3   222  GLY222      0.2014
     54  C         12.0700   18.9450   33.1770 C.2   222  GLY222      0.2640
     55  O         11.9940   18.5510   32.0140 O.2   222  GLY222     -0.2714
     56  N         12.1990   20.2500   33.4880 N.am  223  THR223     -0.1936
     57  CA        12.5150   21.1670   32.4010 C.3   223  THR223      0.2028
     58  C         13.9030   20.9020   31.8340 C.2   223  THR223      0.2643
     59  O         14.2150   21.2980   30.7060 O.2   223  THR223     -0.2714
     60  CB        12.3980   22.6590   32.7960 C.3   223  THR223      0.1808
     61  OG1       13.2770   23.0160   33.8730 O.3   223  THR223     -0.2208
     62  CG2       10.9740   22.9720   33.2390 C.3   223  THR223      0.0379
     63  N         14.7260   20.2040   32.6030 N.am  224  SER224     -0.1935
     64  CA        16.0060   19.6940   32.1100 C.3   224  SER224      0.2055
     65  C         15.8390   18.7600   30.9140 C.2   224  SER224      0.2642
     66  O         16.7910   18.6420   30.1360 O.2   224  SER224     -0.2714
     67  CB        16.7810   18.8900   33.1560 C.3   224  SER224      0.2130
     68  OG        17.3320   19.7260   34.1310 O.3   224  SER224     -0.2179
     69  N         14.7100   18.0860   30.8230 N.am  225  MET225     -0.1976
     70  CA        14.4300   17.1600   29.7340 C.3   225  MET225      0.1605
     71  C         13.8000   17.8550   28.5270 C.2   225  MET225      0.2287
     72  O         13.9590   17.4500   27.3790 O.2   225  MET225     -0.2864
     73  CB        13.4830   16.0440   30.2150 C.3   225  MET225      0.0413
     74  CG        14.0180   14.9820   31.1420 C.3   225  MET225      0.0598
     75  SD        14.6830   15.4980   32.7260 S.3   225  MET225     -0.1393
     76  CE        16.4530   15.6010   32.3320 C.3   225  MET225      0.0692
@<TRIPOS>BOND
     1    72    71    2
     2    71    70    1
     3    70    73    1
     4    70    69    1
     5    66    65    2
     6    16    15    1
     7    73    74    1
     8    29    30    1
     9    59    58    2
    10    69    65   am
    11    65    64    1
    12    11    12    1
    13    74    75    1
    14    30    31    1
    15    30    33    1
    16    15    12    1
    17    12    13    1
    18    58    57    1
    19    58    63   am
    20     4     3    2
    21    55    54    2
    22    64    63    1
    23    64    67    1
    24    31    32    2
    25    76    75    1
    26    57    60    1
    27    57    56    1
    28    60    62    1
    29    60    61    1
    30     3     2    1
    31    67    68    1
    32    54    56   am
    33    54    53    1
    34    13    17   am
    35    13    14    2
    36    17    18    1
    37    24    22    1
    38    52    53    1
    39    52    48   am
    40    22    23    1
    41    22    21    1
    42     2     1    1
    43     2     5    1
    44    47    46    1
    45    47    48    1
    46    47    50    1
    47     9     7   ar
    48     9    10   ar
    49     7     6   ar
    50    20    19    2
    51    51    50    1
    52    48    49    2
    53    10     8   ar
    54    34    35    1
    55     6     5    1
    56     6     8   ar
    57    18    21    1
    58    18    19    1
    59    19    25   am
    60    37    36    2
    61    44    43    2
    62    35    36    1
    63    25    26    1
    64    36    38   am
    65    26    27    1
    66    43    45   am
    67    43    42    1
    68    38    39    1
    69    39    42    1
    70    39    40    1
    71    27    28    2
    72    40    41    2
