@<TRIPOS>MOLECULE
tmp/3gt4A01.pdb
 87 83 0 0 0
SMALL
GASTEIGER

@<TRIPOS>ATOM
      1  N         22.5360   12.6800   34.6940 N.3    69  HIS69      -0.1241
      2  CA        21.6810   13.7510   34.1730 C.3    69  HIS69       0.1621
      3  C         22.1610   14.2700   32.8260 C.2    69  HIS69       0.2264
      4  O         21.3850   14.4390   31.8780 O.2    69  HIS69      -0.2867
      5  CB        21.6420   14.8390   35.2310 C.3    69  HIS69       0.0745
      6  CG        20.8390   16.0550   34.9460 C.ar   69  HIS69       0.0817
      7  ND1       21.3680   17.1770   34.3480 N.ar   69  HIS69      -0.2268
      8  CD2       19.5340   16.3300   35.2050 C.ar   69  HIS69       0.1154
      9  CE1       20.4230   18.0910   34.2400 C.ar   69  HIS69       0.1986
     10  NE2       19.3010   17.6020   34.7530 N.ar   69  HIS69      -0.2212
     11  N         20.5720   22.6260   31.0130 N.3   132  SER132     -0.1202
     12  CA        19.5800   22.0030   31.8590 C.3   132  SER132      0.2020
     13  C         19.9900   22.1490   33.3270 C.2   132  SER132      0.2619
     14  O         20.2400   21.2000   34.0640 O.2   132  SER132     -0.2717
     15  CB        19.4100   20.5280   31.5070 C.3   132  SER132      0.2103
     16  OG        18.7230   20.4060   30.2690 O.3   132  SER132     -0.2182
     17  N         20.0460   23.4170   33.7030 N.am  133  LEU133     -0.1965
     18  CA        20.5250   23.8210   34.9980 C.3   133  LEU133      0.1728
     19  C         19.9830   25.2050   35.3250 C.2   133  LEU133      0.2616
     20  O         19.4670   25.9300   34.5080 O.2   133  LEU133     -0.2715
     21  CB        22.0350   23.8180   35.0680 C.3   133  LEU133      0.0311
     22  CG        22.8570   24.6500   34.1030 C.3   133  LEU133      0.0022
     23  CD1       23.0150   26.1120   34.4940 C.3   133  LEU133      0.0001
     24  CD2       24.2590   24.0300   34.0020 C.3   133  LEU133      0.0001
     25  N         20.1580   25.5800   36.5890 N.am  134  GLY134     -0.1955
     26  CA        19.8290   26.9530   36.9740 C.3   134  GLY134      0.1869
     27  C         19.7100   27.0560   38.4840 C.2   134  GLY134      0.2309
     28  O         19.6960   26.0340   39.1730 O.2   134  GLY134     -0.2863
     29  N         16.8020   25.6600   30.6680 N.3   158  ALA158     -0.1245
     30  CA        15.5960   25.2260   31.3800 C.3   158  ALA158      0.1562
     31  C         14.8980   26.3400   32.1340 C.2   158  ALA158      0.2260
     32  O         15.5980   27.1660   32.7240 O.2   158  ALA158     -0.2867
     33  CB        15.9810   24.1330   32.3670 C.3   158  ALA158      0.0290
     34  N         13.1060   25.8650   34.8250 N.3   160  GLY160     -0.1210
     35  CA        13.1690   25.4790   36.2100 C.3   160  GLY160      0.1956
     36  C         11.9230   24.7230   36.6510 C.2   160  GLY160      0.2611
     37  O         10.9200   24.8440   35.9530 O.2   160  GLY160     -0.2717
     38  N         12.0260   23.9860   37.7470 N.am  161  ASN161     -0.1974
     39  CA        11.0530   23.0410   38.2340 C.3   161  ASN161      0.1688
     40  C         10.3860   23.5110   39.5230 C.2   161  ASN161      0.2292
     41  O         10.1270   22.6400   40.3670 O.2   161  ASN161     -0.2864
     42  CB        11.6910   21.6760   38.5420 C.3   161  ASN161      0.1181
     43  CG        12.3700   20.9310   37.4570 C.2   161  ASN161      0.2629
     44  OD1       12.1780   21.1770   36.2150 O.2   161  ASN161     -0.2716
     45  ND2       13.2700   20.0840   37.8510 N.am  161  ASN161     -0.0877
     46  N          5.4790   20.6710   37.6040 N.3   192  PHE192     -0.1241
     47  CA         6.6180   21.3820   38.1490 C.3   192  PHE192      0.1605
     48  C          7.1230   22.5280   37.2840 C.2   192  PHE192      0.2264
     49  O          8.0140   23.2790   37.6730 O.2   192  PHE192     -0.2867
     50  CB         7.7910   20.3930   38.3280 C.3   192  PHE192      0.0534
     51  CG         8.0620   19.5740   37.0830 C.ar  192  PHE192     -0.0203
     52  CD1        8.7740   20.0280   35.9860 C.ar  192  PHE192     -0.0042
     53  CD2        7.5750   18.2760   37.0090 C.ar  192  PHE192     -0.0042
     54  CE1        8.9740   19.2900   34.8420 C.ar  192  PHE192     -0.0003
     55  CE2        7.7690   17.5080   35.8680 C.ar  192  PHE192     -0.0003
     56  CZ         8.4780   17.9940   34.7970 C.ar  192  PHE192     -0.0000
     57  N         11.8540   13.1440   34.5370 N.3   221  SER221     -0.1202
     58  CA        11.0540   14.3290   34.2920 C.3   221  SER221      0.2020
     59  C         11.7750   15.5950   34.7530 C.2   221  SER221      0.2619
     60  O         12.4740   15.6160   35.7660 O.2   221  SER221     -0.2717
     61  CB         9.7010   14.2650   35.0070 C.3   221  SER221      0.2103
     62  OG         8.9320   13.1350   34.6590 O.3   221  SER221     -0.2182
     63  N         11.5790   16.6590   33.9800 N.am  222  GLY222     -0.1942
     64  CA        12.0400   17.9730   34.3710 C.3   222  GLY222      0.2014
     65  C         12.0510   18.9310   33.2070 C.2   222  GLY222      0.2640
     66  O         11.9830   18.5500   32.0350 O.2   222  GLY222     -0.2714
     67  N         12.1860   20.2400   33.4940 N.am  223  THR223     -0.1936
     68  CA        12.4860   21.1380   32.3830 C.3   223  THR223      0.2028
     69  C         13.8680   20.8560   31.8150 C.2   223  THR223      0.2643
     70  O         14.1510   21.2900   30.7020 O.2   223  THR223     -0.2714
     71  CB        12.3620   22.6220   32.7880 C.3   223  THR223      0.1808
     72  OG1       13.1870   22.9470   33.9110 O.3   223  THR223     -0.2208
     73  CG2       10.9270   22.9030   33.2310 C.3   223  THR223      0.0379
     74  N         14.6970   20.1550   32.5890 N.am  224  SER224     -0.1935
     75  CA        15.9760   19.6330   32.1390 C.3   224  SER224      0.2055
     76  C         15.8190   18.7220   30.9190 C.2   224  SER224      0.2642
     77  O         16.7400   18.6340   30.0980 O.2   224  SER224     -0.2714
     78  CB        16.6770   18.8600   33.2550 C.3   224  SER224      0.2130
     79  OG        17.3370   19.6990   34.1690 O.3   224  SER224     -0.2179
     80  N         14.6950   18.0360   30.8170 N.am  225  MET225     -0.1976
     81  CA        14.3900   17.1100   29.7430 C.3   225  MET225      0.1605
     82  C         13.7600   17.8430   28.5480 C.2   225  MET225      0.2287
     83  O         13.9170   17.5390   27.3660 O.2   225  MET225     -0.2864
     84  CB        13.4620   15.9990   30.2460 C.3   225  MET225      0.0413
     85  CG        14.0440   14.8800   31.0790 C.3   225  MET225      0.0598
     86  SD        14.6170   15.4450   32.6990 S.3   225  MET225     -0.1393
     87  CE        16.3860   15.5200   32.3930 C.3   225  MET225      0.0692
@<TRIPOS>BOND
     1    83    82    2
     2    82    81    1
     3    81    84    1
     4    81    80    1
     5    77    76    2
     6    84    85    1
     7    16    15    1
     8    29    30    1
     9    70    69    2
    10    80    76   am
    11    76    75    1
    12    11    12    1
    13    85    86    1
    14    30    31    1
    15    30    33    1
    16    15    12    1
    17    69    68    1
    18    69    74   am
    19    12    13    1
    20     4     3    2
    21    66    65    2
    22    31    32    2
    23    75    74    1
    24    75    78    1
    25    68    71    1
    26    68    67    1
    27    87    86    1
    28    71    73    1
    29    71    72    1
    30     3     2    1
    31    65    67   am
    32    65    64    1
    33    78    79    1
    34    13    17   am
    35    13    14    2
    36    17    18    1
    37    63    64    1
    38    63    59   am
    39    24    22    1
    40    22    23    1
    41    22    21    1
    42     2     1    1
    43     2     5    1
    44     9     7   ar
    45     9    10   ar
    46    58    57    1
    47    58    59    1
    48    58    61    1
    49     7     6   ar
    50    20    19    2
    51    62    61    1
    52    10     8   ar
    53    59    60    2
    54    56    54   ar
    55    56    55   ar
    56    34    35    1
    57    54    52   ar
    58     6     8   ar
    59     6     5    1
    60    18    21    1
    61    18    19    1
    62    19    25   am
    63    55    53   ar
    64    37    36    2
    65    52    51   ar
    66    35    36    1
    67    44    43    2
    68    25    26    1
    69    36    38   am
    70    26    27    1
    71    53    51   ar
    72    51    50    1
    73    48    49    2
    74    48    47    1
    75    43    45   am
    76    43    42    1
    77    46    47    1
    78    38    39    1
    79    47    50    1
    80    39    42    1
    81    39    40    1
    82    27    28    2
    83    40    41    2
