@<TRIPOS>MOLECULE
tmp/3gt9B00.pdb
 135 134 0 0 0
SMALL
GASTEIGER

@<TRIPOS>ATOM
      1  N         74.5810   62.1400   40.2910 N.3    39  THR39      -0.1218
      2  CA        74.2350   61.6180   38.9700 C.3    39  THR39       0.1862
      3  C         72.8250   62.0610   38.5930 C.2    39  THR39       0.2287
      4  O         71.9680   62.2430   39.4660 O.2    39  THR39      -0.2866
      5  CB        74.2930   60.0820   38.9350 C.3    39  THR39       0.1770
      6  OG1       73.2970   59.5440   39.8130 O.3    39  THR39      -0.2211
      7  CG2       75.6670   59.5830   39.3580 C.3    39  THR39       0.0375
      8  N         69.9680   62.0110   43.5490 N.3    41  LYS41      -0.1231
      9  CA        70.7500   60.7760   43.5730 C.3    41  LYS41       0.1693
     10  C         72.2440   61.0690   43.6260 C.2    41  LYS41       0.2592
     11  O         72.7360   61.9270   42.8980 O.2    41  LYS41      -0.2718
     12  CB        70.4700   59.9530   42.3170 C.3    41  LYS41       0.0285
     13  CG        69.0730   59.3780   42.2220 C.3    41  LYS41       0.0035
     14  CD        68.7940   58.8800   40.8090 C.3    41  LYS41       0.0206
     15  CE        67.5480   58.0130   40.7450 C.3    41  LYS41       0.1093
     16  NZ        66.3280   58.7720   41.1300 N.3    41  LYS41      -0.1314
     17  N         72.9650   60.3500   44.4810 N.am   42  VAL42      -0.1966
     18  CA        74.4260   60.4030   44.4850 C.3    42  VAL42       0.1727
     19  C         74.9920   58.9920   44.4900 C.2    42  VAL42       0.2616
     20  O         74.3010   58.0510   44.8620 O.2    42  VAL42      -0.2715
     21  CB        74.9830   61.1710   45.7050 C.3    42  VAL42       0.0290
     22  CG1       74.4080   62.5810   45.7600 C.3    42  VAL42       0.0023
     23  CG2       74.6940   60.4170   47.0060 C.3    42  VAL42       0.0023
     24  N         76.2450   58.8580   44.0630 N.am   43  ARG43      -0.1977
     25  CA        76.9870   57.6060   44.1960 C.3    43  ARG43       0.1597
     26  C         78.3570   57.8690   44.8000 C.2    43  ARG43       0.2287
     27  O         78.9450   58.9280   44.5850 O.2    43  ARG43      -0.2864
     28  CB        77.1580   56.9100   42.8450 C.3    43  ARG43       0.0334
     29  CG        75.8750   56.3550   42.2610 C.3    43  ARG43       0.0492
     30  CD        76.1600   55.3270   41.1840 C.3    43  ARG43       0.2205
     31  NE        74.9360   54.7510   40.6350 N.pl3  43  ARG43      -0.0865
     32  CZ        74.1820   53.8450   41.2540 C.cat  43  ARG43       0.5346
     33  NH1       74.4980   53.3980   42.4660 N.pl3  43  ARG43       0.1354
     34  NH2       73.0920   53.3860   40.6570 N.pl3  43  ARG43       0.1354
     35  N         74.8020   53.9200   45.9260 N.3    50  GLY50      -0.1210
     36  CA        73.9080   55.0080   45.5380 C.3    50  GLY50       0.1956
     37  C         72.8560   55.3010   46.5900 C.2    50  GLY50       0.2612
     38  O         72.2550   54.3830   47.1420 O.2    50  GLY50      -0.2717
     39  N         72.6410   56.5870   46.8640 N.am   51  LEU51      -0.1965
     40  CA        71.6360   57.0290   47.8270 C.3    51  LEU51       0.1728
     41  C         70.8440   58.2030   47.2630 C.2    51  LEU51       0.2616
     42  O         71.3990   59.0480   46.5600 O.2    51  LEU51      -0.2715
     43  CB        72.2980   57.4500   49.1390 C.3    51  LEU51       0.0311
     44  CG        72.9140   56.3230   49.9700 C.3    51  LEU51       0.0022
     45  CD1       73.7330   56.8980   51.1290 C.3    51  LEU51       0.0001
     46  CD2       71.8360   55.3750   50.4770 C.3    51  LEU51       0.0001
     47  N         69.5520   58.2440   47.5770 N.am   52  GLN52      -0.1963
     48  CA        68.6800   59.3470   47.1680 C.3    52  GLN52       0.1733
     49  C         67.6780   59.6500   48.2830 C.2    52  GLN52       0.2617
     50  O         67.7380   59.0490   49.3560 O.2    52  GLN52      -0.2715
     51  CB        67.9540   59.0020   45.8640 C.3    52  GLN52       0.0408
     52  CG        66.9410   57.8690   45.9850 C.3    52  GLN52       0.0908
     53  CD        66.0110   57.7820   44.7940 C.2    52  GLN52       0.2608
     54  OE1       66.4530   57.6310   43.6570 O.2    52  GLN52      -0.2717
     55  NE2       64.7130   57.8730   45.0500 N.am   52  GLN52      -0.0878
     56  N         66.7560   60.5730   48.0230 N.am   53  SER53      -0.1936
     57  CA        65.7440   60.9620   49.0040 C.3    53  SER53       0.2055
     58  C         66.3930   61.3650   50.3270 C.2    53  SER53       0.2643
     59  O         66.0220   60.8810   51.4010 O.2    53  SER53      -0.2714
     60  CB        64.7270   59.8370   49.2070 C.3    53  SER53       0.2130
     61  OG        64.1440   59.4590   47.9710 O.3    53  SER53      -0.2179
     62  N         67.3700   62.2600   50.2270 N.am   54  TRP54      -0.1959
     63  CA        68.0660   62.7890   51.3910 C.3    54  TRP54       0.1771
     64  C         67.1170   63.6610   52.2100 C.2    54  TRP54       0.2619
     65  O         66.3940   64.4960   51.6600 O.2    54  TRP54      -0.2715
     66  CB        69.2970   63.5900   50.9570 C.3    54  TRP54       0.0590
     67  CG        70.3600   62.7250   50.3580 C.ar   54  TRP54       0.0006
     68  CD1       70.4570   62.3200   49.0560 C.ar   54  TRP54       0.0946
     69  CD2       71.4720   62.1410   51.0430 C.ar   54  TRP54       0.0152
     70  NE1       71.5640   61.5250   48.8880 N.ar   54  TRP54      -0.2442
     71  CE2       72.2060   61.4000   50.0930 C.ar   54  TRP54       0.0810
     72  CE3       71.9240   62.1790   52.3680 C.ar   54  TRP54       0.0012
     73  CZ2       73.3680   60.7030   50.4240 C.ar   54  TRP54       0.0191
     74  CZ3       73.0790   61.4830   52.6970 C.ar   54  TRP54       0.0001
     75  CH2       73.7880   60.7550   51.7280 C.ar   54  TRP54       0.0015
     76  N         67.1120   63.4470   53.5210 N.am   55  LYS55      -0.1977
     77  CA        66.2420   64.1920   54.4240 C.3    55  LYS55       0.1596
     78  C         67.0530   65.2000   55.2200 C.2    55  LYS55       0.2287
     79  O         68.2510   65.0190   55.4340 O.2    55  LYS55      -0.2864
     80  CB        65.5180   63.2340   55.3740 C.3    55  LYS55       0.0298
     81  CG        64.7070   62.1500   54.6730 C.3    55  LYS55       0.0038
     82  CD        63.5430   62.7260   53.8750 C.3    55  LYS55       0.0206
     83  CE        62.8650   61.6600   53.0310 C.3    55  LYS55       0.1093
     84  NZ        61.6410   62.1780   52.3580 N.3    55  LYS55      -0.1314
     85  N         70.1150   64.4020   57.6440 N.3    58  ASP58      -0.1239
     86  CA        70.9210   63.2630   57.2010 C.3    58  ASP58       0.1674
     87  C         72.3770   63.6910   57.1380 C.2    58  ASP58       0.2266
     88  O         72.6960   64.7450   56.5860 O.2    58  ASP58      -0.2867
     89  CB        70.5050   62.7630   55.8120 C.3    58  ASP58       0.1410
     90  CG        69.2730   61.8840   55.8340 C.2    58  ASP58       0.3668
     91  OD1       68.7140   61.6220   56.9220 O.co2  58  ASP58      -0.2456
     92  OD2       68.8590   61.4540   54.7350 O.co2  58  ASP58      -0.2456
     93  N         75.3430   58.0490   56.6860 N.3    63  GLU63      -0.1245
     94  CA        74.5990   57.2840   55.6820 C.3    63  GLU63       0.1567
     95  C         75.5240   56.3690   54.8750 C.2    63  GLU63       0.2260
     96  O         75.1540   55.2370   54.5520 O.2    63  GLU63      -0.2867
     97  CB        73.8260   58.2230   54.7540 C.3    63  GLU63       0.0388
     98  CG        72.7540   59.0490   55.4620 C.3    63  GLU63       0.1160
     99  CD        71.6660   58.1970   56.0920 C.2    63  GLU63       0.3649
    100  OE1       71.0480   57.3950   55.3670 O.co2  63  GLU63      -0.2457
    101  OE2       71.4300   58.3290   57.3120 O.co2  63  GLU63      -0.2457
    102  N         76.1180   53.5040   57.2170 N.3    66  LYS66      -0.1231
    103  CA        74.8920   52.7300   57.3780 C.3    66  LYS66       0.1693
    104  C         74.6780   51.7800   56.2020 C.2    66  LYS66       0.2592
    105  O         74.4790   50.5840   56.3910 O.2    66  LYS66      -0.2718
    106  CB        73.6840   53.6640   57.5230 C.3    66  LYS66       0.0285
    107  CG        72.3410   52.9530   57.5930 C.3    66  LYS66       0.0035
    108  CD        71.2180   53.9060   57.9790 C.3    66  LYS66       0.0206
    109  CE        69.9050   53.1560   58.1640 C.3    66  LYS66       0.1093
    110  NZ        68.7650   54.0660   58.4810 N.3    66  LYS66      -0.1314
    111  N         74.7330   52.3140   54.9870 N.am   67  TRP67      -0.1962
    112  CA        74.3310   51.5510   53.8060 C.3    67  TRP67       0.1771
    113  C         75.4710   50.7670   53.1410 C.2    67  TRP67       0.2619
    114  O         75.2270   49.7150   52.5450 O.2    67  TRP67      -0.2715
    115  CB        73.6600   52.4810   52.7930 C.3    67  TRP67       0.0590
    116  CG        72.3710   53.0650   53.2990 C.ar   67  TRP67       0.0006
    117  CD1       72.1690   54.3320   53.7710 C.ar   67  TRP67       0.0946
    118  CD2       71.1070   52.3980   53.3910 C.ar   67  TRP67       0.0152
    119  NE1       70.8560   54.4950   54.1460 N.ar   67  TRP67      -0.2442
    120  CE2       70.1820   53.3240   53.9230 C.ar   67  TRP67       0.0810
    121  CE3       70.6660   51.1070   53.0780 C.ar   67  TRP67       0.0012
    122  CZ2       68.8440   53.0000   54.1450 C.ar   67  TRP67       0.0191
    123  CZ3       69.3330   50.7880   53.2970 C.ar   67  TRP67       0.0001
    124  CH2       68.4380   51.7310   53.8280 C.ar   67  TRP67       0.0015
    125  N         76.7000   51.2690   53.2470 N.am   68  PHE68      -0.1974
    126  CA        77.8470   50.6830   52.5430 C.3    68  PHE68       0.1639
    127  C         79.0450   50.4780   53.4750 C.2    68  PHE68       0.2290
    128  O         80.1310   51.0170   53.2330 O.2    68  PHE68      -0.2864
    129  CB        78.2250   51.5660   51.3500 C.3    68  PHE68       0.0560
    130  CG        77.0370   52.0600   50.5740 C.ar   68  PHE68      -0.0200
    131  CD1       76.2040   51.1680   49.9110 C.ar   68  PHE68      -0.0042
    132  CD2       76.7390   53.4130   50.5250 C.ar   68  PHE68      -0.0042
    133  CE1       75.0960   51.6260   49.2060 C.ar   68  PHE68      -0.0003
    134  CE2       75.6340   53.8750   49.8240 C.ar   68  PHE68      -0.0003
    135  CZ        74.8150   52.9810   49.1660 C.ar   68  PHE68      -0.0000
@<TRIPOS>BOND
     1     3     2    1
     2     3     4    2
     3     5     2    1
     4     5     7    1
     5     5     6    1
     6     2     1    1
     7    31    30    1
     8    31    32    2
     9    34    32    1
    10    15    14    1
    11    15    16    1
    12    14    13    1
    13    30    29    1
    14    32    33    1
    15    13    12    1
    16    29    28    1
    17    12     9    1
    18    28    25    1
    19    11    10    2
    20     8     9    1
    21     9    10    1
    22    10    17   am
    23    54    53    2
    24    24    25    1
    25    24    19   am
    26    25    26    1
    27    17    18    1
    28    18    19    1
    29    18    21    1
    30    19    20    2
    31    27    26    2
    32    53    55   am
    33    53    52    1
    34    36    35    1
    35    36    37    1
    36    21    22    1
    37    21    23    1
    38    51    52    1
    39    51    48    1
    40    42    41    2
    41    37    39   am
    42    37    38    2
    43    39    40    1
    44    48    47    1
    45    48    49    1
    46    41    47   am
    47    41    40    1
    48    40    43    1
    49    61    60    1
    50    56    49   am
    51    56    57    1
    52    49    50    2
    53    70    68   ar
    54    70    71   ar
    55    57    60    1
    56    57    58    1
    57    68    67   ar
    58    43    44    1
    59   135   133   ar
    60   135   134   ar
    61   133   131   ar
    62   134   132   ar
    63   131   130   ar
    64    44    46    1
    65    44    45    1
    66    71    73   ar
    67    71    69   ar
    68    62    58   am
    69    62    63    1
    70    58    59    2
    71    67    66    1
    72    67    69   ar
    73    73    75   ar
    74   132   130   ar
    75   130   129    1
    76    66    63    1
    77    69    72   ar
    78   129   126    1
    79    63    64    1
    80    65    64    2
    81    75    74   ar
    82    64    76   am
    83    84    83    1
    84    72    74   ar
    85   126   125    1
    86   126   127    1
    87   114   113    2
    88   115   116    1
    89   115   112    1
    90    83    82    1
    91   121   123   ar
    92   121   118   ar
    93   113   125   am
    94   113   112    1
    95   128   127    2
    96   123   124   ar
    97   116   118   ar
    98   116   117   ar
    99   118   120   ar
   100    76    77    1
   101   117   119   ar
   102   112   111    1
   103   124   122   ar
   104    82    81    1
   105   120   122   ar
   106   120   119   ar
   107    77    78    1
   108    77    80    1
   109    96    95    2
   110    81    80    1
   111    92    90   ar
   112    97    98    1
   113    97    94    1
   114    95    94    1
   115   111   104   am
   116    78    79    2
   117   100    99   ar
   118    98    99    1
   119    94    93    1
   120    89    90    1
   121    89    86    1
   122    90    91   ar
   123    99   101   ar
   124   104   105    2
   125   104   103    1
   126    88    87    2
   127    87    86    1
   128    86    85    1
   129   102   103    1
   130   103   106    1
   131   106   107    1
   132   107   108    1
   133   108   109    1
   134   109   110    1
