@<TRIPOS>MOLECULE
tmp/3gtcA00.pdb
 105 99 0 0 0
SMALL
GASTEIGER

@<TRIPOS>ATOM
      1  N         21.6510   -6.1900   14.6520 N.3    58  GLU58      -0.1245
      2  CA        22.4920   -5.0940   14.1790 C.3    58  GLU58       0.1567
      3  C         23.2070   -4.4470   15.3680 C.2    58  GLU58       0.2260
      4  O         22.5570   -3.9390   16.2860 O.2    58  GLU58      -0.2867
      5  CB        21.6590   -4.0450   13.4380 C.3    58  GLU58       0.0388
      6  CG        21.0350   -4.5660   12.1590 C.3    58  GLU58       0.1160
      7  CD        20.1450   -3.5600   11.4430 C.2    58  GLU58       0.3649
      8  OE1       19.9910   -2.4080   11.9120 O.co2  58  GLU58      -0.2457
      9  OE2       19.6020   -3.9290   10.3870 O.co2  58  GLU58      -0.2457
     10  N         26.9200    1.0760   16.1940 N.3    61  SER61      -0.1217
     11  CA        28.2360    1.6490   16.4350 C.3    61  SER61       0.1889
     12  C         29.1550    0.7810   17.2980 C.2    61  SER61       0.2288
     13  O         30.3350    1.0760   17.3930 O.2    61  SER61      -0.2866
     14  CB        28.1160    3.0390   17.0470 C.3    61  SER61       0.2089
     15  OG        27.5950    3.9450   16.0950 O.3    61  SER61      -0.2183
     16  N         27.4730   12.3540   10.8500 N.3   117  GLN117     -0.1245
     17  CA        26.9170   11.5680    9.7520 C.3   117  GLN117      0.1566
     18  C         27.5760   11.9480    8.4250 C.2   117  GLN117      0.2260
     19  O         27.7770   13.1330    8.1380 O.2   117  GLN117     -0.2867
     20  CB        25.3940   11.8050    9.6290 C.3   117  GLN117      0.0367
     21  CG        24.5560   11.5550   10.9180 C.3   117  GLN117      0.0905
     22  CD        23.8040   12.7860   11.4660 C.2   117  GLN117      0.2608
     23  OE1       22.6750   12.6560   11.9500 O.2   117  GLN117     -0.2717
     24  NE2       24.4220   13.9620   11.4090 N.am  117  GLN117     -0.0878
     25  N         30.9390    9.1820   12.6050 N.3   149  ASN149     -0.1240
     26  CA        31.0590    8.0570   11.6800 C.3   149  ASN149      0.1653
     27  C         31.9760    8.4060   10.5120 C.2   149  ASN149      0.2266
     28  O         32.6440    7.5340    9.9730 O.2   149  ASN149     -0.2867
     29  CB        29.7000    7.6110   11.1210 C.3   149  ASN149      0.1155
     30  CG        28.7750    7.0330   12.1710 C.2   149  ASN149      0.2627
     31  OD1       29.2100    6.4860   13.1870 O.2   149  ASN149     -0.2716
     32  ND2       27.4690    7.1500   11.9230 N.am  149  ASN149     -0.0877
     33  N         11.2100    0.4500   14.8590 N.3   201  ARG201     -0.1245
     34  CA        11.2430    1.8980   15.0160 C.3   201  ARG201      0.1563
     35  C          9.8370    2.4530   14.8320 C.2   201  ARG201      0.2260
     36  O          9.2590    2.3380   13.7530 O.2   201  ARG201     -0.2867
     37  CB        12.1770    2.5150   13.9760 C.3   201  ARG201      0.0307
     38  CG        12.2570    4.0190   14.0440 C.3   201  ARG201      0.0489
     39  CD        13.3480    4.5360   13.1410 C.3   201  ARG201      0.2205
     40  NE        13.5330    5.9740   13.2880 N.pl3 201  ARG201     -0.0865
     41  CZ        14.5490    6.6670   12.7700 C.cat 201  ARG201      0.5346
     42  NH1       15.5130    6.0620   12.0670 N.pl3 201  ARG201      0.1354
     43  NH2       14.6030    7.9820   12.9600 N.pl3 201  ARG201      0.1354
     44  N         12.2580   -2.5940   10.5670 N.3   206  VAL206     -0.1231
     45  CA        13.2780   -1.9560    9.7470 C.3   206  VAL206      0.1692
     46  C         14.6250   -2.6700    9.8680 C.2   206  VAL206      0.2592
     47  O         14.9480   -3.2650   10.9010 O.2   206  VAL206     -0.2718
     48  CB        13.4480   -0.4580   10.1080 C.3   206  VAL206      0.0266
     49  CG1       12.1450    0.3090    9.8540 C.3   206  VAL206      0.0020
     50  CG2       13.9100   -0.2800   11.5560 C.3   206  VAL206      0.0020
     51  N         15.3820   -2.6180    8.7800 N.am  207  HIS207     -0.1962
     52  CA        16.7760   -3.0320    8.7610 C.3   207  HIS207      0.1787
     53  C         17.6130   -1.8320    8.3600 C.2   207  HIS207      0.2620
     54  O         17.0950   -0.8510    7.8180 O.2   207  HIS207     -0.2715
     55  CB        16.9950   -4.1990    7.7940 C.3   207  HIS207      0.0785
     56  CG        16.6760   -5.5380    8.3830 C.ar  207  HIS207      0.0821
     57  ND1       16.2290   -6.6000    7.6290 N.ar  207  HIS207     -0.2267
     58  CD2       16.7470   -5.9870    9.6590 C.ar  207  HIS207      0.1154
     59  CE1       16.0440   -7.6480    8.4150 C.ar  207  HIS207      0.1986
     60  NE2       16.3470   -7.3010    9.6530 N.ar  207  HIS207     -0.2212
     61  N         18.9050   -1.9090    8.6450 N.am  208  VAL208     -0.1963
     62  CA        19.8070   -0.7930    8.3890 C.3   208  VAL208      0.1727
     63  C         19.9150   -0.5100    6.8890 C.2   208  VAL208      0.2616
     64  O         19.9230   -1.4280    6.0680 O.2   208  VAL208     -0.2715
     65  CB        21.2010   -1.0320    9.0190 C.3   208  VAL208      0.0290
     66  CG1       21.8630   -2.2630    8.4160 C.3   208  VAL208      0.0023
     67  CG2       22.0750    0.2070    8.8740 C.3   208  VAL208      0.0023
     68  N         19.9530    0.7760    6.5560 N.am  209  SER209     -0.1950
     69  CA        20.0780    1.2460    5.1810 C.3   209  SER209      0.1924
     70  C         21.5360    1.2790    4.7450 C.2   209  SER209      0.2314
     71  O         22.4070    1.6260    5.5400 O.2   209  SER209     -0.2863
     72  CB        19.5020    2.6590    5.0540 C.3   209  SER209      0.2116
     73  OG        18.0830    2.6220    5.0060 O.3   209  SER209     -0.2180
     74  N         29.2190    1.2800   11.3450 N.3   218  TYR218     -0.1241
     75  CA        28.0080    0.7140   11.9730 C.3   218  TYR218      0.1605
     76  C         27.4200   -0.5370   11.3020 C.2   218  TYR218      0.2264
     77  O         26.2400   -0.8510   11.4930 O.2   218  TYR218     -0.2867
     78  CB        26.9270    1.8080   12.0850 C.3   218  TYR218      0.0534
     79  CG        26.5480    2.4700   10.7660 C.ar  218  TYR218     -0.0201
     80  CD1       25.5960    1.9030    9.9260 C.ar  218  TYR218     -0.0009
     81  CD2       27.1320    3.6740   10.3760 C.ar  218  TYR218     -0.0009
     82  CE1       25.2410    2.5070    8.7260 C.ar  218  TYR218      0.0417
     83  CE2       26.7920    4.2820    9.1830 C.ar  218  TYR218      0.0417
     84  CZ        25.8400    3.6950    8.3570 C.ar  218  TYR218      0.1957
     85  OH        25.4900    4.2980    7.1760 O.3   218  TYR218     -0.2866
     86  N         23.8880    1.8460   18.1320 N.3   315  ALA315     -0.1231
     87  CA        22.5090    1.8370   17.6820 C.3   315  ALA315      0.1694
     88  C         22.4020    1.8690   16.1610 C.2   315  ALA315      0.2593
     89  O         23.3100    2.3330   15.4570 O.2   315  ALA315     -0.2718
     90  CB        21.7350    3.0220   18.2930 C.3   315  ALA315      0.0304
     91  N         21.2990    1.3270   15.6600 N.am  316  THR316     -0.1939
     92  CA        20.8120    1.6560   14.3220 C.3   316  THR316      0.2028
     93  C         19.3960    2.1980   14.5070 C.2   316  THR316      0.2643
     94  O         18.9490    2.4120   15.6370 O.2   316  THR316     -0.2714
     95  CB        20.8350    0.4610   13.3500 C.3   316  THR316      0.1808
     96  OG1       19.9120   -0.5460   13.7830 O.3   316  THR316     -0.2208
     97  CG2       22.2330   -0.1230   13.2290 C.3   316  THR316      0.0379
     98  N         18.6990    2.4590   13.4110 N.am  317  GLY317     -0.1939
     99  CA        17.3290    2.9370   13.4800 C.3   317  GLY317      0.2014
    100  C         16.4290    2.0070   14.2840 C.2   317  GLY317      0.2639
    101  O         15.5690    2.4630   15.0360 O.2   317  GLY317     -0.2714
    102  N         16.6460    0.7030   14.1350 N.am  318  GLY318     -0.1954
    103  CA        15.8060   -0.3030   14.7730 C.3   318  GLY318      0.1869
    104  C         16.4350   -1.1570   15.8600 C.2   318  GLY318      0.2309
    105  O         15.7730   -2.0570   16.3570 O.2   318  GLY318     -0.2863
@<TRIPOS>BOND
     1    70    69    1
     2    70    71    2
     3    73    72    1
     4    72    69    1
     5    69    68    1
     6    64    63    2
     7    68    63   am
     8    63    62    1
     9    85    84    1
    10    57    56   ar
    11    57    59   ar
    12    55    56    1
    13    55    52    1
    14    54    53    2
    15    19    18    2
    16    84    82   ar
    17    84    83   ar
    18    53    61   am
    19    53    52    1
    20    56    58   ar
    21    62    61    1
    22    62    65    1
    23    59    60   ar
    24    66    65    1
    25    18    17    1
    26    82    80   ar
    27    52    51    1
    28    51    46   am
    29    67    65    1
    30    83    81   ar
    31    20    17    1
    32    20    21    1
    33    60    58   ar
    34    45    46    1
    35    45    48    1
    36    45    44    1
    37    17    16    1
    38    49    48    1
    39    46    47    2
    40    80    79   ar
    41    28    27    2
    42    48    50    1
    43    81    79   ar
    44     9     7   ar
    45    27    26    1
    46    79    78    1
    47    21    22    1
    48    29    26    1
    49    29    30    1
    50    76    77    2
    51    76    75    1
    52    74    75    1
    53    24    22   am
    54     7     8   ar
    55     7     6    1
    56    22    23    2
    57    26    25    1
    58    32    30   am
    59    75    78    1
    60    42    41    1
    61     6     5    1
    62    30    31    2
    63    41    43    1
    64    41    40    2
    65    39    40    1
    66    39    38    1
    67    97    95    1
    68    95    96    1
    69    95    92    1
    70    98    99    1
    71    98    93   am
    72     5     2    1
    73    99   100    1
    74    36    35    2
    75    37    38    1
    76    37    34    1
    77   102   100   am
    78   102   103    1
    79     2     1    1
    80     2     3    1
    81   100   101    2
    82    92    93    1
    83    92    91    1
    84    93    94    2
    85   103   104    1
    86    35    34    1
    87    33    34    1
    88     3     4    2
    89    89    88    2
    90    91    88   am
    91   104   105    2
    92    15    14    1
    93    88    87    1
    94    10    11    1
    95    11    14    1
    96    11    12    1
    97    12    13    2
    98    87    86    1
    99    87    90    1
