@<TRIPOS>MOLECULE
tmp/3gtcB01.pdb
 103 99 0 0 0
SMALL
GASTEIGER

@<TRIPOS>ATOM
      1  N         56.2830   11.2050   41.3610 N.3    89  TYR89      -0.1227
      2  CA        57.0940   10.2080   42.0600 C.3    89  TYR89       0.1736
      3  C         58.1860   10.8150   42.9310 C.2    89  TYR89       0.2595
      4  O         58.7840   10.1160   43.7320 O.2    89  TYR89      -0.2718
      5  CB        57.6850    9.2240   41.0440 C.3    89  TYR89       0.0548
      6  CG        56.5870    8.5840   40.2380 C.ar   89  TYR89      -0.0200
      7  CD1       56.3390    8.9670   38.9260 C.ar   89  TYR89      -0.0009
      8  CD2       55.7300    7.6630   40.8260 C.ar   89  TYR89      -0.0009
      9  CE1       55.2970    8.4060   38.2040 C.ar   89  TYR89       0.0417
     10  CE2       54.6900    7.1030   40.1170 C.ar   89  TYR89       0.0417
     11  CZ        54.4800    7.4710   38.8120 C.ar   89  TYR89       0.1957
     12  OH        53.4380    6.9120   38.1240 O.3    89  TYR89      -0.2866
     13  N         58.4360   12.1130   42.7740 N.am   90  TRP90      -0.1963
     14  CA        59.3680   12.8350   43.6350 C.3    90  TRP90       0.1756
     15  C         58.7560   14.1920   43.9800 C.2    90  TRP90       0.2461
     16  O         59.1340   15.2090   43.4000 O.2    90  TRP90      -0.2730
     17  CB        60.7210   13.0090   42.9350 C.3    90  TRP90       0.0590
     18  CG        61.8790   13.2860   43.8580 C.ar   90  TRP90       0.0006
     19  CD1       61.8340   13.4680   45.2080 C.ar   90  TRP90       0.0946
     20  CD2       63.2530   13.4400   43.4800 C.ar   90  TRP90       0.0152
     21  NE1       63.0940   13.7080   45.6980 N.ar   90  TRP90      -0.2442
     22  CE2       63.9850   13.7000   44.6590 C.ar   90  TRP90       0.0810
     23  CE3       63.9370   13.3820   42.2620 C.ar   90  TRP90       0.0012
     24  CZ2       65.3670   13.8930   44.6550 C.ar   90  TRP90       0.0191
     25  CZ3       65.3100   13.5720   42.2580 C.ar   90  TRP90       0.0001
     26  CH2       66.0110   13.8270   43.4480 C.ar   90  TRP90       0.0015
     27  N         57.7930   14.2100   44.9240 N.am   91  PRO91      -0.2716
     28  CA        57.0530   15.4350   45.2470 C.3    91  PRO91       0.1536
     29  C         57.9250   16.5940   45.7390 C.2    91  PRO91       0.2598
     30  O         57.5180   17.7440   45.6400 O.2    91  PRO91      -0.2715
     31  CB        56.0830   14.9830   46.3510 C.3    91  PRO91       0.0310
     32  CG        55.9890   13.5150   46.2050 C.3    91  PRO91       0.0237
     33  CD        57.3330   13.0710   45.7430 C.3    91  PRO91       0.0939
     34  N         59.1220   16.2910   46.2350 N.am   92  GLU92      -0.1978
     35  CA        60.0500   17.3150   46.7330 C.3    92  GLU92       0.1602
     36  C         60.7510   18.0650   45.5910 C.2    92  GLU92       0.2287
     37  O         61.3970   19.0990   45.8060 O.2    92  GLU92      -0.2864
     38  CB        61.0740   16.6730   47.6780 C.3    92  GLU92       0.0415
     39  CG        60.4750   16.1310   48.9990 C.3    92  GLU92       0.1163
     40  CD        59.6650   14.8320   48.8560 C.2    92  GLU92       0.3649
     41  OE1       59.7410   14.1550   47.8020 O.co2  92  GLU92      -0.2457
     42  OE2       58.9310   14.4840   49.8130 O.co2  92  GLU92      -0.2457
     43  N         71.0470   11.3260   48.9090 N.3   125  SER125     -0.1217
     44  CA        69.7000   11.7350   48.4870 C.3   125  SER125      0.1889
     45  C         69.5360   13.2460   48.5360 C.2   125  SER125      0.2288
     46  O         68.9450   13.8580   47.6380 O.2   125  SER125     -0.2866
     47  CB        68.6380   11.1060   49.3940 C.3   125  SER125      0.2089
     48  OG        68.5890    9.7050   49.2220 O.3   125  SER125     -0.2183
     49  N         71.3920   14.8460   45.8050 N.3   128  LEU128     -0.1245
     50  CA        70.7260   14.5670   44.5360 C.3   128  LEU128      0.1561
     51  C         69.5090   15.4870   44.3470 C.2   128  LEU128      0.2260
     52  O         69.2980   16.0260   43.2570 O.2   128  LEU128     -0.2867
     53  CB        70.3490   13.0770   44.4640 C.3   128  LEU128      0.0270
     54  CG        70.5090   12.2830   43.1590 C.3   128  LEU128      0.0019
     55  CD1       71.7770   12.6130   42.3880 C.3   128  LEU128      0.0001
     56  CD2       70.4820   10.8000   43.4850 C.3   128  LEU128      0.0001
     57  N         67.5390    8.8300   36.6310 N.3   154  LEU154     -0.1245
     58  CA        66.3990    9.2520   37.4370 C.3   154  LEU154      0.1561
     59  C         65.1380    8.4720   37.0810 C.2   154  LEU154      0.2260
     60  O         64.3820    8.1040   37.9650 O.2   154  LEU154     -0.2867
     61  CB        66.1490   10.7600   37.2970 C.3   154  LEU154      0.0270
     62  CG        65.0940   11.3750   38.2230 C.3   154  LEU154      0.0019
     63  CD1       65.3680   11.0500   39.6920 C.3   154  LEU154      0.0001
     64  CD2       65.0290   12.8650   38.0290 C.3   154  LEU154      0.0001
     65  N         65.1910    5.1590   38.8730 N.3   157  ALA157     -0.1231
     66  CA        64.9310    5.3960   40.2960 C.3   157  ALA157      0.1694
     67  C         63.4460    5.6080   40.5800 C.2   157  ALA157      0.2591
     68  O         62.8960    5.0160   41.5130 O.2   157  ALA157     -0.2718
     69  CB        65.7410    6.5910   40.7990 C.3   157  ALA157      0.0304
     70  N         62.7980    6.4390   39.7680 N.am  158  LEU158     -0.1980
     71  CA        61.3840    6.7490   39.9580 C.3   158  LEU158      0.1596
     72  C         60.4740    5.6240   39.4890 C.2   158  LEU158      0.2287
     73  O         59.4190    5.4110   40.0740 O.2   158  LEU158     -0.2864
     74  CB        61.0160    8.0510   39.2460 C.3   158  LEU158      0.0297
     75  CG        61.8450    9.2760   39.6400 C.3   158  LEU158      0.0022
     76  CD1       61.3640   10.5090   38.8870 C.3   158  LEU158      0.0001
     77  CD2       61.8290    9.5220   41.1570 C.3   158  LEU158      0.0001
     78  N         59.4850    3.2460   42.2930 N.3   161  LYS161     -0.1245
     79  CA        58.9700    3.8170   43.5450 C.3   161  LYS161      0.1561
     80  C         57.6170    3.2280   43.9750 C.2   161  LYS161      0.2260
     81  O         57.4680    2.8320   45.1400 O.2   161  LYS161     -0.2867
     82  CB        58.9100    5.3450   43.4650 C.3   161  LYS161      0.0271
     83  CG        60.2830    6.0050   43.5520 C.3   161  LYS161      0.0035
     84  CD        60.6970    6.2030   44.9870 C.3   161  LYS161      0.0206
     85  CE        62.1900    6.1490   45.1760 C.3   161  LYS161      0.1093
     86  NZ        62.5730    6.7350   46.5020 N.3   161  LYS161     -0.1314
     87  N         73.1440    7.1820   41.2440 N.3   213  LEU213     -0.1245
     88  CA        72.3530    6.5260   40.1940 C.3   213  LEU213      0.1561
     89  C         73.1760    5.6110   39.2790 C.2   213  LEU213      0.2260
     90  O         72.8650    5.4810   38.0930 O.2   213  LEU213     -0.2867
     91  CB        71.5770    7.5650   39.3590 C.3   213  LEU213      0.0270
     92  CG        70.5900    8.4560   40.1270 C.3   213  LEU213      0.0019
     93  CD1       70.0640    9.5980   39.2640 C.3   213  LEU213      0.0001
     94  CD2       69.4420    7.6280   40.6560 C.3   213  LEU213      0.0001
     95  N         71.3010    2.3120   37.9850 N.3   216  GLU216     -0.1245
     96  CA        70.2920    2.6470   36.9890 C.3   216  GLU216      0.1567
     97  C         70.8770    2.9710   35.6090 C.2   216  GLU216      0.2260
     98  O         70.2820    2.6210   34.5870 O.2   216  GLU216     -0.2867
     99  CB        69.4550    3.8370   37.4820 C.3   216  GLU216      0.0388
    100  CG        68.6100    3.5560   38.7410 C.3   216  GLU216      0.1160
    101  CD        69.3540    3.7170   40.0660 C.2   216  GLU216      0.3649
    102  OE1       70.6000    3.8470   40.0800 O.co2 216  GLU216     -0.2457
    103  OE2       68.6770    3.7020   41.1110 O.co2 216  GLU216     -0.2457
@<TRIPOS>BOND
     1    98    97    2
     2    97    96    1
     3    57    58    1
     4    96    99    1
     5    96    95    1
     6    59    58    1
     7    59    60    2
     8    61    58    1
     9    61    62    1
    10    99   100    1
    11    64    62    1
    12    90    89    2
    13    12    11    1
    14     9    11   ar
    15     9     7   ar
    16    62    63    1
    17   100   101    1
    18    11    10   ar
    19    65    66    1
    20    76    75    1
    21     7     6   ar
    22    74    75    1
    23    74    71    1
    24    93    92    1
    25    89    88    1
    26    91    92    1
    27    91    88    1
    28    72    71    1
    29    72    73    2
    30    75    77    1
    31    70    71    1
    32    70    67   am
    33   101   102   ar
    34   101   103   ar
    35    10     8   ar
    36    92    94    1
    37    88    87    1
    38     6     8   ar
    39     6     5    1
    40    66    67    1
    41    66    69    1
    42    67    68    2
    43     5     2    1
    44     1     2    1
    45     2     3    1
    46    25    23   ar
    47    25    26   ar
    48    23    20   ar
    49    78    79    1
    50    55    54    1
    51    13     3   am
    52    13    14    1
    53     3     4    2
    54    17    14    1
    55    17    18    1
    56    54    56    1
    57    54    53    1
    58    52    51    2
    59    16    15    2
    60    26    24   ar
    61    82    79    1
    62    82    83    1
    63    20    18   ar
    64    20    22   ar
    65    79    80    1
    66    83    84    1
    67    14    15    1
    68    18    19   ar
    69    80    81    2
    70    15    27   am
    71    51    50    1
    72    53    50    1
    73    50    49    1
    74    24    22   ar
    75    22    21   ar
    76    27    28    1
    77    27    33    1
    78    84    85    1
    79    85    86    1
    80    19    21   ar
    81    28    29    1
    82    28    31    1
    83    36    37    2
    84    36    35    1
    85    30    29    2
    86    29    34   am
    87    33    32    1
    88    32    31    1
    89    34    35    1
    90    35    38    1
    91    46    45    2
    92    38    39    1
    93    41    40   ar
    94    44    45    1
    95    44    43    1
    96    44    47    1
    97    40    39    1
    98    40    42   ar
    99    48    47    1
