@<TRIPOS>MOLECULE
tmp/3gtcA01.pdb
 125 116 0 0 0
SMALL
GASTEIGER

@<TRIPOS>ATOM
      1  N         26.9200    1.0760   16.1940 N.3    61  SER61      -0.1217
      2  CA        28.2360    1.6490   16.4350 C.3    61  SER61       0.1889
      3  C         29.1550    0.7810   17.2980 C.2    61  SER61       0.2288
      4  O         30.3350    1.0760   17.3930 O.2    61  SER61      -0.2866
      5  CB        28.1160    3.0390   17.0470 C.3    61  SER61       0.2089
      6  OG        27.5950    3.9450   16.0950 O.3    61  SER61      -0.2183
      7  N         29.2030   13.9780   12.4120 N.3   116  LEU116     -0.1231
      8  CA        28.6240   12.7570   12.9400 C.3   116  LEU116      0.1693
      9  C         28.2190   11.8210   11.8180 C.2   116  LEU116      0.2591
     10  O         28.5770   10.6500   11.8350 O.2   116  LEU116     -0.2718
     11  CB        27.4140   13.0710   13.8170 C.3   116  LEU116      0.0284
     12  CG        26.6790   11.8760   14.4260 C.3   116  LEU116      0.0019
     13  CD1       27.6410   10.9260   15.1370 C.3   116  LEU116      0.0001
     14  CD2       25.5920   12.3770   15.3850 C.3   116  LEU116      0.0001
     15  N         27.4730   12.3540   10.8500 N.am  117  GLN117     -0.1979
     16  CA        26.9170   11.5680    9.7520 C.3   117  GLN117      0.1601
     17  C         27.5760   11.9480    8.4250 C.2   117  GLN117      0.2287
     18  O         27.7770   13.1330    8.1380 O.2   117  GLN117     -0.2864
     19  CB        25.3940   11.8050    9.6290 C.3   117  GLN117      0.0394
     20  CG        24.5560   11.5550   10.9180 C.3   117  GLN117      0.0908
     21  CD        23.8040   12.7860   11.4660 C.2   117  GLN117      0.2608
     22  OE1       22.6750   12.6560   11.9500 O.2   117  GLN117     -0.2717
     23  NE2       24.4220   13.9620   11.4090 N.am  117  GLN117     -0.0878
     24  N         32.5070   12.8300   18.3130 N.3   147  TYR147     -0.1241
     25  CA        32.1570   11.4850   17.8480 C.3   147  TYR147      0.1605
     26  C         31.5570   11.5640   16.4490 C.2   147  TYR147      0.2264
     27  O         30.6640   12.3800   16.1900 O.2   147  TYR147     -0.2867
     28  CB        31.1720   10.8570   18.8210 C.3   147  TYR147      0.0534
     29  CG        30.7820    9.4290   18.5320 C.ar  147  TYR147     -0.0201
     30  CD1       29.6600    9.1390   17.7650 C.ar  147  TYR147     -0.0009
     31  CD2       31.5270    8.3680   19.0390 C.ar  147  TYR147     -0.0009
     32  CE1       29.2940    7.8340   17.4930 C.ar  147  TYR147      0.0417
     33  CE2       31.1610    7.0510   18.7900 C.ar  147  TYR147      0.0417
     34  CZ        30.0410    6.7950   18.0230 C.ar  147  TYR147      0.1957
     35  OH        29.6610    5.5070   17.7850 O.3   147  TYR147     -0.2866
     36  N         30.9390    9.1820   12.6050 N.3   149  ASN149     -0.1240
     37  CA        31.0590    8.0570   11.6800 C.3   149  ASN149      0.1653
     38  C         31.9760    8.4060   10.5120 C.2   149  ASN149      0.2266
     39  O         32.6440    7.5340    9.9730 O.2   149  ASN149     -0.2867
     40  CB        29.7000    7.6110   11.1210 C.3   149  ASN149      0.1155
     41  CG        28.7750    7.0330   12.1710 C.2   149  ASN149      0.2627
     42  OD1       29.2100    6.4860   13.1870 O.2   149  ASN149     -0.2716
     43  ND2       27.4690    7.1500   11.9230 N.am  149  ASN149     -0.0877
     44  N         11.2100    0.4500   14.8590 N.3   201  ARG201     -0.1245
     45  CA        11.2430    1.8980   15.0160 C.3   201  ARG201      0.1563
     46  C          9.8370    2.4530   14.8320 C.2   201  ARG201      0.2260
     47  O          9.2590    2.3380   13.7530 O.2   201  ARG201     -0.2867
     48  CB        12.1770    2.5150   13.9760 C.3   201  ARG201      0.0307
     49  CG        12.2570    4.0190   14.0440 C.3   201  ARG201      0.0489
     50  CD        13.3480    4.5360   13.1410 C.3   201  ARG201      0.2205
     51  NE        13.5330    5.9740   13.2880 N.pl3 201  ARG201     -0.0865
     52  CZ        14.5490    6.6670   12.7700 C.cat 201  ARG201      0.5346
     53  NH1       15.5130    6.0620   12.0670 N.pl3 201  ARG201      0.1354
     54  NH2       14.6030    7.9820   12.9600 N.pl3 201  ARG201      0.1354
     55  N         29.2190    1.2800   11.3450 N.3   218  TYR218     -0.1241
     56  CA        28.0080    0.7140   11.9730 C.3   218  TYR218      0.1605
     57  C         27.4200   -0.5370   11.3020 C.2   218  TYR218      0.2264
     58  O         26.2400   -0.8510   11.4930 O.2   218  TYR218     -0.2867
     59  CB        26.9270    1.8080   12.0850 C.3   218  TYR218      0.0534
     60  CG        26.5480    2.4700   10.7660 C.ar  218  TYR218     -0.0201
     61  CD1       25.5960    1.9030    9.9260 C.ar  218  TYR218     -0.0009
     62  CD2       27.1320    3.6740   10.3760 C.ar  218  TYR218     -0.0009
     63  CE1       25.2410    2.5070    8.7260 C.ar  218  TYR218      0.0417
     64  CE2       26.7920    4.2820    9.1830 C.ar  218  TYR218      0.0417
     65  CZ        25.8400    3.6950    8.3570 C.ar  218  TYR218      0.1957
     66  OH        25.4900    4.2980    7.1760 O.3   218  TYR218     -0.2866
     67  N         23.4260   10.9460   24.8230 N.3   286  ASN286     -0.1240
     68  CA        23.9150   11.6420   23.6340 C.3   286  ASN286      0.1653
     69  C         24.1690   13.1370   23.8340 C.2   286  ASN286      0.2266
     70  O         24.9670   13.7250   23.1000 O.2   286  ASN286     -0.2867
     71  CB        22.9550   11.4390   22.4600 C.3   286  ASN286      0.1155
     72  CG        23.0050   10.0320   21.8990 C.2   286  ASN286      0.2627
     73  OD1       24.0110    9.3200   22.0300 O.2   286  ASN286     -0.2716
     74  ND2       21.9220    9.6220   21.2640 N.am  286  ASN286     -0.0877
     75  N         27.6500   12.7390   22.1570 N.3   290  LEU290     -0.1245
     76  CA        27.7870   13.3390   20.8180 C.3   290  LEU290      0.1561
     77  C         28.2700   14.7920   20.8520 C.2   290  LEU290      0.2260
     78  O         28.3990   15.4220   19.8000 O.2   290  LEU290     -0.2867
     79  CB        26.4610   13.2530   20.0580 C.3   290  LEU290      0.0270
     80  CG        25.8460   11.8640   19.8570 C.3   290  LEU290      0.0019
     81  CD1       24.5140   11.9920   19.1250 C.3   290  LEU290      0.0001
     82  CD2       26.7940   10.9240   19.1000 C.3   290  LEU290      0.0001
     83  N         28.5590    1.8360   23.4010 N.3   313  THR313     -0.1203
     84  CA        27.1430    1.7950   23.0420 C.3   313  THR313      0.1994
     85  C         27.0480    1.7780   21.5140 C.2   313  THR313      0.2618
     86  O         27.9750    2.1980   20.8120 O.2   313  THR313     -0.2717
     87  CB        26.3980    3.0280   23.5610 C.3   313  THR313      0.1784
     88  OG1       27.0590    4.1970   23.0810 O.3   313  THR313     -0.2211
     89  CG2       26.3660    3.0680   25.0940 C.3   313  THR313      0.0376
     90  N         25.9300    1.2930   21.0000 N.am  314  GLY314     -0.1942
     91  CA        25.7450    1.2030   19.5540 C.3   314  GLY314      0.2014
     92  C         24.2790    1.1460   19.1940 C.2   314  GLY314      0.2639
     93  O         23.5170    0.4690   19.8610 O.2   314  GLY314     -0.2714
     94  N         23.8880    1.8460   18.1320 N.am  315  ALA315     -0.1963
     95  CA        22.5090    1.8370   17.6820 C.3   315  ALA315      0.1728
     96  C         22.4020    1.8690   16.1610 C.2   315  ALA315      0.2617
     97  O         23.3100    2.3330   15.4570 O.2   315  ALA315     -0.2715
     98  CB        21.7350    3.0220   18.2930 C.3   315  ALA315      0.0334
     99  N         21.2990    1.3270   15.6600 N.am  316  THR316     -0.1937
    100  CA        20.8120    1.6560   14.3220 C.3   316  THR316      0.2028
    101  C         19.3960    2.1980   14.5070 C.2   316  THR316      0.2642
    102  O         18.9490    2.4120   15.6370 O.2   316  THR316     -0.2714
    103  CB        20.8350    0.4610   13.3500 C.3   316  THR316      0.1808
    104  OG1       19.9120   -0.5460   13.7830 O.3   316  THR316     -0.2208
    105  CG2       22.2330   -0.1230   13.2290 C.3   316  THR316      0.0379
    106  N         18.6990    2.4590   13.4110 N.am  317  GLY317     -0.1954
    107  CA        17.3290    2.9370   13.4800 C.3   317  GLY317      0.1869
    108  C         16.4290    2.0070   14.2840 C.2   317  GLY317      0.2309
    109  O         15.5690    2.4630   15.0360 O.2   317  GLY317     -0.2863
    110  N         16.0030    0.7000   19.3410 N.3   340  ASN340     -0.1240
    111  CA        16.9320    1.7300   19.7930 C.3   340  ASN340      0.1653
    112  C         16.3230    2.4800   20.9800 C.2   340  ASN340      0.2266
    113  O         15.5280    3.4000   20.7990 O.2   340  ASN340     -0.2867
    114  CB        17.2570    2.6890   18.6400 C.3   340  ASN340      0.1155
    115  CG        18.2040    3.8190   19.0390 C.2   340  ASN340      0.2627
    116  OD1       18.7590    3.8410   20.1340 O.2   340  ASN340     -0.2716
    117  ND2       18.3890    4.7630   18.1360 N.am  340  ASN340     -0.0877
    118  N         20.5620    5.1990   25.6270 N.3   343  ASN343     -0.1240
    119  CA        21.8430    4.6890   26.1490 C.3   343  ASN343      0.1653
    120  C         21.9400    4.5950   27.6760 C.2   343  ASN343      0.2266
    121  O         22.4690    3.6060   28.1970 O.2   343  ASN343     -0.2867
    122  CB        23.0170    5.5520   25.6540 C.3   343  ASN343      0.1155
    123  CG        23.3240    5.3640   24.1800 C.2   343  ASN343      0.2627
    124  OD1       22.9990    4.3360   23.5740 O.2   343  ASN343     -0.2716
    125  ND2       23.9670    6.3650   23.5960 N.am  343  ASN343     -0.0877
@<TRIPOS>BOND
     1    66    65    1
     2    18    17    2
     3    65    63   ar
     4    65    64   ar
     5    17    16    1
     6    63    61   ar
     7    64    62   ar
     8    19    16    1
     9    19    20    1
    10    16    15    1
    11    61    60   ar
    12    39    38    2
    13    62    60   ar
    14    38    37    1
    15    60    59    1
    16    15     9   am
    17    20    21    1
    18    40    37    1
    19    40    41    1
    20    57    58    2
    21    57    56    1
    22    55    56    1
    23    23    21   am
    24    21    22    2
    25    37    36    1
    26     9    10    2
    27     9     8    1
    28    43    41   am
    29    56    59    1
    30    53    52    1
    31    41    42    2
    32     7     8    1
    33    52    54    1
    34    52    51    2
    35     8    11    1
    36    50    51    1
    37    50    49    1
    38   105   103    1
    39   103   104    1
    40   103   100    1
    41   106   107    1
    42   106   101   am
    43   107   108    1
    44    47    46    2
    45    11    12    1
    46    48    49    1
    47    48    45    1
    48   108   109    2
    49   100   101    1
    50   100    99    1
    51    12    13    1
    52    12    14    1
    53   101   102    2
    54    46    45    1
    55    44    45    1
    56    97    96    2
    57    99    96   am
    58     6     5    1
    59    96    95    1
    60    27    26    2
    61     1     2    1
    62     2     5    1
    63     2     3    1
    64    26    25    1
    65     3     4    2
    66    32    30   ar
    67    32    34   ar
    68    95    94    1
    69    95    98    1
    70    30    29   ar
    71    35    34    1
    72    25    24    1
    73    25    28    1
    74    34    33   ar
    75    94    92   am
    76   117   115   am
    77    29    28    1
    78    29    31   ar
    79   114   115    1
    80   114   111    1
    81    33    31   ar
    82   115   116    2
    83    82    80    1
    84    81    80    1
    85    92    91    1
    86    92    93    2
    87   110   111    1
    88    91    90    1
    89   111   112    1
    90    78    77    2
    91    80    79    1
    92    79    76    1
    93   113   112    2
    94    86    85    2
    95    76    77    1
    96    76    75    1
    97    90    85   am
    98    74    72   am
    99    85    84    1
   100    72    73    2
   101    72    71    1
   102    71    68    1
   103    84    83    1
   104    84    87    1
   105    88    87    1
   106    70    69    2
   107    87    89    1
   108   124   123    2
   109   125   123   am
   110    68    69    1
   111    68    67    1
   112   123   122    1
   113   118   119    1
   114   122   119    1
   115   119   120    1
   116   120   121    2
