@<TRIPOS>MOLECULE
tmp/3gtsB00.pdb
 166 155 0 0 0
SMALL
GASTEIGER

@<TRIPOS>ATOM
      1  N         64.0160  -47.1130  -41.7230 N.3   154  LEU154     -0.1245
      2  CA        64.0230  -47.8170  -42.9990 C.3   154  LEU154      0.1561
      3  C         64.8730  -49.0960  -43.0270 C.2   154  LEU154      0.2260
      4  O         64.5020  -50.0650  -43.6770 O.2   154  LEU154     -0.2867
      5  CB        64.4590  -46.8530  -44.1020 C.3   154  LEU154      0.0270
      6  CG        63.3730  -45.8000  -44.3530 C.3   154  LEU154      0.0019
      7  CD1       63.9430  -44.5520  -44.9930 C.3   154  LEU154      0.0001
      8  CD2       62.2840  -46.4370  -45.2200 C.3   154  LEU154      0.0001
      9  N         62.7970  -52.2830  -41.5100 N.3   157  LEU157     -0.1245
     10  CA        61.4610  -52.2700  -42.0940 C.3   157  LEU157      0.1561
     11  C         60.4320  -53.0510  -41.2870 C.2   157  LEU157      0.2260
     12  O         59.2250  -52.8660  -41.4660 O.2   157  LEU157     -0.2867
     13  CB        61.5150  -52.8160  -43.5230 C.3   157  LEU157      0.0270
     14  CG        62.3380  -52.0010  -44.5270 C.3   157  LEU157      0.0019
     15  CD1       62.3660  -52.7180  -45.8750 C.3   157  LEU157      0.0001
     16  CD2       61.7310  -50.5970  -44.6700 C.3   157  LEU157      0.0001
     17  N         59.3160  -52.7170  -38.3640 N.3   159  HIS159     -0.1226
     18  CA        58.3820  -51.8860  -37.6000 C.3   159  HIS159      0.1752
     19  C         57.0110  -51.7510  -38.2660 C.2   159  HIS159      0.2595
     20  O         56.0020  -51.5490  -37.5880 O.2   159  HIS159     -0.2718
     21  CB        58.9620  -50.4870  -37.3810 C.3   159  HIS159      0.0759
     22  CG        59.0670  -49.6780  -38.6340 C.ar  159  HIS159      0.0818
     23  ND1       59.9980  -49.9450  -39.6150 N.ar  159  HIS159     -0.2268
     24  CD2       58.3310  -48.6380  -39.0870 C.ar  159  HIS159      0.1154
     25  CE1       59.8290  -49.1040  -40.6200 C.ar  159  HIS159      0.1986
     26  NE2       58.8230  -48.3010  -40.3250 N.ar  159  HIS159     -0.2212
     27  N         56.9760  -51.8580  -39.5920 N.am  160  ALA160     -0.1980
     28  CA        55.7200  -51.7440  -40.3280 C.3   160  ALA160      0.1597
     29  C         54.6440  -52.6130  -39.6870 C.2   160  ALA160      0.2287
     30  O         53.4550  -52.2960  -39.7460 O.2   160  ALA160     -0.2864
     31  CB        55.9250  -52.1500  -41.7830 C.3   160  ALA160      0.0319
     32  N         52.7880  -49.3540  -39.0100 N.3   164  HIS164     -0.1241
     33  CA        51.8600  -49.2970  -40.1350 C.3   164  HIS164      0.1621
     34  C         50.8380  -50.4100  -39.9550 C.2   164  HIS164      0.2264
     35  O         50.2720  -50.9310  -40.9140 O.2   164  HIS164     -0.2867
     36  CB        52.6100  -49.4840  -41.4500 C.3   164  HIS164      0.0745
     37  CG        53.7910  -48.5800  -41.6020 C.ar  164  HIS164      0.0817
     38  ND1       53.7070  -47.2130  -41.4530 N.ar  164  HIS164     -0.2268
     39  CD2       55.0830  -48.8470  -41.9060 C.ar  164  HIS164      0.1154
     40  CE1       54.8960  -46.6760  -41.6590 C.ar  164  HIS164      0.1986
     41  NE2       55.7480  -47.6460  -41.9370 N.ar  164  HIS164     -0.2212
     42  N         50.7240  -52.6510  -43.5130 N.3   168  ALA168     -0.1245
     43  CA        51.7370  -53.6950  -43.6470 C.3   168  ALA168      0.1562
     44  C         51.5620  -54.8690  -42.6930 C.2   168  ALA168      0.2260
     45  O         52.4740  -55.6770  -42.5250 O.2   168  ALA168     -0.2867
     46  CB        53.1220  -53.0870  -43.4640 C.3   168  ALA168      0.0290
     47  N         47.7940  -53.9760  -48.1270 N.3   201  LEU201     -0.1231
     48  CA        48.6110  -53.3670  -49.1670 C.3   201  LEU201      0.1693
     49  C         48.9830  -54.3810  -50.2450 C.2   201  LEU201      0.2591
     50  O         48.6990  -54.1730  -51.4230 O.2   201  LEU201     -0.2718
     51  CB        49.8830  -52.7700  -48.5590 C.3   201  LEU201      0.0284
     52  CG        50.8210  -52.0470  -49.5300 C.3   201  LEU201      0.0019
     53  CD1       50.0960  -50.8710  -50.1650 C.3   201  LEU201      0.0001
     54  CD2       52.0520  -51.5680  -48.7890 C.3   201  LEU201      0.0001
     55  N         49.6220  -55.4760  -49.8450 N.am  202  MET202     -0.1979
     56  CA        50.0190  -56.5050  -50.8020 C.3   202  MET202      0.1605
     57  C         48.7890  -57.0230  -51.5360 C.2   202  MET202      0.2287
     58  O         48.8560  -57.3860  -52.7130 O.2   202  MET202     -0.2864
     59  CB        50.7390  -57.6510  -50.0860 C.3   202  MET202      0.0413
     60  CG        51.9960  -57.1990  -49.3490 C.3   202  MET202      0.0598
     61  SD        53.0900  -56.1910  -50.3910 S.3   202  MET202     -0.1393
     62  CE        54.4240  -57.3400  -50.6900 C.3   202  MET202      0.0692
     63  N         47.9950  -54.9290  -54.1640 N.3   205  PHE205     -0.1241
     64  CA        49.0440  -55.1150  -55.1660 C.3   205  PHE205      0.1605
     65  C         48.6190  -56.1760  -56.1720 C.2   205  PHE205      0.2264
     66  O         48.5310  -55.9140  -57.3710 O.2   205  PHE205     -0.2867
     67  CB        50.3530  -55.5480  -54.4980 C.3   205  PHE205      0.0534
     68  CG        51.2300  -54.4040  -54.0720 C.ar  205  PHE205     -0.0203
     69  CD1       50.7230  -53.3650  -53.3100 C.ar  205  PHE205     -0.0042
     70  CD2       52.5690  -54.3740  -54.4280 C.ar  205  PHE205     -0.0042
     71  CE1       51.5350  -52.3170  -52.9110 C.ar  205  PHE205     -0.0003
     72  CE2       53.3860  -53.3300  -54.0330 C.ar  205  PHE205     -0.0003
     73  CZ        52.8680  -52.2990  -53.2720 C.ar  205  PHE205     -0.0000
     74  N         60.9290  -58.3300  -48.8880 N.3   217  ASN217     -0.1240
     75  CA        61.1850  -56.9780  -48.4140 C.3   217  ASN217      0.1653
     76  C         62.6630  -56.7400  -48.1630 C.2   217  ASN217      0.2266
     77  O         63.1380  -56.9040  -47.0410 O.2   217  ASN217     -0.2867
     78  CB        60.4210  -56.7160  -47.1170 C.3   217  ASN217      0.1155
     79  CG        58.9720  -56.3450  -47.3540 C.2   217  ASN217      0.2627
     80  OD1       58.3500  -56.7920  -48.3210 O.2   217  ASN217     -0.2716
     81  ND2       58.4170  -55.5330  -46.4570 N.am  217  ASN217     -0.0877
     82  N         64.5020  -49.8910  -51.6930 N.3   229  ASN229     -0.1240
     83  CA        63.9980  -51.1580  -51.2060 C.3   229  ASN229      0.1653
     84  C         63.3930  -52.0080  -52.3030 C.2   229  ASN229      0.2266
     85  O         63.2130  -51.5580  -53.4280 O.2   229  ASN229     -0.2867
     86  CB        62.9830  -50.9530  -50.0660 C.3   229  ASN229      0.1155
     87  CG        61.6810  -50.3160  -50.5270 C.2   229  ASN229      0.2627
     88  OD1       61.3480  -50.3220  -51.7190 O.2   229  ASN229     -0.2716
     89  ND2       60.9210  -49.7820  -49.5730 N.am  229  ASN229     -0.0877
     90  N         60.1190  -54.4040  -52.6290 N.3   231  ILE231     -0.1245
     91  CA        58.8990  -54.9590  -52.0660 C.3   231  ILE231      0.1561
     92  C         58.2930  -55.8360  -53.1340 C.2   231  ILE231      0.2260
     93  O         57.8480  -55.3450  -54.1700 O.2   231  ILE231     -0.2867
     94  CB        57.8900  -53.8650  -51.7070 C.3   231  ILE231      0.0252
     95  CG1       58.5150  -52.9090  -50.6950 C.3   231  ILE231      0.0019
     96  CG2       56.6250  -54.4890  -51.1370 C.3   231  ILE231      0.0019
     97  CD1       58.9530  -53.5890  -49.4200 C.3   231  ILE231      0.0001
     98  N         57.9090  -53.5800  -56.5170 N.3   246  SER246     -0.1217
     99  CA        58.0370  -52.1340  -56.4020 C.3   246  SER246      0.1889
    100  C         59.3880  -51.7820  -55.7900 C.2   246  SER246      0.2288
    101  O         59.6920  -52.2080  -54.6750 O.2   246  SER246     -0.2866
    102  CB        56.9460  -51.5660  -55.4990 C.3   246  SER246      0.2089
    103  OG        57.3430  -50.2960  -55.0020 O.3   246  SER246     -0.2183
    104  N         61.3000  -49.1470  -54.0710 N.3   248  GLY248     -0.1225
    105  CA        61.0540  -47.8850  -53.4010 C.3   248  GLY248      0.1811
    106  C         62.2430  -46.9870  -53.1350 C.2   248  GLY248      0.2280
    107  O         63.2400  -47.4110  -52.5510 O.2   248  GLY248     -0.2866
    108  N         63.9520  -44.2750  -51.1030 N.3   250  HIS250     -0.1241
    109  CA        63.8440  -43.7340  -49.7470 C.3   250  HIS250      0.1621
    110  C         65.1530  -43.0490  -49.4330 C.2   250  HIS250      0.2264
    111  O         66.0920  -43.6600  -48.9370 O.2   250  HIS250     -0.2867
    112  CB        63.5410  -44.8510  -48.7560 C.3   250  HIS250      0.0745
    113  CG        62.1930  -45.4660  -48.9620 C.ar  250  HIS250      0.0817
    114  ND1       61.0360  -44.9120  -48.4570 N.ar  250  HIS250     -0.2268
    115  CD2       61.8080  -46.5420  -49.6890 C.ar  250  HIS250      0.1154
    116  CE1       59.9980  -45.6180  -48.8680 C.ar  250  HIS250      0.1986
    117  NE2       60.4390  -46.6110  -49.6190 N.ar  250  HIS250     -0.2212
    118  N         59.6240  -42.5040  -53.2040 N.3   265  GLY265     -0.1210
    119  CA        58.9950  -42.8150  -54.4630 C.3   265  GLY265      0.1956
    120  C         58.8290  -44.3030  -54.6350 C.2   265  GLY265      0.2612
    121  O         59.4380  -45.1020  -53.9210 O.2   265  GLY265     -0.2717
    122  N         57.9900  -44.6690  -55.5920 N.am  266  SER266     -0.1952
    123  CA        57.7290  -46.0600  -55.9000 C.3   266  SER266      0.1924
    124  C         57.9000  -46.2610  -57.3870 C.2   266  SER266      0.2314
    125  O         57.3520  -45.5040  -58.1890 O.2   266  SER266     -0.2863
    126  CB        56.3010  -46.4430  -55.4990 C.3   266  SER266      0.2116
    127  OG        55.9160  -47.6570  -56.1250 O.3   266  SER266     -0.2180
    128  N         49.6350  -46.3790  -54.2180 N.3   281  LEU281     -0.1245
    129  CA        50.9860  -46.0970  -53.7540 C.3   281  LEU281      0.1561
    130  C         51.0800  -44.7210  -53.1000 C.2   281  LEU281      0.2260
    131  O         51.6210  -44.5870  -52.0030 O.2   281  LEU281     -0.2867
    132  CB        51.9710  -46.2200  -54.9160 C.3   281  LEU281      0.0270
    133  CG        52.2310  -47.6880  -55.2720 C.3   281  LEU281      0.0019
    134  CD1       53.0940  -47.7840  -56.5050 C.3   281  LEU281      0.0001
    135  CD2       52.8980  -48.3780  -54.0910 C.3   281  LEU281      0.0001
    136  N         49.5010  -44.8460  -49.6790 N.3   284  TRP284     -0.1227
    137  CA        50.3770  -45.5280  -48.7350 C.3   284  TRP284      0.1737
    138  C         51.4850  -44.5900  -48.2590 C.2   284  TRP284      0.2595
    139  O         51.7080  -44.4270  -47.0620 O.2   284  TRP284     -0.2718
    140  CB        50.9890  -46.7710  -49.3880 C.3   284  TRP284      0.0564
    141  CG        52.3200  -47.1520  -48.8110 C.ar  284  TRP284      0.0003
    142  CD1       53.5550  -46.7880  -49.2810 C.ar  284  TRP284      0.0946
    143  CD2       52.5550  -47.9150  -47.6220 C.ar  284  TRP284      0.0152
    144  NE1       54.5380  -47.2760  -48.4560 N.ar  284  TRP284     -0.2442
    145  CE2       53.9520  -47.9710  -47.4300 C.ar  284  TRP284      0.0810
    146  CE3       51.7210  -48.5530  -46.7000 C.ar  284  TRP284      0.0012
    147  CZ2       54.5320  -48.6400  -46.3530 C.ar  284  TRP284      0.0191
    148  CZ3       52.2980  -49.2170  -45.6300 C.ar  284  TRP284      0.0001
    149  CH2       53.6910  -49.2550  -45.4660 C.ar  284  TRP284      0.0015
    150  N         52.1690  -43.9660  -49.2080 N.am  285  GLN285     -0.1979
    151  CA        53.2520  -43.0440  -48.8880 C.3   285  GLN285      0.1601
    152  C         52.7820  -41.8910  -48.0140 C.2   285  GLN285      0.2287
    153  O         53.4330  -41.5470  -47.0300 O.2   285  GLN285     -0.2864
    154  CB        53.8650  -42.4970  -50.1730 C.3   285  GLN285      0.0394
    155  CG        54.3250  -43.5860  -51.1250 C.3   285  GLN285      0.0908
    156  CD        54.7860  -43.0370  -52.4500 C.2   285  GLN285      0.2608
    157  OE1       54.2480  -42.0440  -52.9380 O.2   285  GLN285     -0.2717
    158  NE2       55.7760  -43.6880  -53.0530 N.am  285  GLN285     -0.0878
    159  N         54.5640  -43.2320  -44.7450 N.3   289  LEU289     -0.1245
    160  CA        55.7880  -42.4330  -44.6670 C.3   289  LEU289      0.1561
    161  C         55.6960  -41.0170  -44.0900 C.2   289  LEU289      0.2260
    162  O         56.5170  -40.6320  -43.2510 O.2   289  LEU289     -0.2867
    163  CB        56.4470  -42.3540  -46.0490 C.3   289  LEU289      0.0270
    164  CG        56.9630  -43.6610  -46.6610 C.3   289  LEU289      0.0019
    165  CD1       57.7490  -44.4290  -45.6100 C.3   289  LEU289      0.0001
    166  CD2       55.8030  -44.4980  -47.1590 C.3   289  LEU289      0.0001
@<TRIPOS>BOND
     1   125   124    2
     2   124   123    1
     3    66    65    2
     4    98    99    1
     5   134   133    1
     6    99   100    1
     7    99   102    1
     8    65    64    1
     9   127   126    1
    10   123   122    1
    11   123   126    1
    12   100   101    2
    13   122   120   am
    14   102   103    1
    15   133   132    1
    16   133   135    1
    17    64    67    1
    18    64    63    1
    19   132   129    1
    20   120   119    1
    21   120   121    2
    22    67    68    1
    23   119   118    1
    24    70    68   ar
    25    70    72   ar
    26   128   129    1
    27    93    92    2
    28    68    69   ar
    29   104   105    1
    30    72    73   ar
    31   129   130    1
    32    85    84    2
    33   105   106    1
    34    69    71   ar
    35    73    71   ar
    36   106   107    2
    37    92    91    1
    38   130   131    2
    39   158   156   am
    40   157   156    2
    41    58    57    2
    42    90    91    1
    43   156   155    1
    44    84    83    1
    45    91    94    1
    46    88    87    2
    47    94    96    1
    48    94    95    1
    49    82    83    1
    50    57    56    1
    51    50    49    2
    52    83    86    1
    53   155   154    1
    54   108   109    1
    55    56    59    1
    56    56    55    1
    57    95    97    1
    58    62    61    1
    59    87    86    1
    60    87    89   am
    61    61    60    1
    62    49    55   am
    63    49    48    1
    64   154   151    1
    65    53    52    1
    66    59    60    1
    67   109   110    1
    68   109   112    1
    69   115   117   ar
    70   115   113   ar
    71   136   137    1
    72   117   116   ar
    73    52    54    1
    74    52    51    1
    75   110   111    2
    76   140   141    1
    77   140   137    1
    78   142   141   ar
    79   142   144   ar
    80   150   151    1
    81   150   138   am
    82    48    51    1
    83    48    47    1
    84   113   112    1
    85   113   114   ar
    86   151   152    1
    87    74    75    1
    88   116   114   ar
    89   141   143   ar
    90   137   138    1
    91   144   145   ar
    92    75    76    1
    93    75    78    1
    94    80    79    2
    95   138   139    2
    96    76    77    2
    97   152   153    2
    98   143   145   ar
    99   143   146   ar
   100   145   147   ar
   101    79    78    1
   102    79    81   am
   103   166   164    1
   104   146   148   ar
   105   164   163    1
   106   164   165    1
   107   147   149   ar
   108   163   160    1
   109    15    14    1
   110   148   149   ar
   111     8     6    1
   112     7     6    1
   113   159   160    1
   114    16    14    1
   115   160   161    1
   116    14    13    1
   117     6     5    1
   118     5     2    1
   119   161   162    2
   120     4     3    2
   121    43    42    1
   122    43    46    1
   123    43    44    1
   124    13    10    1
   125     3     2    1
   126     2     1    1
   127    44    45    2
   128    10     9    1
   129    10    11    1
   130    41    39   ar
   131    41    40   ar
   132    39    37   ar
   133    31    28    1
   134    40    38   ar
   135    37    38   ar
   136    37    36    1
   137    12    11    2
   138    36    33    1
   139    35    34    2
   140    25    26   ar
   141    25    23   ar
   142    28    29    1
   143    28    27    1
   144    26    24   ar
   145    33    34    1
   146    33    32    1
   147    30    29    2
   148    23    22   ar
   149    27    19   am
   150    24    22   ar
   151    22    21    1
   152    17    18    1
   153    19    18    1
   154    19    20    2
   155    18    21    1
