@<TRIPOS>MOLECULE
tmp/3gu3A00.pdb
 148 145 0 0 0
SMALL
GASTEIGER

@<TRIPOS>ATOM
      1  N         41.7620   38.1460    8.4590 N.3    28  ASP28      -0.1239
      2  CA        42.9110   38.2320    9.3610 C.3    28  ASP28       0.1674
      3  C         44.1520   37.5730    8.7510 C.2    28  ASP28       0.2266
      4  O         44.1830   36.3550    8.5480 O.2    28  ASP28      -0.2867
      5  CB        42.5520   37.5490   10.6870 C.3    28  ASP28       0.1410
      6  CG        43.6480   37.6680   11.7300 C.2    28  ASP28       0.3668
      7  OD1       43.5870   36.9370   12.7390 O.co2  28  ASP28      -0.2456
      8  OD2       44.5640   38.4940   11.5440 O.co2  28  ASP28      -0.2456
      9  N         47.9100   36.1410    8.6380 N.3    30  GLY30      -0.1210
     10  CA        48.8250   35.5040    9.5690 C.3    30  GLY30       0.1956
     11  C         48.0740   35.2520   10.8600 C.2    30  GLY30       0.2612
     12  O         48.5900   35.5030   11.9480 O.2    30  GLY30      -0.2717
     13  N         46.8540   34.7410   10.7300 N.am   31  CYS31      -0.1956
     14  CA        45.9740   34.4770   11.8670 C.3    31  CYS31       0.1843
     15  C         46.4680   33.4780   12.9020 C.2    31  CYS31       0.2626
     16  O         45.8940   33.3820   13.9900 O.2    31  CYS31      -0.2714
     17  CB        44.6200   33.9910   11.3570 C.3    31  CYS31       0.0997
     18  SG        44.7400   32.3930   10.5000 S.3    31  CYS31      -0.0797
     19  N         47.5130   32.7270   12.5730 N.am   32  GLY32      -0.1940
     20  CA        48.0050   31.7310   13.5120 C.3    32  GLY32       0.2014
     21  C         46.8740   30.7620   13.7830 C.2    32  GLY32       0.2638
     22  O         46.2440   30.2870   12.8410 O.2    32  GLY32      -0.2714
     23  N         46.6050   30.4580   15.0500 N.am   33  TYR33      -0.1973
     24  CA        45.5070   29.5530   15.3720 C.3    33  TYR33       0.1639
     25  C         44.1740   30.2940   15.5320 C.2    33  TYR33       0.2290
     26  O         43.2130   29.7330   16.0540 O.2    33  TYR33      -0.2864
     27  CB        45.8130   28.7280   16.6340 C.3    33  TYR33       0.0560
     28  CG        46.0230   29.5280   17.9060 C.ar   33  TYR33      -0.0198
     29  CD1       44.9450   30.1200   18.5770 C.ar   33  TYR33      -0.0009
     30  CD2       47.3100   29.7220   18.4220 C.ar   33  TYR33      -0.0009
     31  CE1       45.1460   30.8930   19.7260 C.ar   33  TYR33       0.0417
     32  CE2       47.5220   30.4920   19.5700 C.ar   33  TYR33       0.0417
     33  CZ        46.4380   31.0750   20.2110 C.ar   33  TYR33       0.1957
     34  OH        46.6490   31.8610   21.3130 O.3    33  TYR33      -0.2866
     35  N         43.8880   33.6240   16.9460 N.3    35  TYR35      -0.1227
     36  CA        43.8960   34.4680   18.1350 C.3    35  TYR35       0.1736
     37  C         43.0170   35.7160   18.0550 C.2    35  TYR35       0.2595
     38  O         42.1280   35.9150   18.8870 O.2    35  TYR35      -0.2718
     39  CB        45.3350   34.8700   18.4730 C.3    35  TYR35       0.0548
     40  CG        45.4390   35.8780   19.5950 C.ar   35  TYR35      -0.0200
     41  CD1       45.7030   37.2230   19.3280 C.ar   35  TYR35      -0.0009
     42  CD2       45.2260   35.4970   20.9200 C.ar   35  TYR35      -0.0009
     43  CE1       45.7500   38.1640   20.3540 C.ar   35  TYR35       0.0417
     44  CE2       45.2670   36.4270   21.9510 C.ar   35  TYR35       0.0417
     45  CZ        45.5270   37.7590   21.6620 C.ar   35  TYR35       0.1957
     46  OH        45.5470   38.6870   22.6780 O.3    35  TYR35      -0.2866
     47  N         43.2610   36.5520   17.0540 N.am   36  LEU36      -0.1980
     48  CA        42.5000   37.7820   16.9150 C.3    36  LEU36       0.1596
     49  C         41.0040   37.5210   16.7510 C.2    36  LEU36       0.2287
     50  O         40.1750   38.3130   17.2010 O.2    36  LEU36      -0.2864
     51  CB        43.0440   38.6120   15.7460 C.3    36  LEU36       0.0297
     52  CG        42.8180   40.1150   15.9140 C.3    36  LEU36       0.0022
     53  CD1       43.3060   40.5640   17.2840 C.3    36  LEU36       0.0001
     54  CD2       43.5450   40.8620   14.8190 C.3    36  LEU36       0.0001
     55  N         44.0080   33.7980    7.3890 N.3    52  ILE52      -0.1231
     56  CA        44.9680   33.3450    6.3910 C.3    52  ILE52       0.1692
     57  C         46.2800   32.9870    7.0700 C.2    52  ILE52       0.2592
     58  O         46.7870   33.7460    7.8880 O.2    52  ILE52      -0.2718
     59  CB        45.2560   34.4430    5.3390 C.3    52  ILE52       0.0266
     60  CG1       43.9680   34.8200    4.6140 C.3    52  ILE52       0.0019
     61  CG2       46.2670   33.9560    4.3220 C.3    52  ILE52       0.0020
     62  CD1       44.1270   36.0310    3.7330 C.3    52  ILE52       0.0001
     63  N         46.8200   31.8200    6.7490 N.am   53  ASP53      -0.1960
     64  CA        48.0860   31.4160    7.3260 C.3    53  ASP53       0.1840
     65  C         48.7260   30.2920    6.5140 C.2    53  ASP53       0.2623
     66  O         48.0350   29.5310    5.8340 O.2    53  ASP53      -0.2715
     67  CB        47.8960   30.9900    8.7780 C.3    53  ASP53       0.1450
     68  CG        49.1840   31.0890    9.5770 C.2    53  ASP53       0.3671
     69  OD1       50.1330   30.3440    9.2590 O.co2  53  ASP53      -0.2456
     70  OD2       49.2530   31.9220   10.5140 O.co2  53  ASP53      -0.2456
     71  N         50.0510   30.2000    6.5840 N.am   54  SER54      -0.1936
     72  CA        50.7910   29.1830    5.8440 C.3    54  SER54       0.2055
     73  C         51.0080   27.9220    6.6610 C.2    54  SER54       0.2643
     74  O         51.3120   26.8690    6.1090 O.2    54  SER54      -0.2714
     75  CB        52.1460   29.7390    5.4010 C.3    54  SER54       0.2130
     76  OG        52.9240   30.1430    6.5140 O.3    54  SER54      -0.2179
     77  N         50.8570   28.0300    7.9770 N.am   55  GLY55      -0.1954
     78  CA        51.0530   26.8780    8.8400 C.3    55  GLY55       0.1869
     79  C         49.8890   25.9080    8.8060 C.2    55  GLY55       0.2309
     80  O         48.8160   26.1970    9.3460 O.2    55  GLY55      -0.2863
     81  N         48.8420   24.8670   12.2440 N.3    58  LEU58      -0.1245
     82  CA        48.1820   25.9960   12.8830 C.3    58  LEU58       0.1561
     83  C         46.7160   26.0580   12.4640 C.2    58  LEU58       0.2260
     84  O         45.8190   26.1620   13.3040 O.2    58  LEU58      -0.2867
     85  CB        48.8720   27.3190   12.5140 C.3    58  LEU58       0.0270
     86  CG        50.0760   27.7800   13.3450 C.3    58  LEU58       0.0019
     87  CD1       49.6650   27.8980   14.8070 C.3    58  LEU58       0.0001
     88  CD2       51.2240   26.8010   13.1940 C.3    58  LEU58       0.0001
     89  N         47.8290   29.3310    2.7680 N.3    78  GLY78      -0.1210
     90  CA        48.5810   29.9050    1.6660 C.3    78  GLY78       0.1956
     91  C         49.5040   31.0290    2.1030 C.2    78  GLY78       0.2612
     92  O         49.4090   31.5080    3.2330 O.2    78  GLY78      -0.2717
     93  N         50.4030   31.4360    1.2080 N.am   79  ASP79      -0.1959
     94  CA        51.3520   32.5130    1.4730 C.3    79  ASP79       0.1840
     95  C         50.6160   33.8380    1.3310 C.2    79  ASP79       0.2622
     96  O         50.1740   34.1960    0.2410 O.2    79  ASP79      -0.2715
     97  CB        52.5150   32.4460    0.4720 C.3    79  ASP79       0.1450
     98  CG        53.5490   33.5470    0.6820 C.2    79  ASP79       0.3671
     99  OD1       54.6280   33.4620    0.0590 O.co2  79  ASP79      -0.2456
    100  OD2       53.2960   34.4930    1.4550 O.co2  79  ASP79      -0.2456
    101  N         50.4860   34.5550    2.4420 N.am   80  ALA80      -0.1963
    102  CA        49.7920   35.8370    2.4660 C.3    80  ALA80       0.1728
    103  C         50.4000   36.8640    1.5250 C.2    80  ALA80       0.2616
    104  O         49.7240   37.8120    1.1230 O.2    80  ALA80      -0.2715
    105  CB        49.7750   36.3900    3.8780 C.3    80  ALA80       0.0334
    106  N         51.6680   36.6850    1.1660 N.am   81  THR81      -0.1951
    107  CA        52.3160   37.6380    0.2740 C.3    81  THR81       0.1897
    108  C         52.0260   37.3390   -1.1880 C.2    81  THR81       0.2313
    109  O         52.4190   38.1020   -2.0660 O.2    81  THR81      -0.2863
    110  CB        53.8450   37.6550    0.4540 C.3    81  THR81       0.1794
    111  OG1       54.3940   36.4310   -0.0440 O.3    81  THR81      -0.2208
    112  CG2       54.2180   37.8180    1.9280 C.3    81  THR81       0.0378
    113  N         47.5470   40.4950   13.6680 N.3    95  HIS95      -0.1226
    114  CA        48.0670   40.6100   15.0240 C.3    95  HIS95       0.1752
    115  C         49.4500   39.9960   15.0760 C.2    95  HIS95       0.2596
    116  O         49.6130   38.8110   14.8090 O.2    95  HIS95      -0.2718
    117  CB        47.1520   39.9000   16.0260 C.3    95  HIS95       0.0759
    118  CG        47.5540   40.1110   17.4530 C.ar   95  HIS95       0.0818
    119  ND1       48.5620   39.3910   18.0560 N.ar   95  HIS95      -0.2268
    120  CD2       47.1320   41.0100   18.3740 C.ar   95  HIS95       0.1154
    121  CE1       48.7440   39.8370   19.2850 C.ar   95  HIS95       0.1986
    122  NE2       47.8890   40.8210   19.5040 N.ar   95  HIS95      -0.2212
    123  N         50.4390   40.8220   15.4090 N.am   96  ALA96      -0.1966
    124  CA        51.8360   40.3990   15.5070 C.3    96  ALA96       0.1728
    125  C         52.2160   39.6310   14.2590 C.2    96  ALA96       0.2616
    126  O         52.7910   38.5450   14.3310 O.2    96  ALA96      -0.2715
    127  CB        52.0330   39.5240   16.7450 C.3    96  ALA96       0.0334
    128  N         51.9150   40.2190   13.1090 N.am   97  PHE97      -0.1974
    129  CA        52.1880   39.5830   11.8300 C.3    97  PHE97       0.1639
    130  C         53.2010   40.3580   11.0010 C.2    97  PHE97       0.2290
    131  O         54.1900   39.8040   10.5330 O.2    97  PHE97      -0.2864
    132  CB        50.8690   39.4400   11.0590 C.3    97  PHE97       0.0560
    133  CG        51.0350   39.0660    9.6090 C.ar   97  PHE97      -0.0200
    134  CD1       50.6350   39.9410    8.6040 C.ar   97  PHE97      -0.0042
    135  CD2       51.5680   37.8330    9.2460 C.ar   97  PHE97      -0.0042
    136  CE1       50.7570   39.5940    7.2510 C.ar   97  PHE97      -0.0003
    137  CE2       51.6960   37.4730    7.8960 C.ar   97  PHE97      -0.0003
    138  CZ        51.2900   38.3580    6.8980 C.ar   97  PHE97      -0.0000
    139  N         57.1350   40.2450   11.1060 N.3   100  HIS100     -0.1241
    140  CA        57.8540   39.1080   10.5340 C.3   100  HIS100      0.1621
    141  C         58.0500   39.2730    9.0250 C.2   100  HIS100      0.2264
    142  O         58.7040   38.4550    8.3810 O.2   100  HIS100     -0.2867
    143  CB        57.1000   37.8030   10.8170 C.3   100  HIS100      0.0745
    144  CG        56.8970   37.5230   12.2740 C.ar  100  HIS100      0.0817
    145  ND1       57.9450   37.3360   13.1520 N.ar  100  HIS100     -0.2268
    146  CD2       55.7660   37.4160   13.0120 C.ar  100  HIS100      0.1154
    147  CE1       57.4670   37.1280   14.3670 C.ar  100  HIS100      0.1986
    148  NE2       56.1470   37.1710   14.3090 N.ar  100  HIS100     -0.2212
@<TRIPOS>BOND
     1   109   108    2
     2   108   107    1
     3   111   110    1
     4    99    98   ar
     5    96    95    2
     6   107   110    1
     7   107   106    1
     8   110   112    1
     9    97    98    1
    10    97    94    1
    11    98   100   ar
    12   104   103    2
    13   106   103   am
    14    93    94    1
    15    93    91   am
    16    95    94    1
    17    95   101   am
    18   103   102    1
    19    90    91    1
    20    90    89    1
    21    91    92    2
    22   101   102    1
    23   102   105    1
    24    62    60    1
    25    61    59    1
    26    60    59    1
    27    59    56    1
    28    75    72    1
    29    75    76    1
    30    66    65    2
    31    72    71    1
    32    72    73    1
    33    74    73    2
    34    56    57    1
    35    56    55    1
    36    65    71   am
    37    65    64    1
    38    73    77   am
    39    63    57   am
    40    63    64    1
    41   138   136   ar
    42   138   137   ar
    43    57    58    2
    44   136   134   ar
    45    64    67    1
    46   137   135   ar
    47    77    78    1
    48   142   141    2
    49     1     2    1
    50     4     3    2
    51   134   133   ar
    52     9    10    1
    53     3     2    1
    54    67    68    1
    55    79    78    1
    56    79    80    2
    57   141   140    1
    58   135   133   ar
    59    69    68   ar
    60     2     5    1
    61    10    11    1
    62    68    70   ar
    63   133   132    1
    64    18    17    1
    65   131   130    2
    66   140   143    1
    67   140   139    1
    68     5     6    1
    69    13    11   am
    70    13    14    1
    71   143   144    1
    72    11    12    2
    73   130   129    1
    74   132   129    1
    75    17    14    1
    76     8     6   ar
    77     6     7   ar
    78   129   128    1
    79    14    15    1
    80    81    82    1
    81   144   146   ar
    82   144   145   ar
    83    83    82    1
    84    83    84    2
    85    85    82    1
    86    85    86    1
    87    19    15   am
    88    19    20    1
    89    22    21    2
    90    15    16    2
    91   146   148   ar
    92   128   125   am
    93   145   147   ar
    94    88    86    1
    95    86    87    1
    96    20    21    1
    97   113   114    1
    98    21    23   am
    99   125   126    2
   100   125   124    1
   101   148   147   ar
   102   116   115    2
   103    54    52    1
   104   114   115    1
   105   114   117    1
   106    23    24    1
   107   115   123   am
   108    24    25    1
   109    24    27    1
   110   123   124    1
   111   124   127    1
   112    25    26    2
   113    51    52    1
   114    51    48    1
   115    52    53    1
   116   117   118    1
   117    27    28    1
   118    49    48    1
   119    49    50    2
   120    48    47    1
   121    35    36    1
   122    47    37   am
   123   118   119   ar
   124   118   120   ar
   125    28    30   ar
   126    28    29   ar
   127    37    36    1
   128    37    38    2
   129   119   121   ar
   130    36    39    1
   131   120   122   ar
   132    30    32   ar
   133    39    40    1
   134    29    31   ar
   135   121   122   ar
   136    41    40   ar
   137    41    43   ar
   138    32    33   ar
   139    40    42   ar
   140    31    33   ar
   141    33    34    1
   142    43    45   ar
   143    42    44   ar
   144    45    44   ar
   145    45    46    1
