@<TRIPOS>MOLECULE
tmp/3gu8A00.pdb
 160 148 0 0 0
SMALL
GASTEIGER

@<TRIPOS>ATOM
      1  N        -29.5460   -0.9730  -13.1920 N.3    18  LEU18      -0.1231
      2  CA       -28.9440    0.2340  -13.7590 C.3    18  LEU18       0.1693
      3  C        -27.6010   -0.0090  -14.4490 C.2    18  LEU18       0.2593
      4  O        -27.2040    0.7460  -15.3440 O.2    18  LEU18      -0.2718
      5  CB       -28.7620    1.2760  -12.6580 C.3    18  LEU18       0.0284
      6  CG       -30.0000    1.8390  -11.9710 C.3    18  LEU18       0.0019
      7  CD1      -29.5880    2.6240  -10.7330 C.3    18  LEU18       0.0001
      8  CD2      -30.8150    2.7220  -12.9350 C.3    18  LEU18       0.0001
      9  N        -26.9030   -1.0660  -14.0530 N.am   19  GLY19      -0.1942
     10  CA       -25.6020   -1.3580  -14.6460 C.3    19  GLY19       0.2014
     11  C        -24.8550   -2.4390  -13.8910 C.2    19  GLY19       0.2640
     12  O        -25.3580   -2.9690  -12.8930 O.2    19  GLY19      -0.2714
     13  N        -23.6550   -2.7500  -14.3840 N.am   20  SER20      -0.1935
     14  CA       -22.8730   -3.9050  -13.9390 C.3    20  SER20       0.2055
     15  C        -21.3760   -3.6790  -14.0480 C.2    20  SER20       0.2643
     16  O        -20.8970   -3.0040  -14.9670 O.2    20  SER20      -0.2714
     17  CB       -23.2010   -5.1220  -14.8080 C.3    20  SER20       0.2130
     18  OG       -24.4720   -5.6550  -14.5120 O.3    20  SER20      -0.2179
     19  N        -20.6520   -4.2770  -13.1060 N.am   21  GLY21      -0.1954
     20  CA       -19.2210   -4.5070  -13.2220 C.3    21  GLY21       0.1869
     21  C        -18.9770   -6.0010  -13.1200 C.2    21  GLY21       0.2309
     22  O        -19.9240   -6.7920  -13.0820 O.2    21  GLY21      -0.2863
     23  N        -25.7750   -2.9510  -10.0380 N.3    26  VAL26      -0.1245
     24  CA       -26.3950   -1.7510   -9.4760 C.3    26  VAL26       0.1561
     25  C        -27.8730   -1.7520   -9.8400 C.2    26  VAL26       0.2260
     26  O        -28.2220   -1.9410  -11.0040 O.2    26  VAL26      -0.2867
     27  CB       -25.7080   -0.4680   -9.9790 C.3    26  VAL26       0.0252
     28  CG1      -26.2790    0.7880   -9.2710 C.3    26  VAL26       0.0019
     29  CG2      -24.1990   -0.5640   -9.7670 C.3    26  VAL26       0.0019
     30  N        -29.6550    4.3980   -5.7120 N.3    39  ALA39      -0.1245
     31  CA       -29.0630    3.2700   -6.4510 C.3    39  ALA39       0.1562
     32  C        -28.3600    2.3860   -5.4170 C.2    39  ALA39       0.2260
     33  O        -27.6660    2.9010   -4.5370 O.2    39  ALA39      -0.2867
     34  CB       -28.0540    3.7710   -7.4830 C.3    39  ALA39       0.0290
     35  N        -25.6380   -0.5610   -5.0380 N.3    41  LYS41      -0.1245
     36  CA       -24.5560   -1.3170   -5.6670 C.3    41  LYS41       0.1561
     37  C        -24.2420   -2.5460   -4.8150 C.2    41  LYS41       0.2260
     38  O        -23.7660   -2.4080   -3.6820 O.2    41  LYS41      -0.2867
     39  CB       -23.3140   -0.4350   -5.7960 C.3    41  LYS41       0.0271
     40  CG       -22.1150   -1.1170   -6.4180 C.3    41  LYS41       0.0035
     41  CD       -20.9850   -0.0940   -6.6010 C.3    41  LYS41       0.0206
     42  CE       -19.6530   -0.7420   -6.9650 C.3    41  LYS41       0.1093
     43  NZ       -18.6220    0.2820   -7.3450 N.3    41  LYS41      -0.1314
     44  N        -16.0990    7.1940   -0.1520 N.3    67  LEU67      -0.1245
     45  CA       -17.4460    7.6890   -0.4170 C.3    67  LEU67       0.1561
     46  C        -18.0290    8.4440    0.7750 C.2    67  LEU67       0.2260
     47  O        -18.7340    9.4400    0.6070 O.2    67  LEU67      -0.2867
     48  CB       -18.3640    6.5250   -0.7890 C.3    67  LEU67       0.0270
     49  CG       -18.0460    5.9010   -2.1440 C.3    67  LEU67       0.0019
     50  CD1      -18.9040    4.6870   -2.3190 C.3    67  LEU67       0.0001
     51  CD2      -18.2810    6.9110   -3.2780 C.3    67  LEU67       0.0001
     52  N        -20.9870   11.5640   -6.6110 N.3    76  ILE76      -0.1231
     53  CA       -22.0300   10.8230   -5.9330 C.3    76  ILE76       0.1692
     54  C        -21.9860   11.0180   -4.4110 C.2    76  ILE76       0.2593
     55  O        -20.9400   11.3410   -3.8300 O.2    76  ILE76      -0.2718
     56  CB       -21.8970    9.3290   -6.3150 C.3    76  ILE76       0.0266
     57  CG1      -23.2670    8.6790   -6.4000 C.3    76  ILE76       0.0019
     58  CG2      -20.8520    8.5890   -5.4550 C.3    76  ILE76       0.0020
     59  CD1      -23.8800    8.8910   -7.7370 C.3    76  ILE76       0.0001
     60  N        -23.1330   10.8370   -3.7660 N.am   77  THR77      -0.1939
     61  CA       -23.1570   10.7670   -2.3010 C.3    77  THR77       0.2028
     62  C        -23.4730    9.3040   -1.8800 C.2    77  THR77       0.2642
     63  O        -24.0920    8.5310   -2.6460 O.2    77  THR77      -0.2714
     64  CB       -24.2180   11.7200   -1.7040 C.3    77  THR77       0.1808
     65  OG1      -25.5060   11.3780   -2.2040 O.3    77  THR77      -0.2208
     66  CG2      -23.9170   13.2040   -2.0190 C.3    77  THR77       0.0379
     67  N        -23.0230    8.9260   -0.6850 N.am   78  LEU78      -0.1977
     68  CA       -23.3530    7.6260   -0.0960 C.3    78  LEU78       0.1596
     69  C        -24.4530    7.8490    0.9360 C.2    78  LEU78       0.2287
     70  O        -24.3970    8.8180    1.7020 O.2    78  LEU78      -0.2864
     71  CB       -22.1400    7.0230    0.5970 C.3    78  LEU78       0.0297
     72  CG       -22.3460    5.6560    1.2580 C.3    78  LEU78       0.0022
     73  CD1      -22.6260    4.5840    0.2310 C.3    78  LEU78       0.0001
     74  CD2      -21.1150    5.2770    2.1170 C.3    78  LEU78       0.0001
     75  N        -23.9570   -0.9940   -1.1450 N.3    90  LEU90      -0.1231
     76  CA       -23.8810    0.4570   -0.9940 C.3    90  LEU90       0.1693
     77  C        -25.1630    1.0730   -1.5100 C.2    90  LEU90       0.2592
     78  O        -25.5640    0.8290   -2.6510 O.2    90  LEU90      -0.2718
     79  CB       -22.7020    1.0500   -1.7720 C.3    90  LEU90       0.0284
     80  CG       -21.3030    0.5030   -1.5000 C.3    90  LEU90       0.0019
     81  CD1      -20.3690    0.9690   -2.6210 C.3    90  LEU90       0.0001
     82  CD2      -20.8020    0.9460   -0.1690 C.3    90  LEU90       0.0001
     83  N        -25.8020    1.8720   -0.6670 N.am   91  ILE91      -0.1966
     84  CA       -27.0030    2.5800   -1.0620 C.3    91  ILE91       0.1727
     85  C        -26.6250    4.0450   -1.2340 C.2    91  ILE91       0.2617
     86  O        -26.3580    4.7330   -0.2510 O.2    91  ILE91      -0.2715
     87  CB       -28.1200    2.4310    0.0110 C.3    91  ILE91       0.0290
     88  CG1      -28.4210    0.9470    0.3000 C.3    91  ILE91       0.0022
     89  CG2      -29.3670    3.2430   -0.3820 C.3    91  ILE91       0.0023
     90  CD1      -29.3050    0.2320   -0.7280 C.3    91  ILE91       0.0001
     91  N        -26.5860    4.5270   -2.4760 N.am   92  GLY92      -0.1940
     92  CA       -26.2010    5.9130   -2.6970 C.3    92  GLY92       0.2014
     93  C        -27.0260    6.6310   -3.7280 C.2    92  GLY92       0.2638
     94  O        -28.0930    6.1670   -4.1360 O.2    92  GLY92      -0.2714
     95  N        -26.5200    7.7960   -4.1210 N.am   93  GLU93      -0.1977
     96  CA       -27.2690    8.6990   -4.9920 C.3    93  GLU93       0.1602
     97  C        -27.6010    8.0740   -6.3290 C.2    93  GLU93       0.2287
     98  O        -26.7320    7.5720   -7.0350 O.2    93  GLU93      -0.2864
     99  CB       -26.4830    9.9910   -5.1940 C.3    93  GLU93       0.0415
    100  CG       -27.1630   10.9950   -6.0770 C.3    93  GLU93       0.1163
    101  CD       -26.5030   12.3460   -5.9620 C.2    93  GLU93       0.3649
    102  OE1      -25.2850   12.4010   -5.6500 O.co2  93  GLU93      -0.2457
    103  OE2      -27.2020   13.3590   -6.1540 O.co2  93  GLU93      -0.2457
    104  N        -28.2280    8.2690  -10.0260 N.3    95  VAL95      -0.1245
    105  CA       -27.9830    9.1710  -11.1600 C.3    95  VAL95       0.1561
    106  C        -28.7300    8.5660  -12.3390 C.2    95  VAL95       0.2260
    107  O        -28.3590    7.5110  -12.8510 O.2    95  VAL95      -0.2867
    108  CB       -26.4810    9.3780  -11.4700 C.3    95  VAL95       0.0252
    109  CG1      -26.3050   10.6450  -12.2850 C.3    95  VAL95       0.0019
    110  CG2      -25.6880    9.5250  -10.1840 C.3    95  VAL95       0.0019
    111  N        -25.1550    7.0160  -18.7270 N.3    99  GLU99      -0.1245
    112  CA       -23.7250    7.2710  -18.9120 C.3    99  GLU99       0.1567
    113  C        -23.4490    8.3310  -19.9670 C.2    99  GLU99       0.2260
    114  O        -24.2070    8.4890  -20.9140 O.2    99  GLU99      -0.2867
    115  CB       -23.0120    5.9680  -19.2770 C.3    99  GLU99       0.0388
    116  CG       -23.0320    4.9250  -18.1620 C.3    99  GLU99       0.1160
    117  CD       -22.5250    3.5790  -18.6240 C.2    99  GLU99       0.3649
    118  OE1      -21.8790    3.5260  -19.6910 O.co2  99  GLU99      -0.2457
    119  OE2      -22.7680    2.5660  -17.9280 O.co2  99  GLU99      -0.2457
    120  N        -17.7910    5.7680  -19.1240 N.3   142  GLU142     -0.1231
    121  CA       -18.7730    4.9250  -18.4140 C.3   142  GLU142      0.1699
    122  C        -18.9730    5.3110  -16.9520 C.2   142  GLU142      0.2592
    123  O        -19.9720    4.9370  -16.3270 O.2   142  GLU142     -0.2718
    124  CB       -18.4000    3.4560  -18.4900 C.3   142  GLU142      0.0402
    125  CG       -18.4340    2.8970  -19.8970 C.3   142  GLU142      0.1161
    126  CD       -17.1370    3.0830  -20.6960 C.2   142  GLU142      0.3649
    127  OE1      -16.2730    3.9560  -20.3980 O.co2 142  GLU142     -0.2457
    128  OE2      -16.9900    2.3350  -21.6820 O.co2 142  GLU142     -0.2457
    129  N        -17.9970    6.0400  -16.4150 N.am  143  ASN143     -0.1974
    130  CA       -18.0410    6.4870  -15.0290 C.3   143  ASN143      0.1688
    131  C        -18.3990    7.9620  -14.8690 C.2   143  ASN143      0.2292
    132  O        -18.1960    8.5410  -13.8100 O.2   143  ASN143     -0.2864
    133  CB       -16.7120    6.1540  -14.3200 C.3   143  ASN143      0.1181
    134  CG       -16.6000    4.6850  -13.9960 C.2   143  ASN143      0.2629
    135  OD1      -17.6120    3.9590  -13.9570 O.2   143  ASN143     -0.2716
    136  ND2      -15.3750    4.2120  -13.7850 N.am  143  ASN143     -0.0877
    137  N        -21.7430   10.1300  -15.3210 N.3   145  MET145     -0.1245
    138  CA       -23.2030    9.9230  -15.4250 C.3   145  MET145      0.1570
    139  C        -23.8960   11.2680  -15.4870 C.2   145  MET145      0.2261
    140  O        -23.4150   12.2280  -14.9220 O.2   145  MET145     -0.2867
    141  CB       -23.7340    9.2280  -14.1670 C.3   145  MET145      0.0387
    142  CG       -23.1780    7.8680  -13.8500 C.3   145  MET145      0.0595
    143  SD       -23.6810    6.6260  -15.0280 S.3   145  MET145     -0.1393
    144  CE       -25.4810    6.6530  -14.8910 C.3   145  MET145      0.0692
    145  N        -18.8640    8.6950  -10.8780 N.3   159  ILE159     -0.1231
    146  CA       -19.2470    7.4910  -10.1320 C.3   159  ILE159      0.1692
    147  C        -18.1040    6.4750  -10.0660 C.2   159  ILE159      0.2592
    148  O        -17.0020    6.6900  -10.6080 O.2   159  ILE159     -0.2718
    149  CB       -20.4970    6.7980  -10.7570 C.3   159  ILE159      0.0266
    150  CG1      -20.1800    6.2820  -12.1690 C.3   159  ILE159      0.0019
    151  CG2      -21.7010    7.7160  -10.7410 C.3   159  ILE159      0.0020
    152  CD1      -20.8800    4.9660  -12.4970 C.3   159  ILE159      0.0001
    153  N        -18.3830    5.3610   -9.3840 N.am  160  ASP160     -0.1974
    154  CA       -17.4930    4.1910   -9.3020 C.3   160  ASP160      0.1709
    155  C        -16.1200    4.4520   -8.7000 C.2   160  ASP160      0.2293
    156  O        -15.1090    4.5500   -9.4080 O.2   160  ASP160     -0.2864
    157  CB       -17.3340    3.4470  -10.6190 C.3   160  ASP160      0.1436
    158  CG       -16.7680    2.0520  -10.4140 C.2   160  ASP160      0.3671
    159  OD1      -16.2360    1.7410   -9.3070 O.co2 160  ASP160     -0.2456
    160  OD2      -16.8910    1.2340  -11.3550 O.co2 160  ASP160     -0.2456
@<TRIPOS>BOND
     1   128   126   ar
     2   114   113    2
     3   126   127   ar
     4   126   125    1
     5   113   112    1
     6   125   124    1
     7   118   117   ar
     8   115   112    1
     9   115   116    1
    10   120   121    1
    11   112   111    1
    12   117   116    1
    13   117   119   ar
    14   124   121    1
    15   121   122    1
    16   122   129   am
    17   122   123    2
    18   129   130    1
    19   139   138    1
    20   139   140    2
    21   138   137    1
    22   138   141    1
    23     4     3    2
    24   130   131    1
    25   130   133    1
    26   143   144    1
    27   143   142    1
    28    16    15    2
    29   131   132    2
    30    17    18    1
    31    17    14    1
    32    10     9    1
    33    10    11    1
    34     3     9   am
    35     3     2    1
    36    13    14    1
    37    13    11   am
    38   133   134    1
    39   141   142    1
    40    15    14    1
    41    15    19   am
    42   134   135    2
    43   134   136   am
    44    11    12    2
    45     2     1    1
    46     2     5    1
    47    20    21    1
    48    20    19    1
    49    21    22    2
    50     8     6    1
    51   107   106    2
    52     5     6    1
    53   152   150    1
    54   106   105    1
    55   109   108    1
    56   150   149    1
    57     6     7    1
    58   108   105    1
    59   108   110    1
    60   160   158   ar
    61   105   104    1
    62    26    25    2
    63   145   146    1
    64   149   151    1
    65   149   146    1
    66   157   158    1
    67   157   154    1
    68   148   147    2
    69   158   159   ar
    70   146   147    1
    71   147   153   am
    72    23    24    1
    73    27    29    1
    74    27    24    1
    75    27    28    1
    76    25    24    1
    77   156   155    2
    78   153   154    1
    79   154   155    1
    80    59    57    1
    81    34    31    1
    82    43    42    1
    83    98    97    2
    84    42    41    1
    85    52    53    1
    86    41    40    1
    87    31    30    1
    88    31    32    1
    89    40    39    1
    90    57    56    1
    91    97    96    1
    92    56    53    1
    93    56    58    1
    94   103   101   ar
    95   100   101    1
    96   100    99    1
    97   101   102   ar
    98    53    54    1
    99    39    36    1
   100    36    35    1
   101    36    37    1
   102    32    33    2
   103    99    96    1
   104    96    95    1
   105    37    38    2
   106    54    55    2
   107    54    60   am
   108    94    93    2
   109    95    93   am
   110    60    61    1
   111    93    92    1
   112    51    49    1
   113    92    91    1
   114    78    77    2
   115    63    62    2
   116    81    80    1
   117    91    85   am
   118    50    49    1
   119    61    62    1
   120    61    64    1
   121    65    64    1
   122    49    48    1
   123    66    64    1
   124    62    67   am
   125    79    80    1
   126    79    76    1
   127    77    76    1
   128    77    83   am
   129    80    82    1
   130    85    84    1
   131    85    86    2
   132    75    76    1
   133    84    83    1
   134    84    87    1
   135    48    45    1
   136    90    88    1
   137    67    68    1
   138    45    44    1
   139    45    46    1
   140    89    87    1
   141    68    71    1
   142    68    69    1
   143    87    88    1
   144    73    72    1
   145    71    72    1
   146    47    46    2
   147    69    70    2
   148    72    74    1
