@<TRIPOS>MOLECULE
tmp/3gubA00.pdb
 180 167 0 0 0
SMALL
GASTEIGER

@<TRIPOS>ATOM
      1  N        -29.4040   -0.9520  -13.3040 N.3    18  LEU18      -0.1231
      2  CA       -28.8620    0.2570  -13.9310 C.3    18  LEU18       0.1693
      3  C        -27.5460    0.0250  -14.6640 C.2    18  LEU18       0.2593
      4  O        -27.2070    0.7230  -15.6440 O.2    18  LEU18      -0.2718
      5  CB       -28.6990    1.3580  -12.8670 C.3    18  LEU18       0.0284
      6  CG       -29.9760    1.7580  -12.1320 C.3    18  LEU18       0.0019
      7  CD1      -29.6580    2.4810  -10.8370 C.3    18  LEU18       0.0001
      8  CD2      -30.8650    2.6500  -12.9820 C.3    18  LEU18       0.0001
      9  N        -26.8010   -0.9850  -14.2200 N.am   19  GLY19      -0.1942
     10  CA       -25.5590   -1.3540  -14.8960 C.3    19  GLY19       0.2014
     11  C        -24.7150   -2.2790  -14.0460 C.2    19  GLY19       0.2640
     12  O        -25.1900   -2.7810  -13.0300 O.2    19  GLY19      -0.2714
     13  N        -23.4610   -2.5040  -14.4470 N.am   20  SER20      -0.1935
     14  CA       -22.6480   -3.5100  -13.7700 C.3    20  SER20       0.2055
     15  C        -21.1390   -3.3430  -13.9440 C.2    20  SER20       0.2643
     16  O        -20.6820   -2.6590  -14.8610 O.2    20  SER20      -0.2714
     17  CB       -23.0740   -4.9070  -14.2370 C.3    20  SER20       0.2130
     18  OG       -22.5390   -5.1830  -15.5230 O.3    20  SER20      -0.2179
     19  N        -20.3930   -3.9650  -13.0310 N.am   21  GLY21      -0.1954
     20  CA       -18.9460   -4.1420  -13.1270 C.3    21  GLY21       0.1869
     21  C        -18.6450   -5.6320  -13.1300 C.2    21  GLY21       0.2309
     22  O        -19.4970   -6.4320  -13.4870 O.2    21  GLY21      -0.2863
     23  N        -18.1350   -8.5860  -10.9720 N.3    23  PHE23      -0.1241
     24  CA       -17.5700   -7.6240  -10.0250 C.3    23  PHE23       0.1605
     25  C        -18.6200   -6.9620   -9.0760 C.2    23  PHE23       0.2264
     26  O        -18.5100   -7.0360   -7.8440 O.2    23  PHE23      -0.2867
     27  CB       -16.7170   -6.6140  -10.8100 C.3    23  PHE23       0.0534
     28  CG       -16.6910   -5.2400  -10.2330 C.ar   23  PHE23      -0.0203
     29  CD1      -16.1150   -4.9930   -8.9930 C.ar   23  PHE23      -0.0042
     30  CD2      -17.2110   -4.1740  -10.9620 C.ar   23  PHE23      -0.0042
     31  CE1      -16.0930   -3.7120   -8.4710 C.ar   23  PHE23      -0.0003
     32  CE2      -17.1840   -2.8830  -10.4550 C.ar   23  PHE23      -0.0003
     33  CZ       -16.6230   -2.6500   -9.2090 C.ar   23  PHE23      -0.0000
     34  N        -25.4830   -2.8270  -10.2340 N.3    26  VAL26      -0.1245
     35  CA       -26.1390   -1.6500   -9.6530 C.3    26  VAL26       0.1561
     36  C        -27.6130   -1.7090   -9.9960 C.2    26  VAL26       0.2260
     37  O        -27.9660   -1.8920  -11.1530 O.2    26  VAL26      -0.2867
     38  CB       -25.5080   -0.3490  -10.2030 C.3    26  VAL26       0.0252
     39  CG1      -26.0570    0.8760   -9.4940 C.3    26  VAL26       0.0019
     40  CG2      -23.9820   -0.4160  -10.0200 C.3    26  VAL26       0.0019
     41  N        -29.4200    4.3970   -5.8620 N.3    39  ALA39      -0.1245
     42  CA       -28.8450    3.2900   -6.6230 C.3    39  ALA39       0.1562
     43  C        -28.0160    2.4280   -5.6750 C.2    39  ALA39       0.2260
     44  O        -27.1910    2.9760   -4.9290 O.2    39  ALA39      -0.2867
     45  CB       -27.9600    3.8420   -7.7440 C.3    39  ALA39       0.0290
     46  N        -25.2560   -0.4960   -5.1710 N.3    41  LYS41      -0.1245
     47  CA       -24.1760   -1.2490   -5.8120 C.3    41  LYS41       0.1561
     48  C        -23.8820   -2.4960   -4.9800 C.2    41  LYS41       0.2260
     49  O        -23.4470   -2.3720   -3.8490 O.2    41  LYS41      -0.2867
     50  CB       -22.9220   -0.3620   -5.9250 C.3    41  LYS41       0.0271
     51  CG       -21.6900   -0.9980   -6.6340 C.3    41  LYS41       0.0035
     52  CD       -20.4690   -0.0330   -6.5700 C.3    41  LYS41       0.0206
     53  CE       -19.1790   -0.6590   -7.1470 C.3    41  LYS41       0.1093
     54  NZ       -17.9740    0.2580   -6.8980 N.3    41  LYS41      -0.1314
     55  N        -12.9460    1.7980   -0.2800 N.3    63  GLU63      -0.1245
     56  CA       -13.9790    2.4890   -1.0870 C.3    63  GLU63       0.1567
     57  C        -15.0160    3.1620   -0.1890 C.2    63  GLU63       0.2260
     58  O        -15.3810    4.3390   -0.3830 O.2    63  GLU63      -0.2867
     59  CB       -14.6530    1.5300   -2.0770 C.3    63  GLU63       0.0388
     60  CG       -15.7020    2.2310   -2.9690 C.3    63  GLU63       0.1160
     61  CD       -16.4470    1.3160   -3.9330 C.2    63  GLU63       0.3649
     62  OE1      -16.1100    0.1270   -4.0420 O.co2  63  GLU63      -0.2457
     63  OE2      -17.4080    1.8090   -4.5990 O.co2  63  GLU63      -0.2457
     64  N        -15.6850    7.1970    0.1000 N.3    67  LEU67      -0.1245
     65  CA       -17.0220    7.7190   -0.1770 C.3    67  LEU67       0.1561
     66  C        -17.5900    8.5000    1.0080 C.2    67  LEU67       0.2260
     67  O        -18.2970    9.4820    0.8430 O.2    67  LEU67      -0.2867
     68  CB       -17.9920    6.5900   -0.5330 C.3    67  LEU67       0.0270
     69  CG       -17.7890    5.8920   -1.8690 C.3    67  LEU67       0.0019
     70  CD1      -18.6390    4.6120   -1.9010 C.3    67  LEU67       0.0001
     71  CD2      -18.1320    6.8340   -3.0650 C.3    67  LEU67       0.0001
     72  N        -20.8800   11.7000   -6.6360 N.3    76  ILE76      -0.1231
     73  CA       -21.9350   10.9300   -5.9820 C.3    76  ILE76       0.1692
     74  C        -21.8260   10.9810   -4.4510 C.2    76  ILE76       0.2593
     75  O        -20.7080   11.0780   -3.9250 O.2    76  ILE76      -0.2718
     76  CB       -21.8780    9.4710   -6.5030 C.3    76  ILE76       0.0266
     77  CG1      -23.2770    8.8770   -6.5720 C.3    76  ILE76       0.0019
     78  CG2      -20.8390    8.6160   -5.7550 C.3    76  ILE76       0.0020
     79  CD1      -23.9900    9.3070   -7.8070 C.3    76  ILE76       0.0001
     80  N        -22.9550   10.9200   -3.7280 N.am   77  THR77      -0.1939
     81  CA       -22.8590   10.7730   -2.2770 C.3    77  THR77       0.2028
     82  C        -23.2140    9.3460   -1.8910 C.2    77  THR77       0.2642
     83  O        -24.0090    8.6790   -2.5950 O.2    77  THR77      -0.2714
     84  CB       -23.8150   11.7230   -1.5310 C.3    77  THR77       0.1808
     85  OG1      -25.1590   11.4520   -1.9340 O.3    77  THR77      -0.2208
     86  CG2      -23.4930   13.1950   -1.8220 C.3    77  THR77       0.0379
     87  N        -22.6450    8.8710   -0.7890 N.am   78  LEU78      -0.1977
     88  CA       -23.0460    7.5780   -0.2420 C.3    78  LEU78       0.1596
     89  C        -24.1560    7.7800    0.8200 C.2    78  LEU78       0.2287
     90  O        -24.0490    8.6710    1.6820 O.2    78  LEU78      -0.2864
     91  CB       -21.8410    6.8640    0.3830 C.3    78  LEU78       0.0297
     92  CG       -22.0940    5.5070    1.0580 C.3    78  LEU78       0.0022
     93  CD1      -22.4560    4.4280    0.0600 C.3    78  LEU78       0.0001
     94  CD2      -20.8730    5.0530    1.9210 C.3    78  LEU78       0.0001
     95  N        -23.7020   -1.0380   -1.2780 N.3    90  LEU90      -0.1245
     96  CA       -23.4810    0.3870   -1.0820 C.3    90  LEU90       0.1561
     97  C        -24.6450    1.1070   -1.7170 C.2    90  LEU90       0.2260
     98  O        -24.8430    1.0390   -2.9460 O.2    90  LEU90      -0.2867
     99  CB       -22.2020    0.8680   -1.7660 C.3    90  LEU90       0.0270
    100  CG       -20.8610    0.1790   -1.5350 C.3    90  LEU90       0.0019
    101  CD1      -19.7210    0.8980   -2.3010 C.3    90  LEU90       0.0001
    102  CD2      -20.5390    0.1510   -0.1210 C.3    90  LEU90       0.0001
    103  N        -26.3210    4.5190   -2.6610 N.3    92  GLY92      -0.1210
    104  CA       -25.9280    5.8930   -2.8910 C.3    92  GLY92       0.1956
    105  C        -26.7800    6.6310   -3.8990 C.2    92  GLY92       0.2612
    106  O        -27.8260    6.1510   -4.3270 O.2    92  GLY92      -0.2717
    107  N        -26.3100    7.8180   -4.2620 N.am   93  GLU93      -0.1965
    108  CA       -27.1390    8.7860   -4.9770 C.3    93  GLU93       0.1733
    109  C        -27.4670    8.2890   -6.3590 C.2    93  GLU93       0.2616
    110  O        -26.5730    7.9880   -7.1350 O.2    93  GLU93      -0.2715
    111  CB       -26.4080   10.1210   -5.0910 C.3    93  GLU93       0.0429
    112  CG       -27.2170   11.2270   -5.7720 C.3    93  GLU93       0.1163
    113  CD       -26.5000   12.5630   -5.6680 C.2    93  GLU93       0.3649
    114  OE1      -25.2740   12.5520   -5.4600 O.co2  93  GLU93      -0.2457
    115  OE2      -27.1580   13.6200   -5.7880 O.co2  93  GLU93      -0.2457
    116  N        -28.7590    8.2240   -6.6690 N.am   94  LEU94      -0.1963
    117  CA       -29.1870    7.8660   -8.0170 C.3    94  LEU94       0.1728
    118  C        -28.9070    9.0160   -8.9700 C.2    94  LEU94       0.2616
    119  O        -29.2410   10.1520   -8.6550 O.2    94  LEU94      -0.2715
    120  CB       -30.6860    7.5720   -8.0160 C.3    94  LEU94       0.0311
    121  CG       -31.3190    7.2570   -9.3610 C.3    94  LEU94       0.0022
    122  CD1      -30.8000    5.9440   -9.9100 C.3    94  LEU94       0.0001
    123  CD2      -32.8270    7.1850   -9.2630 C.3    94  LEU94       0.0001
    124  N        -28.3200    8.7150  -10.1290 N.am   95  VAL95      -0.1977
    125  CA       -28.1310    9.7200  -11.1890 C.3    95  VAL95       0.1596
    126  C        -28.8580    9.1820  -12.4230 C.2    95  VAL95       0.2287
    127  O        -28.4500    8.1720  -13.0070 O.2    95  VAL95      -0.2864
    128  CB       -26.6480    9.9880  -11.4830 C.3    95  VAL95       0.0276
    129  CG1      -26.4920   11.2610  -12.3230 C.3    95  VAL95       0.0022
    130  CG2      -25.8850   10.1710  -10.1690 C.3    95  VAL95       0.0022
    131  N        -25.1940    7.3640  -18.6920 N.3    99  GLU99      -0.1245
    132  CA       -23.7550    7.5750  -18.8270 C.3    99  GLU99       0.1567
    133  C        -23.4590    8.6290  -19.8730 C.2    99  GLU99       0.2260
    134  O        -24.1480    8.7260  -20.8900 O.2    99  GLU99      -0.2867
    135  CB       -23.0620    6.2680  -19.2490 C.3    99  GLU99       0.0388
    136  CG       -23.1050    5.1410  -18.2310 C.3    99  GLU99       0.1160
    137  CD       -22.6190    3.8350  -18.8360 C.2    99  GLU99       0.3649
    138  OE1      -21.8990    3.8790  -19.8710 O.co2  99  GLU99      -0.2457
    139  OE2      -22.9620    2.7650  -18.2880 O.co2  99  GLU99      -0.2457
    140  N        -17.9750    6.0390  -19.0450 N.3   142  GLU142     -0.1231
    141  CA       -18.8860    5.1370  -18.3000 C.3   142  GLU142      0.1699
    142  C        -19.1130    5.5200  -16.8230 C.2   142  GLU142      0.2592
    143  O        -20.1230    5.1140  -16.1970 O.2   142  GLU142     -0.2718
    144  CB       -18.4260    3.6770  -18.3750 C.3   142  GLU142      0.0402
    145  CG       -18.4600    3.0600  -19.7940 C.3   142  GLU142      0.1161
    146  CD       -17.2690    3.4250  -20.6830 C.2   142  GLU142      0.3649
    147  OE1      -16.4090    4.2910  -20.3460 O.co2 142  GLU142     -0.2457
    148  OE2      -17.1930    2.8170  -21.7760 O.co2 142  GLU142     -0.2457
    149  N        -18.1550    6.2640  -16.2730 N.am  143  ASN143     -0.1974
    150  CA       -18.1580    6.7170  -14.8900 C.3   143  ASN143      0.1688
    151  C        -18.5050    8.2030  -14.6890 C.2   143  ASN143      0.2292
    152  O        -18.2530    8.7850  -13.6130 O.2   143  ASN143     -0.2864
    153  CB       -16.8200    6.3590  -14.2360 C.3   143  ASN143      0.1181
    154  CG       -16.7400    4.9070  -13.8980 C.2   143  ASN143      0.2629
    155  OD1      -17.7810    4.2160  -13.8160 O.2   143  ASN143     -0.2716
    156  ND2      -15.5180    4.3970  -13.7340 N.am  143  ASN143     -0.0877
    157  N        -21.8990   10.4430  -15.0120 N.3   145  MET145     -0.1245
    158  CA       -23.3540   10.2260  -15.1690 C.3   145  MET145      0.1570
    159  C        -24.0270   11.5780  -15.3040 C.2   145  MET145      0.2261
    160  O        -23.6450   12.5290  -14.6070 O.2   145  MET145     -0.2867
    161  CB       -23.8970    9.5250  -13.9240 C.3   145  MET145      0.0387
    162  CG       -23.3870    8.1010  -13.7000 C.3   145  MET145      0.0595
    163  SD       -23.8480    7.0240  -15.0700 S.3   145  MET145     -0.1393
    164  CE       -25.6630    7.0950  -15.0150 C.3   145  MET145      0.0692
    165  N        -18.8940    8.9550  -10.7520 N.3   159  ILE159     -0.1231
    166  CA       -19.2640    7.7750   -9.9470 C.3   159  ILE159      0.1692
    167  C        -18.1320    6.7410   -9.9080 C.2   159  ILE159      0.2592
    168  O        -17.0990    6.9250  -10.5540 O.2   159  ILE159     -0.2718
    169  CB       -20.5060    7.0820  -10.5080 C.3   159  ILE159      0.0266
    170  CG1      -20.2520    6.5790  -11.9510 C.3   159  ILE159      0.0019
    171  CG2      -21.7220    8.0070  -10.4100 C.3   159  ILE159      0.0020
    172  CD1      -21.1810    5.4180  -12.3890 C.3   159  ILE159      0.0001
    173  N        -18.3770    5.6650   -9.1540 N.am  160  ASP160     -0.1974
    174  CA       -17.5380    4.4770   -9.0480 C.3   160  ASP160      0.1709
    175  C        -16.1270    4.7180   -8.4790 C.2   160  ASP160      0.2293
    176  O        -15.1390    4.8860   -9.2180 O.2   160  ASP160     -0.2864
    177  CB       -17.4320    3.7050  -10.3560 C.3   160  ASP160      0.1436
    178  CG       -16.9370    2.2850  -10.1460 C.2   160  ASP160      0.3671
    179  OD1      -16.2200    2.0070   -9.1560 O.co2 160  ASP160     -0.2456
    180  OD2      -17.2610    1.4310  -10.9880 O.co2 160  ASP160     -0.2456
@<TRIPOS>BOND
     1   148   146   ar
     2   134   133    2
     3   146   147   ar
     4   146   145    1
     5   133   132    1
     6   138   137   ar
     7   145   144    1
     8   135   132    1
     9   135   136    1
    10   140   141    1
    11   137   139   ar
    12   137   136    1
    13   132   131    1
    14   144   141    1
    15   141   142    1
    16   142   149   am
    17   142   143    2
    18   149   150    1
    19     4     3    2
    20    18    17    1
    21   159   158    1
    22   159   160    2
    23   158   157    1
    24   158   161    1
    25   163   164    1
    26   163   162    1
    27    10     9    1
    28    10    11    1
    29   150   151    1
    30   150   153    1
    31    16    15    2
    32   151   152    2
    33     3     9   am
    34     3     2    1
    35    13    11   am
    36    13    14    1
    37    17    14    1
    38   153   154    1
    39    11    12    2
    40    15    14    1
    41    15    19   am
    42     2     1    1
    43     2     5    1
    44   161   162    1
    45   154   155    2
    46   154   156   am
    47    22    21    2
    48    21    20    1
    49    20    19    1
    50   127   126    2
    51     8     6    1
    52     5     6    1
    53   126   125    1
    54   172   170    1
    55   129   128    1
    56     6     7    1
    57   170   169    1
    58   128   125    1
    59   128   130    1
    60   125   124    1
    61    37    36    2
    62   180   178   ar
    63    23    24    1
    64    30    32   ar
    65    30    28   ar
    66    27    28    1
    67    27    24    1
    68   165   166    1
    69   168   167    2
    70   169   171    1
    71   169   166    1
    72    32    33   ar
    73   177   178    1
    74   177   174    1
    75    34    35    1
    76    28    29   ar
    77    38    40    1
    78    38    35    1
    79    38    39    1
    80   178   179   ar
    81   124   118   am
    82    24    25    1
    83    36    35    1
    84   166   167    1
    85   122   121    1
    86   167   173   am
    87   121   123    1
    88   121   120    1
    89   176   175    2
    90    33    31   ar
    91   173   174    1
    92    25    26    2
    93   174   175    1
    94    29    31   ar
    95   118   119    2
    96   118   117    1
    97   117   120    1
    98   117   116    1
    99    79    77    1
   100    45    42    1
   101    53    54    1
   102    53    52    1
   103   110   109    2
   104   116   109   am
   105    72    73    1
   106    51    52    1
   107    51    50    1
   108    42    41    1
   109    42    43    1
   110    77    76    1
   111    76    73    1
   112    76    78    1
   113   109   108    1
   114    73    74    1
   115    50    47    1
   116    47    46    1
   117    47    48    1
   118   115   113   ar
   119   112   113    1
   120   112   111    1
   121    43    44    2
   122   113   114   ar
   123   111   108    1
   124    48    49    2
   125   108   107    1
   126    63    61   ar
   127    74    75    2
   128    74    80   am
   129   106   105    2
   130   107   105   am
   131    62    61   ar
   132    61    60    1
   133   105   104    1
   134    80    81    1
   135    71    69    1
   136    60    59    1
   137    98    97    2
   138   104   103    1
   139    83    82    2
   140   101   100    1
   141    81    82    1
   142    81    84    1
   143    59    56    1
   144    85    84    1
   145    70    69    1
   146    82    87   am
   147    69    68    1
   148    86    84    1
   149    99   100    1
   150    99    96    1
   151    97    96    1
   152   100   102    1
   153    95    96    1
   154    56    55    1
   155    56    57    1
   156    87    88    1
   157    68    65    1
   158    58    57    2
   159    88    91    1
   160    88    89    1
   161    65    64    1
   162    65    66    1
   163    93    92    1
   164    91    92    1
   165    89    90    2
   166    67    66    2
   167    92    94    1
