@<TRIPOS>MOLECULE
tmp/3gucA00.pdb
 173 167 0 0 0
SMALL
GASTEIGER

@<TRIPOS>ATOM
      1  N        -40.2970   18.0300  -16.8800 N.3    11  VAL11      -0.1231
      2  CA       -39.7000   18.8820  -17.9230 C.3    11  VAL11       0.1692
      3  C        -39.2830   20.2100  -17.3230 C.2    11  VAL11       0.2592
      4  O        -40.1220   21.0010  -16.8630 O.2    11  VAL11      -0.2718
      5  CB       -40.6480   19.0950  -19.1350 C.3    11  VAL11       0.0266
      6  CG1      -39.8920   19.7420  -20.2860 C.3    11  VAL11       0.0020
      7  CG2      -41.2650   17.7540  -19.6090 C.3    11  VAL11       0.0020
      8  N        -37.9790   20.4520  -17.3240 N.am   12  GLY12      -0.1957
      9  CA       -37.4160   21.6640  -16.7810 C.3    12  GLY12       0.1869
     10  C        -36.9080   21.3780  -15.3890 C.2    12  GLY12       0.2309
     11  O        -37.6830   21.2200  -14.4420 O.2    12  GLY12      -0.2863
     12  N        -35.0140   23.3500  -13.6310 N.3    14  GLY14      -0.1210
     13  CA       -34.5870   24.5960  -13.0460 C.3    14  GLY14       0.1956
     14  C        -35.0400   24.6690  -11.6090 C.2    14  GLY14       0.2612
     15  O        -34.9890   23.6830  -10.8720 O.2    14  GLY14      -0.2717
     16  N        -35.4790   25.8550  -11.2110 N.am   15  GLY15      -0.1942
     17  CA       -35.8860   26.1190   -9.8490 C.3    15  GLY15       0.2014
     18  C        -36.8610   25.1020   -9.3070 C.2    15  GLY15       0.2638
     19  O        -36.4730   24.2700   -8.4880 O.2    15  GLY15      -0.2714
     20  N        -38.1150   25.1460   -9.7580 N.am   16  VAL16      -0.1977
     21  CA       -39.1430   24.3150   -9.1480 C.3    16  VAL16       0.1596
     22  C        -38.9430   22.8750   -9.5540 C.2    16  VAL16       0.2287
     23  O        -39.2250   21.9440   -8.7740 O.2    16  VAL16      -0.2864
     24  CB       -40.6160   24.8270   -9.4280 C.3    16  VAL16       0.0276
     25  CG1      -40.7790   25.2090  -10.8560 C.3    16  VAL16       0.0022
     26  CG2      -41.6660   23.7520   -9.1080 C.3    16  VAL16       0.0022
     27  N        -36.1720   16.0680  -18.4510 N.3    35  PHE35      -0.1227
     28  CA       -35.9220   16.7240  -19.7280 C.3    35  PHE35       0.1736
     29  C        -35.5440   18.1740  -19.5070 C.2    35  PHE35       0.2595
     30  O        -36.2290   18.8940  -18.7500 O.2    35  PHE35      -0.2718
     31  CB       -37.1680   16.7040  -20.6070 C.3    35  PHE35       0.0547
     32  CG       -37.6690   15.3330  -20.9520 C.ar   35  PHE35      -0.0202
     33  CD1      -38.4460   14.6150  -20.0540 C.ar   35  PHE35      -0.0042
     34  CD2      -37.4050   14.7770  -22.2180 C.ar   35  PHE35      -0.0042
     35  CE1      -38.9430   13.3550  -20.3810 C.ar   35  PHE35      -0.0003
     36  CE2      -37.8830   13.5230  -22.5470 C.ar   35  PHE35      -0.0003
     37  CZ       -38.6750   12.8200  -21.6310 C.ar   35  PHE35      -0.0000
     38  N        -34.4860   18.6220  -20.1740 N.am   36  ASP36      -0.1960
     39  CA       -34.0820   20.0360  -20.1360 C.3    36  ASP36       0.1840
     40  C        -33.0830   20.2410  -21.2570 C.2    36  ASP36       0.2622
     41  O        -32.6490   19.2640  -21.8260 O.2    36  ASP36      -0.2715
     42  CB       -33.4700   20.3940  -18.7770 C.3    36  ASP36       0.1450
     43  CG       -33.6450   21.8530  -18.4270 C.2    36  ASP36       0.3671
     44  OD1      -33.1820   22.6970  -19.2210 O.co2  36  ASP36      -0.2456
     45  OD2      -34.2140   22.1670  -17.3480 O.co2  36  ASP36      -0.2456
     46  N        -32.7140   21.4780  -21.5800 N.am   37  TYR37      -0.1960
     47  CA       -31.7960   21.6960  -22.6920 C.3    37  TYR37       0.1771
     48  C        -30.6400   22.6810  -22.4700 C.2    37  TYR37       0.2619
     49  O        -29.8410   22.8990  -23.3730 O.2    37  TYR37      -0.2715
     50  CB       -32.5590   22.0140  -23.9970 C.3    37  TYR37       0.0574
     51  CG       -32.9580   23.4540  -24.1260 C.ar   37  TYR37      -0.0198
     52  CD1      -32.2850   24.3150  -24.9990 C.ar   37  TYR37      -0.0009
     53  CD2      -33.9960   23.9770  -23.3530 C.ar   37  TYR37      -0.0009
     54  CE1      -32.6500   25.6640  -25.0990 C.ar   37  TYR37       0.0417
     55  CE2      -34.3660   25.3200  -23.4430 C.ar   37  TYR37       0.0417
     56  CZ       -33.6970   26.1540  -24.3160 C.ar   37  TYR37       0.1957
     57  OH       -34.0800   27.4760  -24.3950 O.3    37  TYR37      -0.2866
     58  N        -30.5060   23.2850  -21.3010 N.am   38  ASP38      -0.1971
     59  CA       -29.2600   24.0380  -21.1150 C.3    38  ASP38       0.1709
     60  C        -28.3180   23.4210  -20.0740 C.2    38  ASP38       0.2293
     61  O        -28.5620   22.3040  -19.5890 O.2    38  ASP38      -0.2864
     62  CB       -29.4700   25.5750  -20.9820 C.3    38  ASP38       0.1436
     63  CG       -29.8380   26.0070  -19.5750 C.2    38  ASP38       0.3671
     64  OD1      -30.4440   25.1840  -18.8450 O.co2  38  ASP38      -0.2456
     65  OD2      -29.5220   27.1660  -19.2060 O.co2  38  ASP38      -0.2456
     66  N        -27.7070   20.3360  -17.5150 N.3    51  LYS51      -0.1245
     67  CA       -28.5610   20.3820  -16.3410 C.3    51  LYS51       0.1561
     68  C        -29.0950   19.0150  -15.9980 C.2    51  LYS51       0.2260
     69  O        -29.1840   18.6700  -14.8210 O.2    51  LYS51      -0.2867
     70  CB       -29.7280   21.3490  -16.5330 C.3    51  LYS51       0.0271
     71  CG       -29.4300   22.7720  -16.1080 C.3    51  LYS51       0.0035
     72  CD       -30.6450   23.6970  -16.2540 C.3    51  LYS51       0.0206
     73  CE       -30.4270   25.0190  -15.5010 C.3    51  LYS51       0.1093
     74  NZ       -31.6190   25.9270  -15.5280 N.3    51  LYS51      -0.1314
     75  N        -32.3430   17.6560  -24.8610 N.3    73  TYR73      -0.1227
     76  CA       -32.6970   18.2250  -26.1680 C.3    73  TYR73       0.1736
     77  C        -33.8020   19.2750  -26.0490 C.2    73  TYR73       0.2595
     78  O        -34.4800   19.3750  -25.0100 O.2    73  TYR73      -0.2718
     79  CB       -33.0520   17.1480  -27.2180 C.3    73  TYR73       0.0548
     80  CG       -34.0030   16.0320  -26.8020 C.ar   73  TYR73      -0.0200
     81  CD1      -35.3070   16.2990  -26.4010 C.ar   73  TYR73      -0.0009
     82  CD2      -33.5930   14.6920  -26.8480 C.ar   73  TYR73      -0.0009
     83  CE1      -36.1910   15.2560  -26.0330 C.ar   73  TYR73       0.0417
     84  CE2      -34.4590   13.6420  -26.4800 C.ar   73  TYR73       0.0417
     85  CZ       -35.7630   13.9450  -26.0610 C.ar   73  TYR73       0.1957
     86  OH       -36.6380   12.9200  -25.6910 O.3    73  TYR73      -0.2866
     87  N        -33.9620   20.0790  -27.0930 N.am   74  ASN74      -0.1960
     88  CA       -35.0200   21.0830  -27.1020 C.3    74  ASN74       0.1819
     89  C        -36.3400   20.4970  -27.6250 C.2    74  ASN74       0.2621
     90  O        -36.4890   20.2860  -28.8360 O.2    74  ASN74      -0.2715
     91  CB       -34.6130   22.2850  -27.9510 C.3    74  ASN74       0.1195
     92  CG       -35.6090   23.4400  -27.8350 C.2    74  ASN74       0.2630
     93  OD1      -36.8070   23.2470  -27.5870 O.2    74  ASN74      -0.2716
     94  ND2      -35.1040   24.6400  -27.9870 N.am   74  ASN74      -0.0877
     95  N        -37.3020   20.2480  -26.7360 N.am   75  ILE75      -0.1963
     96  CA       -38.5560   19.5860  -27.1440 C.3    75  ILE75       0.1727
     97  C        -39.4510   20.4080  -28.1400 C.2    75  ILE75       0.2616
     98  O        -40.4230   19.8690  -28.6770 O.2    75  ILE75      -0.2715
     99  CB       -39.4150   19.1230  -25.9130 C.3    75  ILE75       0.0290
    100  CG1      -40.1390   20.3180  -25.2740 C.3    75  ILE75       0.0022
    101  CG2      -38.6190   18.2070  -24.9350 C.3    75  ILE75       0.0023
    102  CD1      -39.9220   20.5060  -23.8700 C.3    75  ILE75       0.0001
    103  N        -39.1100   21.6670  -28.4150 N.am   76  THR76      -0.1951
    104  CA       -39.9590   22.5150  -29.2880 C.3    76  THR76       0.1897
    105  C        -39.6490   22.3750  -30.7780 C.2    76  THR76       0.2313
    106  O        -40.1740   23.0710  -31.6230 O.2    76  THR76      -0.2863
    107  CB       -39.9020   23.9960  -28.8980 C.3    76  THR76       0.1794
    108  OG1      -38.5680   24.4650  -29.0800 O.3    76  THR76      -0.2208
    109  CG2      -40.3120   24.1650  -27.4340 C.3    76  THR76       0.0378
    110  N        -42.2690   22.0530  -15.4950 N.3   105  CYS105     -0.1221
    111  CA       -41.6200   23.0070  -14.6200 C.3   105  CYS105      0.1808
    112  C        -40.7180   23.8850  -15.4610 C.2   105  CYS105      0.2601
    113  O        -39.7180   24.3810  -14.9810 O.2   105  CYS105     -0.2717
    114  CB       -40.8020   22.2890  -13.5250 C.3   105  CYS105      0.0970
    115  SG       -41.7440   21.0600  -12.4940 S.3   105  CYS105     -0.0800
    116  N        -41.1000   24.0990  -16.7140 N.am  106  VAL106     -0.1965
    117  CA       -40.3840   25.0470  -17.6090 C.3   106  VAL106      0.1727
    118  C        -40.7660   26.4900  -17.3360 C.2   106  VAL106      0.2616
    119  O        -41.7750   26.7510  -16.6650 O.2   106  VAL106     -0.2715
    120  CB       -40.6330   24.7230  -19.1020 C.3   106  VAL106      0.0290
    121  CG1      -40.1530   23.3020  -19.4050 C.3   106  VAL106      0.0023
    122  CG2      -42.1280   24.8380  -19.4330 C.3   106  VAL106      0.0023
    123  N        -39.9640   27.4190  -17.8630 N.am  107  ASP107     -0.1957
    124  CA       -40.1760   28.8470  -17.6380 C.3   107  ASP107      0.1840
    125  C        -40.8280   29.6040  -18.7890 C.2   107  ASP107      0.2622
    126  O        -40.8530   30.8280  -18.7700 O.2   107  ASP107     -0.2715
    127  CB       -38.8500   29.5500  -17.2950 C.3   107  ASP107      0.1450
    128  CG       -37.7910   29.4840  -18.4400 C.2   107  ASP107      0.3671
    129  OD1      -36.6900   30.0480  -18.2280 O.co2 107  ASP107     -0.2456
    130  OD2      -38.0200   28.8720  -19.5220 O.co2 107  ASP107     -0.2456
    131  N        -41.3400   28.9150  -19.8030 N.am  108  ASN108     -0.1972
    132  CA       -41.8260   29.6630  -20.9500 C.3   108  ASN108      0.1688
    133  C        -43.0030   29.0220  -21.6030 C.2   108  ASN108      0.2292
    134  O        -43.2310   27.8150  -21.4810 O.2   108  ASN108     -0.2864
    135  CB       -40.7190   29.9370  -21.9760 C.3   108  ASN108      0.1181
    136  CG       -40.1830   28.6620  -22.5950 C.2   108  ASN108      0.2629
    137  OD1      -40.5980   28.2540  -23.6910 O.2   108  ASN108     -0.2716
    138  ND2      -39.2940   27.9870  -21.8650 N.am  108  ASN108     -0.0877
    139  N        -42.6320   26.1410  -24.5300 N.3   111  ALA111     -0.1231
    140  CA       -42.3820   24.7890  -24.0280 C.3   111  ALA111      0.1694
    141  C        -43.6360   24.2500  -23.3630 C.2   111  ALA111      0.2591
    142  O        -43.9370   23.0730  -23.5050 O.2   111  ALA111     -0.2718
    143  CB       -41.2230   24.7700  -23.0850 C.3   111  ALA111      0.0304
    144  N        -44.3570   25.1060  -22.6410 N.am  112  ARG112     -0.1980
    145  CA       -45.6400   24.6950  -22.0270 C.3   112  ARG112      0.1597
    146  C        -46.6570   24.2730  -23.0600 C.2   112  ARG112      0.2287
    147  O        -47.3180   23.2670  -22.8880 O.2   112  ARG112     -0.2864
    148  CB       -46.2650   25.8130  -21.1620 C.3   112  ARG112      0.0334
    149  CG       -45.4410   26.1410  -19.9350 C.3   112  ARG112      0.0492
    150  CD       -45.9480   27.3330  -19.1280 C.3   112  ARG112      0.2205
    151  NE       -44.8400   27.8410  -18.3320 N.pl3 112  ARG112     -0.0865
    152  CZ       -44.9500   28.5870  -17.2500 C.cat 112  ARG112      0.5346
    153  NH1      -43.8530   28.9940  -16.6230 N.pl3 112  ARG112      0.1354
    154  NH2      -46.1590   28.9100  -16.7780 N.pl3 112  ARG112      0.1354
    155  N        -45.4140   26.7180  -12.0740 N.3   130  GLY130     -0.1210
    156  CA       -44.5640   27.8510  -12.3480 C.3   130  GLY130      0.1956
    157  C        -44.3920   28.7260  -11.1390 C.2   130  GLY130      0.2611
    158  O        -45.2050   28.6950  -10.1970 O.2   130  GLY130     -0.2717
    159  N        -43.3200   29.5010  -11.1780 N.am  131  VAL131     -0.1979
    160  CA       -43.0630   30.5300  -10.2120 C.3   131  VAL131      0.1595
    161  C        -42.7990   31.7980  -11.0080 C.2   131  VAL131      0.2287
    162  O        -41.9650   31.7960  -11.9350 O.2   131  VAL131     -0.2864
    163  CB       -41.8390   30.1730   -9.3370 C.3   131  VAL131      0.0276
    164  CG1      -41.2680   31.4390   -8.6760 C.3   131  VAL131      0.0022
    165  CG2      -42.2130   29.1010   -8.2810 C.3   131  VAL131      0.0022
    166  N        -40.2480   29.0030   -4.4850 N.3   173  MET173     -0.1245
    167  CA       -40.0070   27.7250   -5.1970 C.3   173  MET173      0.1570
    168  C        -40.2670   26.5260   -4.3000 C.2   173  MET173      0.2261
    169  O        -40.9110   25.5510   -4.7120 O.2   173  MET173     -0.2867
    170  CB       -38.5900   27.6610   -5.7960 C.3   173  MET173      0.0387
    171  CG       -38.4460   28.4860   -7.0670 C.3   173  MET173      0.0595
    172  SD       -36.7420   28.6560   -7.6680 S.3   173  MET173     -0.1393
    173  CE       -37.0410   29.6340   -9.1380 C.3   173  MET173      0.0692
@<TRIPOS>BOND
     1   106   105    2
     2   105   104    1
     3   104   107    1
     4   104   103    1
     5   108   107    1
     6   107   109    1
     7    90    89    2
     8    98    97    2
     9   103    97   am
    10    97    96    1
    11    94    92   am
    12    91    92    1
    13    91    88    1
    14    92    93    2
    15    89    88    1
    16    89    95   am
    17    79    80    1
    18    79    76    1
    19    96    95    1
    20    96    99    1
    21    88    87    1
    22    87    77   am
    23    82    80   ar
    24    82    84   ar
    25    80    81   ar
    26    84    85   ar
    27    81    83   ar
    28    76    77    1
    29    76    75    1
    30    85    83   ar
    31    85    86    1
    32    77    78    2
    33    99   100    1
    34    99   101    1
    35   100   102    1
    36    54    52   ar
    37    54    56   ar
    38    52    51   ar
    39   139   140    1
    40    57    56    1
    41    56    55   ar
    42    51    50    1
    43    51    53   ar
    44   140   141    1
    45   140   143    1
    46    50    47    1
    47   137   136    2
    48   142   141    2
    49    55    53   ar
    50    49    48    2
    51   141   144   am
    52   146   147    2
    53   146   145    1
    54    47    48    1
    55    47    46    1
    56   144   145    1
    57   136   135    1
    58   136   138   am
    59    36    34   ar
    60    36    37   ar
    61    48    58   am
    62    34    32   ar
    63   145   148    1
    64   135   132    1
    65    41    40    2
    66    37    35   ar
    67   133   134    2
    68   133   132    1
    69    46    40   am
    70    58    59    1
    71    40    39    1
    72   148   149    1
    73    59    62    1
    74    59    60    1
    75    62    63    1
    76    32    31    1
    77    32    33   ar
    78   132   131    1
    79    31    28    1
    80    35    33   ar
    81     6     5    1
    82    38    39    1
    83    38    29   am
    84    39    42    1
    85    60    61    2
    86   149   150    1
    87   131   125   am
    88    28    29    1
    89    28    27    1
    90     7     5    1
    91    63    65   ar
    92    63    64   ar
    93   130   128   ar
    94    29    30    2
    95   122   120    1
    96   121   120    1
    97    44    43   ar
    98     5     2    1
    99   150   151    1
   100   120   117    1
   101   125   126    2
   102   125   124    1
   103    42    43    1
   104   128   129   ar
   105   128   127    1
   106    43    45   ar
   107   151   152    2
   108     2     3    1
   109     2     1    1
   110   123   124    1
   111   123   118   am
   112   124   127    1
   113   117   118    1
   114   117   116    1
   115    66    67    1
   116   118   119    2
   117     8     3   am
   118     8     9    1
   119     3     4    2
   120   152   154    1
   121   152   153    1
   122     9    10    1
   123   116   112   am
   124    70    67    1
   125    70    71    1
   126    67    68    1
   127    72    71    1
   128    72    73    1
   129    68    69    2
   130    74    73    1
   131   110   111    1
   132   112   113    2
   133   112   111    1
   134    10    11    2
   135   111   114    1
   136    12    13    1
   137   114   115    1
   138    13    14    1
   139   156   155    1
   140   156   157    1
   141   162   161    2
   142    14    16   am
   143    14    15    2
   144    16    17    1
   145   159   157   am
   146   159   160    1
   147   157   158    2
   148   161   160    1
   149    25    24    1
   150   160   163    1
   151    17    18    1
   152    20    18   am
   153    20    21    1
   154    22    21    1
   155    22    23    2
   156    24    21    1
   157    24    26    1
   158   163   164    1
   159   163   165    1
   160    18    19    2
   161   173   172    1
   162   172   171    1
   163   171   170    1
   164   170   167    1
   165   167   166    1
   166   167   168    1
   167   169   168    2
