@<TRIPOS>MOLECULE
tmp/3gueA00.pdb
 201 190 0 0 0
SMALL
GASTEIGER

@<TRIPOS>ATOM
      1  N         26.5600    1.4800    8.2200 N.3    74  LEU74      -0.1231
      2  CA        27.5170    0.6580    7.4760 C.3    74  LEU74       0.1693
      3  C         28.5690    1.5870    6.8130 C.2    74  LEU74       0.2592
      4  O         28.2270    2.6180    6.2290 O.2    74  LEU74      -0.2718
      5  CB        26.7980   -0.1980    6.4230 C.3    74  LEU74       0.0284
      6  CG        25.6630   -1.1220    6.9110 C.3    74  LEU74       0.0019
      7  CD1       24.9730   -1.8850    5.7560 C.3    74  LEU74       0.0001
      8  CD2       26.1200   -2.0990    8.0350 C.3    74  LEU74       0.0001
      9  N         29.8360    1.1960    6.8780 N.am   75  ASN75      -0.1960
     10  CA        30.9350    2.0560    6.4030 C.3    75  ASN75       0.1819
     11  C         32.1570    1.2460    5.9290 C.2    75  ASN75       0.2622
     12  O         33.2810    1.7460    5.9300 O.2    75  ASN75      -0.2715
     13  CB        31.3130    3.0290    7.5380 C.3    75  ASN75       0.1195
     14  CG        32.2110    4.1690    7.0740 C.2    75  ASN75       0.2630
     15  OD1       31.9490    4.8240    6.0560 O.2    75  ASN75      -0.2716
     16  ND2       33.2940    4.3720    7.7860 N.am   75  ASN75      -0.0877
     17  N         31.9150   -0.0010    5.5060 N.am   76  GLY76      -0.1940
     18  CA        32.9810   -0.9920    5.2960 C.3    76  GLY76       0.2014
     19  C         33.3020   -1.2800    3.8430 C.2    76  GLY76       0.2639
     20  O         34.3130   -1.9010    3.5520 O.2    76  GLY76      -0.2714
     21  N         32.4770   -0.7990    2.9200 N.am   77  GLY77      -0.1954
     22  CA        32.6890   -1.0950    1.5050 C.3    77  GLY77       0.1869
     23  C         33.8300   -0.2760    0.9200 C.2    77  GLY77       0.2309
     24  O         34.2630    0.7230    1.5090 O.2    77  GLY77      -0.2863
     25  N         33.6190    5.6370    0.6600 N.3    88  LYS88      -0.1245
     26  CA        32.7340    6.5460   -0.0900 C.3    88  LYS88       0.1561
     27  C         32.0970    7.6140    0.8090 C.2    88  LYS88       0.2260
     28  O         31.7370    8.6560    0.3350 O.2    88  LYS88      -0.2867
     29  CB        31.6420    5.7500   -0.8090 C.3    88  LYS88       0.0271
     30  CG        30.7120    6.5680   -1.6880 C.3    88  LYS88       0.0035
     31  CD        29.5050    5.7310   -2.0700 C.3    88  LYS88       0.0206
     32  CE        29.8860    4.6790   -3.1130 C.3    88  LYS88       0.1093
     33  NZ        28.9150    3.5390   -3.1680 N.3    88  LYS88      -0.1314
     34  N         30.3280    0.5340   11.1240 N.3   123  MET123     -0.1245
     35  CA        31.0070   -0.6840   10.7620 C.3   123  MET123      0.1570
     36  C         32.0400   -0.3670    9.6960 C.2   123  MET123      0.2261
     37  O         31.7020   -0.0670    8.5310 O.2   123  MET123     -0.2867
     38  CB        30.0380   -1.7510   10.2780 C.3   123  MET123      0.0387
     39  CG        30.7010   -3.1250   10.0970 C.3   123  MET123      0.0595
     40  SD        29.5280   -4.4460    9.8360 S.3   123  MET123     -0.1393
     41  CE        29.2580   -4.3750    8.0420 C.3   123  MET123      0.0692
     42  N         34.7630   -4.9900   10.9640 N.3   154  GLN154     -0.1245
     43  CA        34.3230   -6.2100   10.3520 C.3   154  GLN154      0.1566
     44  C         35.5390   -7.0460    9.9430 C.2   154  GLN154      0.2260
     45  O         36.6950   -6.6760   10.1840 O.2   154  GLN154     -0.2867
     46  CB        33.3650   -5.9310    9.1810 C.3   154  GLN154      0.0367
     47  CG        33.9940   -5.3410    7.9120 C.3   154  GLN154      0.0905
     48  CD        32.9720   -5.2690    6.7860 C.2   154  GLN154      0.2608
     49  OE1       32.6450   -4.1900    6.2950 O.2   154  GLN154     -0.2717
     50  NE2       32.4190   -6.4100    6.4240 N.am  154  GLN154     -0.0878
     51  N         36.3730   -6.9680    2.2990 N.3   180  PRO180     -0.2116
     52  CA        35.3780   -7.1720    3.3670 C.3   180  PRO180      0.1372
     53  C         34.2920   -8.0920    2.7910 C.2   180  PRO180      0.2244
     54  O         33.9440   -7.9330    1.6150 O.2   180  PRO180     -0.2868
     55  CB        34.8170   -5.7560    3.6190 C.3   180  PRO180      0.0268
     56  CG        35.1440   -4.9730    2.3760 C.3   180  PRO180      0.0207
     57  CD        36.4660   -5.5460    1.9160 C.3   180  PRO180      0.0892
     58  N         31.0930   -8.3930    2.6980 N.3   182  GLY182     -0.1210
     59  CA        29.7130   -7.8890    2.5220 C.3   182  GLY182      0.1956
     60  C         29.2200   -7.3400    3.8440 C.2   182  GLY182      0.2611
     61  O         29.7750   -7.6810    4.8750 O.2   182  GLY182     -0.2717
     62  N         28.2160   -6.4570    3.8050 N.am  183  HIS183     -0.1975
     63  CA        27.5020   -6.0050    4.9930 C.3   183  HIS183      0.1656
     64  C         26.7010   -7.1240    5.7220 C.2   183  HIS183      0.2291
     65  O         26.3790   -6.9880    6.8940 O.2   183  HIS183     -0.2864
     66  CB        26.6710   -4.7140    4.7090 C.3   183  HIS183      0.0771
     67  CG        25.8780   -4.7690    3.4290 C.ar  183  HIS183      0.0820
     68  ND1       24.8030   -5.6090    3.2540 N.ar  183  HIS183     -0.2267
     69  CD2       26.0560   -4.1430    2.2390 C.ar  183  HIS183      0.1154
     70  CE1       24.3300   -5.4830    2.0210 C.ar  183  HIS183      0.1986
     71  NE2       25.0790   -4.6010    1.3800 N.ar  183  HIS183     -0.2212
     72  N         22.7070    2.1080    5.1960 N.3   211  ASN211     -0.1225
     73  CA        23.8340    2.3500    4.3430 C.3   211  ASN211      0.1785
     74  C         24.5280    3.6590    4.6600 C.2   211  ASN211      0.2598
     75  O         23.8720    4.6780    4.8770 O.2   211  ASN211     -0.2718
     76  CB        23.3710    2.3390    2.8710 C.3   211  ASN211      0.1169
     77  CG        23.0920    0.9350    2.3400 C.2   211  ASN211      0.2627
     78  OD1       23.4360   -0.0750    2.9690 O.2   211  ASN211     -0.2716
     79  ND2       22.4930    0.8710    1.1520 N.am  211  ASN211     -0.0877
     80  N         25.8590    3.6530    4.7070 N.am  212  GLY212     -0.1942
     81  CA        26.5870    4.9350    4.8530 C.3   212  GLY212      0.2014
     82  C         26.3210    6.0040    3.7940 C.2   212  GLY212      0.2638
     83  O         26.4870    7.1960    4.0530 O.2   212  GLY212     -0.2714
     84  N         25.9430    5.5710    2.5950 N.am  213  ASP213     -0.1971
     85  CA        25.6120    6.4620    1.4550 C.3   213  ASP213      0.1709
     86  C         24.1690    7.0220    1.4700 C.2   213  ASP213      0.2293
     87  O         23.8520    7.9570    0.7330 O.2   213  ASP213     -0.2864
     88  CB        25.8690    5.7540    0.1200 C.3   213  ASP213      0.1436
     89  CG        24.9900    4.5090   -0.0690 C.2   213  ASP213      0.3671
     90  OD1       23.9180    4.6180   -0.6920 O.co2 213  ASP213     -0.2456
     91  OD2       25.3530    3.4360    0.4320 O.co2 213  ASP213     -0.2456
     92  N         20.7090   -0.8260   -9.2200 N.3   247  LYS247     -0.1231
     93  CA        21.7080   -1.5880   -8.4720 C.3   247  LYS247      0.1693
     94  C         21.3260   -1.6840   -6.9830 C.2   247  LYS247      0.2593
     95  O         21.0910   -0.6810   -6.3140 O.2   247  LYS247     -0.2718
     96  CB        23.1140   -0.9390   -8.6430 C.3   247  LYS247      0.0285
     97  CG        23.6520   -1.0180  -10.1090 C.3   247  LYS247      0.0035
     98  CD        25.0180   -0.2960  -10.2480 C.3   247  LYS247      0.0206
     99  CE        26.1980   -1.0830   -9.6380 C.3   247  LYS247      0.1093
    100  NZ        27.4510   -0.2120   -9.5130 N.3   247  LYS247     -0.1314
    101  N         21.2550   -2.9160   -6.4960 N.am  248  GLY248     -0.1942
    102  CA        20.9070   -3.2190   -5.1200 C.3   248  GLY248      0.2014
    103  C         20.0840   -4.4900   -5.1560 C.2   248  GLY248      0.2639
    104  O         20.3570   -5.3820   -5.9510 O.2   248  GLY248     -0.2714
    105  N         19.0750   -4.5860   -4.2940 N.am  249  GLY249     -0.1954
    106  CA        18.2170   -5.7630   -4.2610 C.3   249  GLY249      0.1869
    107  C         16.7200   -5.5080   -4.2190 C.2   249  GLY249      0.2309
    108  O         16.2720   -4.5510   -3.6120 O.2   249  GLY249     -0.2863
    109  N         15.6190  -12.1060   -0.9950 N.3   262  LEU262     -0.1245
    110  CA        16.2270  -10.8780   -1.4740 C.3   262  LEU262      0.1561
    111  C         17.0930  -11.2750   -2.6600 C.2   262  LEU262      0.2260
    112  O         17.9380  -12.1800   -2.5560 O.2   262  LEU262     -0.2867
    113  CB        17.0310  -10.2180   -0.3510 C.3   262  LEU262      0.0270
    114  CG        17.8680   -8.9620   -0.6190 C.3   262  LEU262      0.0019
    115  CD1       16.9870   -7.7750   -0.9480 C.3   262  LEU262      0.0001
    116  CD2       18.7300   -8.6610    0.6540 C.3   262  LEU262      0.0001
    117  N         19.8640   -9.7650   -4.8860 N.3   264  GLU264     -0.1231
    118  CA        20.8410   -8.6860   -5.1320 C.3   264  GLU264      0.1699
    119  C         21.2920   -8.6640   -6.5880 C.2   264  GLU264      0.2592
    120  O         21.1170   -9.6430   -7.3070 O.2   264  GLU264     -0.2718
    121  CB        22.0590   -8.8540   -4.2430 C.3   264  GLU264      0.0402
    122  CG        21.8080   -8.7010   -2.7360 C.3   264  GLU264      0.1161
    123  CD        21.4660   -7.2820   -2.3280 C.2   264  GLU264      0.3649
    124  OE1       22.3490   -6.4010   -2.2860 O.co2 264  GLU264     -0.2457
    125  OE2       20.3060   -7.0570   -2.0220 O.co2 264  GLU264     -0.2457
    126  N         21.8910   -7.5540   -7.0100 N.am  265  SER265     -0.1952
    127  CA        22.5240   -7.4660   -8.3350 C.3   265  SER265      0.1924
    128  C         23.4720   -8.6390   -8.6360 C.2   265  SER265      0.2314
    129  O         23.4240   -9.2270   -9.7260 O.2   265  SER265     -0.2863
    130  CB        23.2970   -6.1520   -8.4450 C.3   265  SER265      0.2116
    131  OG        22.4250   -5.0640   -8.6330 O.3   265  SER265     -0.2180
    132  N         11.7790   -2.3810   -3.5360 N.3   285  PHE285     -0.1227
    133  CA        13.2430   -2.2760   -3.5450 C.3   285  PHE285      0.1736
    134  C         13.7450   -2.0470   -2.1250 C.2   285  PHE285      0.2595
    135  O         13.3270   -1.1130   -1.4650 O.2   285  PHE285     -0.2718
    136  CB        13.6730   -1.1060   -4.4650 C.3   285  PHE285      0.0547
    137  CG        15.0630   -1.2430   -5.0440 C.ar  285  PHE285     -0.0202
    138  CD1       15.3200   -2.1210   -6.1010 C.ar  285  PHE285     -0.0042
    139  CD2       16.1040   -0.4650   -4.5660 C.ar  285  PHE285     -0.0042
    140  CE1       16.5930   -2.2230   -6.6340 C.ar  285  PHE285     -0.0003
    141  CE2       17.3800   -0.5690   -5.1000 C.ar  285  PHE285     -0.0003
    142  CZ        17.6300   -1.4330   -6.1320 C.ar  285  PHE285     -0.0000
    143  N         14.6540   -2.9150   -1.6790 N.am  286  ASN286     -0.1960
    144  CA        15.2890   -2.7870   -0.3760 C.3   286  ASN286      0.1819
    145  C         16.1020   -1.4760   -0.2210 C.2   286  ASN286      0.2622
    146  O         16.9860   -1.1800   -1.0370 O.2   286  ASN286     -0.2715
    147  CB        16.1810   -4.0130   -0.1240 C.3   286  ASN286      0.1195
    148  CG        16.9110   -3.9410    1.1880 C.2   286  ASN286      0.2630
    149  OD1       16.4070   -3.3360    2.1860 O.2   286  ASN286     -0.2716
    150  ND2       18.1120   -4.5640    1.2320 N.am  286  ASN286     -0.0877
    151  N         15.7670   -0.7040    0.8150 N.am  287  THR287     -0.1937
    152  CA        16.4720    0.5280    1.1550 C.3   287  THR287      0.2028
    153  C         17.7450    0.2000    1.9460 C.2   287  THR287      0.2642
    154  O         18.6330    1.0330    2.0480 O.2   287  THR287     -0.2714
    155  CB        15.6270    1.4760    2.0220 C.3   287  THR287      0.1808
    156  OG1       15.4360    0.9010    3.3200 O.3   287  THR287     -0.2208
    157  CG2       14.2460    1.8290    1.3890 C.3   287  THR287      0.0379
    158  N         17.7940   -1.0090    2.5160 N.am  288  ASN288     -0.1971
    159  CA        18.8400   -1.4590    3.4780 C.3   288  ASN288      0.1688
    160  C         18.7500   -0.7110    4.8430 C.2   288  ASN288      0.2292
    161  O         19.6400   -0.8160    5.6780 O.2   288  ASN288     -0.2864
    162  CB        20.2700   -1.4770    2.8560 C.3   288  ASN288      0.1181
    163  CG        21.0360   -2.8240    3.1330 C.2   288  ASN288      0.2629
    164  OD1       20.4070   -3.8650    3.3670 O.2   288  ASN288     -0.2716
    165  ND2       22.3780   -2.7840    3.1270 N.am  288  ASN288     -0.0877
    166  N         24.7790  -10.3980    2.1080 N.3   335  ALA335     -0.1245
    167  CA        24.0110   -9.1400    2.2840 C.3   335  ALA335      0.1562
    168  C         23.1590   -9.2190    3.5720 C.2   335  ALA335      0.2260
    169  O         22.4830  -10.2350    3.8370 O.2   335  ALA335     -0.2867
    170  CB        23.1380   -8.8950    1.0940 C.3   335  ALA335      0.0290
    171  N         20.4660   -8.0190    4.2700 N.3   337  GLY337     -0.1225
    172  CA        19.0260   -8.0740    4.0150 C.3   337  GLY337      0.1811
    173  C         18.5570   -9.5140    3.8800 C.2   337  GLY337      0.2280
    174  O         17.3900   -9.7980    4.0660 O.2   337  GLY337     -0.2866
    175  N         15.1960    7.2890    1.6250 N.3   356  PHE356     -0.1241
    176  CA        16.0980    6.5340    0.7620 C.3   356  PHE356      0.1605
    177  C         16.6320    7.4690   -0.3560 C.2   356  PHE356      0.2264
    178  O         15.9070    7.7900   -1.2760 O.2   356  PHE356     -0.2867
    179  CB        15.3390    5.3080    0.1870 C.3   356  PHE356      0.0534
    180  CG        16.1710    4.4040   -0.7070 C.ar  356  PHE356     -0.0203
    181  CD1       17.3320    3.7920   -0.2310 C.ar  356  PHE356     -0.0042
    182  CD2       15.7530    4.1160   -2.0050 C.ar  356  PHE356     -0.0042
    183  CE1       18.0820    2.9540   -1.0470 C.ar  356  PHE356     -0.0003
    184  CE2       16.4940    3.2640   -2.8300 C.ar  356  PHE356     -0.0003
    185  CZ        17.6580    2.6760   -2.3520 C.ar  356  PHE356     -0.0000
    186  N         19.9260    6.8600   -2.1660 N.3   358  PRO358     -0.2116
    187  CA        21.1080    6.0040   -2.3010 C.3   358  PRO358      0.1372
    188  C         22.1570    6.6240   -3.2230 C.2   358  PRO358      0.2244
    189  O         21.8100    7.3370   -4.1900 O.2   358  PRO358     -0.2868
    190  CB        20.5440    4.7520   -2.9960 C.3   358  PRO358      0.0268
    191  CG        19.4480    5.3080   -3.8810 C.3   358  PRO358      0.0207
    192  CD        18.7910    6.3510   -2.9710 C.3   358  PRO358      0.0892
    193  N         25.0670    4.6120   -5.1100 N.3   360  LYS360     -0.1245
    194  CA        25.8020    3.4150   -5.5120 C.3   360  LYS360      0.1561
    195  C         26.7610    3.7580   -6.6480 C.2   360  LYS360      0.2260
    196  O         27.8240    3.1260   -6.8020 O.2   360  LYS360     -0.2867
    197  CB        24.8410    2.3330   -6.0460 C.3   360  LYS360      0.0271
    198  CG        23.6080    2.0750   -5.2360 C.3   360  LYS360      0.0035
    199  CD        23.9490    1.3150   -3.9840 C.3   360  LYS360      0.0206
    200  CE        23.9710    2.2210   -2.7760 C.3   360  LYS360      0.1093
    201  NZ        23.9460    1.3770   -1.5540 N.3   360  LYS360     -0.1314
@<TRIPOS>BOND
     1    98    97    1
     2    98    99    1
     3    97    96    1
     4   129   128    2
     5    99   100    1
     6    92    93    1
     7    96    93    1
     8   128   127    1
     9   131   130    1
    10    93    94    1
    11   130   127    1
    12   127   126    1
    13   120   119    2
    14   126   119   am
    15    94   101   am
    16    94    95    2
    17   196   195    2
    18   195   194    1
    19   140   142   ar
    20   140   138   ar
    21   119   118    1
    22   101   102    1
    23   142   141   ar
    24   138   137   ar
    25   197   194    1
    26   197   198    1
    27   104   103    2
    28   194   193    1
    29   198   199    1
    30   103   102    1
    31   103   105   am
    32   118   117    1
    33   118   121    1
    34   141   139   ar
    35   137   139   ar
    36   137   136    1
    37   136   133    1
    38   105   106    1
    39   106   107    1
    40   121   122    1
    41   107   108    2
    42   189   188    2
    43   199   200    1
    44   191   190    1
    45   191   192    1
    46   133   132    1
    47   133   134    1
    48   188   187    1
    49    33    32    1
    50    32    31    1
    51   190   187    1
    52   192   186    1
    53   184   185   ar
    54   184   182   ar
    55   200   201    1
    56   122   123    1
    57   111   112    2
    58   111   110    1
    59   185   183   ar
    60   123   124   ar
    61   123   125   ar
    62   187   186    1
    63   134   143   am
    64   134   135    2
    65    31    30    1
    66   182   180   ar
    67    30    29    1
    68   143   144    1
    69   110   109    1
    70   110   113    1
    71   178   177    2
    72   183   181   ar
    73   146   145    2
    74   115   114    1
    75    29    26    1
    76   180   181   ar
    77   180   179    1
    78    90    89   ar
    79   114   113    1
    80   114   116    1
    81   144   145    1
    82   144   147    1
    83   177   176    1
    84   145   151   am
    85   147   148    1
    86    26    25    1
    87    26    27    1
    88    89    88    1
    89    89    91   ar
    90    88    85    1
    91   179   176    1
    92    28    27    2
    93    87    86    2
    94   176   175    1
    95   151   152    1
    96    23    22    1
    97    23    24    2
    98   170   167    1
    99    79    77   am
   100   152   153    1
   101   152   155    1
   102   148   150   am
   103   148   149    2
   104    71    70   ar
   105    71    69   ar
   106   157   155    1
   107    85    86    1
   108    85    84    1
   109    22    21    1
   110    54    53    2
   111    57    51    1
   112    57    56    1
   113   153   154    2
   114   153   158   am
   115    70    68   ar
   116   155   156    1
   117   166   167    1
   118    69    67   ar
   119   167   168    1
   120    51    52    1
   121    77    76    1
   122    77    78    2
   123    56    55    1
   124   158   159    1
   125    59    58    1
   126    59    60    1
   127    84    82   am
   128    53    52    1
   129   162   163    1
   130   162   159    1
   131    76    73    1
   132    21    19   am
   133   165   163   am
   134   163   164    2
   135    68    67   ar
   136    52    55    1
   137    67    66    1
   138   159   160    1
   139    20    19    2
   140   168   169    2
   141    82    83    2
   142    82    81    1
   143    62    60   am
   144    62    63    1
   145    19    18    1
   146    60    61    2
   147   173   172    1
   148   173   174    2
   149   172   171    1
   150    73    74    1
   151    73    72    1
   152    74    80   am
   153    74    75    2
   154    80    81    1
   155    66    63    1
   156   160   161    2
   157    63    64    1
   158    18    17    1
   159    17    11   am
   160    64    65    2
   161     7     6    1
   162    11    12    2
   163    11    10    1
   164    15    14    2
   165     4     3    2
   166    49    48    2
   167    10     9    1
   168    10    13    1
   169     5     6    1
   170     5     2    1
   171    50    48   am
   172    48    47    1
   173     3     9   am
   174     3     2    1
   175     6     8    1
   176    14    13    1
   177    14    16   am
   178     2     1    1
   179    47    46    1
   180    41    40    1
   181    37    36    2
   182    46    43    1
   183    36    35    1
   184    40    39    1
   185    44    45    2
   186    44    43    1
   187    39    38    1
   188    38    35    1
   189    43    42    1
   190    35    34    1
