@<TRIPOS>MOLECULE
tmp/3gueB00.pdb
 131 126 0 0 0
SMALL
GASTEIGER

@<TRIPOS>ATOM
      1  N         -3.3080  -12.2450   36.6660 N.3    97  LEU97      -0.1245
      2  CA        -3.0770  -11.8690   35.2830 C.3    97  LEU97       0.1561
      3  C         -3.1660  -13.0860   34.3440 C.2    97  LEU97       0.2260
      4  O         -3.8410  -13.0200   33.3230 O.2    97  LEU97      -0.2867
      5  CB        -1.7070  -11.1950   35.1840 C.3    97  LEU97       0.0270
      6  CG        -1.4680   -9.8840   34.4410 C.3    97  LEU97       0.0019
      7  CD1       -2.3830   -8.7650   34.9350 C.3    97  LEU97       0.0001
      8  CD2        0.0060   -9.5070   34.6030 C.3    97  LEU97       0.0001
      9  N         -6.1760  -13.4220   31.5200 N.3   101  ARG101     -0.1245
     10  CA        -5.7400  -13.6710   30.1460 C.3   101  ARG101      0.1563
     11  C         -6.4440  -14.8770   29.5280 C.2   101  ARG101      0.2260
     12  O         -6.8650  -14.8200   28.3750 O.2   101  ARG101     -0.2867
     13  CB        -4.2110  -13.8450   30.0990 C.3   101  ARG101      0.0307
     14  CG        -3.6320  -13.5940   28.7680 C.3   101  ARG101      0.0489
     15  CD        -2.1740  -13.8650   28.7630 C.3   101  ARG101      0.2205
     16  NE        -1.4320  -12.9220   29.5750 N.pl3 101  ARG101     -0.0865
     17  CZ        -0.5360  -13.2870   30.4800 C.cat 101  ARG101      0.5346
     18  NH1       -0.2990  -14.5800   30.6880 N.pl3 101  ARG101      0.1354
     19  NH2        0.1680  -12.3600   31.1260 N.pl3 101  ARG101      0.1354
     20  N         -5.3060   -8.0250   28.2750 N.3   106  VAL106     -0.1231
     21  CA        -5.2410   -6.7320   28.9850 C.3   106  VAL106      0.1678
     22  C         -3.8130   -6.2810   29.3820 C.2   106  VAL106      0.2434
     23  O         -3.1230   -6.9730   30.1500 O.2   106  VAL106     -0.2733
     24  CB        -6.2110   -6.6950   30.2160 C.3   106  VAL106      0.0265
     25  CG1       -6.0600   -5.4020   30.9940 C.3   106  VAL106      0.0020
     26  CG2       -7.6240   -6.8200   29.7510 C.3   106  VAL106      0.0020
     27  N         -3.3670   -5.1340   28.8300 N.am  107  PRO107     -0.2718
     28  CA        -2.1510   -4.4380   29.2270 C.3   107  PRO107      0.1535
     29  C         -2.0110   -4.3290   30.7510 C.2   107  PRO107      0.2599
     30  O         -2.9760   -4.0610   31.4770 O.2   107  PRO107     -0.2715
     31  CB        -2.2940   -3.0470   28.6070 C.3   107  PRO107      0.0310
     32  CG        -3.4030   -3.1280   27.6390 C.3   107  PRO107      0.0237
     33  CD        -4.0510   -4.4640   27.7040 C.3   107  PRO107      0.0939
     34  N         -0.7960   -4.5640   31.2040 N.am  108  PHE108     -0.1960
     35  CA        -0.4640   -4.5370   32.6000 C.3   108  PHE108      0.1771
     36  C          0.8040   -3.6850   32.8020 C.2   108  PHE108      0.2619
     37  O          1.7900   -3.8270   32.0590 O.2   108  PHE108     -0.2715
     38  CB        -0.2590   -5.9690   33.0900 C.3   108  PHE108      0.0574
     39  CG         0.3040   -6.0510   34.4800 C.ar  108  PHE108     -0.0200
     40  CD1       -0.4980   -5.7660   35.5820 C.ar  108  PHE108     -0.0042
     41  CD2        1.6510   -6.3750   34.6810 C.ar  108  PHE108     -0.0042
     42  CE1        0.0350   -5.8120   36.8780 C.ar  108  PHE108     -0.0003
     43  CE2        2.1960   -6.4240   35.9640 C.ar  108  PHE108     -0.0003
     44  CZ         1.3840   -6.1520   37.0610 C.ar  108  PHE108     -0.0000
     45  N          0.7630   -2.8140   33.8120 N.am  109  MET109     -0.1977
     46  CA         1.8710   -1.9110   34.1620 C.3   109  MET109      0.1605
     47  C          2.1250   -1.9720   35.6830 C.2   109  MET109      0.2287
     48  O          1.2260   -2.2870   36.4430 O.2   109  MET109     -0.2864
     49  CB         1.5720   -0.4600   33.7080 C.3   109  MET109      0.0413
     50  CG         1.6780   -0.2430   32.1690 C.3   109  MET109      0.0598
     51  SD         0.8740    1.2490   31.5790 S.3   109  MET109     -0.1393
     52  CE         2.1720    2.4690   31.8660 C.3   109  MET109      0.0692
     53  N          7.2880  -14.1280   30.3010 N.3   129  THR129     -0.1203
     54  CA         6.3930  -13.3320   29.4200 C.3   129  THR129      0.1994
     55  C          6.2860  -11.8840   29.9080 C.2   129  THR129      0.2617
     56  O          6.0940  -10.9680   29.1280 O.2   129  THR129     -0.2717
     57  CB         4.9730  -13.9450   29.3150 C.3   129  THR129      0.1784
     58  OG1        4.4770  -14.1850   30.6400 O.3   129  THR129     -0.2211
     59  CG2        4.9870  -15.2730   28.5250 C.3   129  THR129      0.0376
     60  N          6.4260  -11.7030   31.2160 N.am  130  LEU130     -0.1979
     61  CA         6.4370  -10.3790   31.8140 C.3   130  LEU130      0.1596
     62  C          7.8340   -9.7580   31.7470 C.2   130  LEU130      0.2287
     63  O          7.9890   -8.5840   31.3590 O.2   130  LEU130     -0.2864
     64  CB         5.9410  -10.4630   33.2580 C.3   130  LEU130      0.0297
     65  CG         4.6380  -11.2210   33.5020 C.3   130  LEU130      0.0022
     66  CD1        4.3050  -11.2280   34.9940 C.3   130  LEU130      0.0001
     67  CD2        3.4960  -10.5880   32.6970 C.3   130  LEU130      0.0001
     68  N          8.9020   -8.0310   28.4890 N.3   133  VAL133     -0.1245
     69  CA         8.3590   -6.7070   28.1880 C.3   133  VAL133      0.1561
     70  C          8.3440   -5.7690   29.4000 C.2   133  VAL133      0.2260
     71  O          7.5740   -4.8070   29.4650 O.2   133  VAL133     -0.2867
     72  CB         6.9640   -6.7900   27.5510 C.3   133  VAL133      0.0252
     73  CG1        7.0690   -7.3830   26.1110 C.3   133  VAL133      0.0019
     74  CG2        5.9930   -7.5790   28.4350 C.3   133  VAL133      0.0019
     75  N          7.3090   -2.0420   28.3810 N.3   137  ASP137     -0.1225
     76  CA         5.8360   -1.9740   28.4630 C.3   137  ASP137      0.1805
     77  C          5.2720   -1.8830   29.8780 C.2   137  ASP137      0.2597
     78  O          4.4440   -1.0180   30.1520 O.2   137  ASP137     -0.2718
     79  CB         5.2350   -3.1840   27.7360 C.3   137  ASP137      0.1424
     80  CG         5.5380   -3.1700   26.2350 C.2   137  ASP137      0.3668
     81  OD1        5.1310   -2.2240   25.5560 O.co2 137  ASP137     -0.2456
     82  OD2        6.2180   -4.0710   25.7380 O.co2 137  ASP137     -0.2456
     83  N          5.6900   -2.8110   30.7390 N.am  138  ILE138     -0.1980
     84  CA         5.1750   -2.9560   32.1200 C.3   138  ILE138      0.1595
     85  C          5.5980   -1.7790   33.0230 C.2   138  ILE138      0.2287
     86  O          4.7350   -1.0400   33.5400 O.2   138  ILE138     -0.2864
     87  CB         5.5930   -4.3210   32.7260 C.3   138  ILE138      0.0276
     88  CG1        4.9580   -5.4690   31.9120 C.3   138  ILE138      0.0022
     89  CG2        5.2180   -4.4220   34.2240 C.3   138  ILE138      0.0022
     90  CD1        5.3570   -6.8610   32.3480 C.3   138  ILE138      0.0001
     91  N          0.8530    7.2450   24.1100 N.3   186  TYR186     -0.1227
     92  CA         1.1510    5.9490   23.5080 C.3   186  TYR186      0.1736
     93  C         -0.0250    4.9970   23.6710 C.2   186  TYR186      0.2595
     94  O         -0.4430    4.3970   22.6880 O.2   186  TYR186     -0.2718
     95  CB         2.4530    5.3210   24.0450 C.3   186  TYR186      0.0548
     96  CG         2.7050    3.9420   23.4480 C.ar  186  TYR186     -0.0200
     97  CD1        2.9480    3.7880   22.0730 C.ar  186  TYR186     -0.0009
     98  CD2        2.6750    2.7920   24.2520 C.ar  186  TYR186     -0.0009
     99  CE1        3.1530    2.5210   21.5200 C.ar  186  TYR186      0.0417
    100  CE2        2.8950    1.5260   23.7130 C.ar  186  TYR186      0.0417
    101  CZ         3.1300    1.3970   22.3360 C.ar  186  TYR186      0.1957
    102  OH         3.3340    0.1420   21.7850 O.3   186  TYR186     -0.2866
    103  N         -0.5420    4.8720   24.9060 N.am  187  LEU187     -0.1980
    104  CA        -1.7440    4.0640   25.2340 C.3   187  LEU187      0.1596
    105  C         -2.9860    4.5040   24.4780 C.2   187  LEU187      0.2287
    106  O         -3.7460    3.6560   23.9500 O.2   187  LEU187     -0.2864
    107  CB        -2.0520    4.0940   26.7490 C.3   187  LEU187      0.0297
    108  CG        -1.0220    3.4960   27.6920 C.3   187  LEU187      0.0022
    109  CD1       -1.4070    3.7200   29.1930 C.3   187  LEU187      0.0001
    110  CD2       -0.8150    2.0280   27.3790 C.3   187  LEU187      0.0001
    111  N         -2.9240    3.5870   20.9220 N.3   190  LYS190     -0.1245
    112  CA        -3.1900    2.1670   20.7870 C.3   190  LYS190      0.1561
    113  C         -4.6540    1.7660   21.0810 C.2   190  LYS190      0.2260
    114  O         -4.9590    0.5760   21.0720 O.2   190  LYS190     -0.2867
    115  CB        -2.2350    1.3710   21.6980 C.3   190  LYS190      0.0271
    116  CG        -0.7640    1.4340   21.2930 C.3   190  LYS190      0.0035
    117  CD        -0.4470    0.4120   20.2310 C.3   190  LYS190      0.0206
    118  CE        -0.2690    1.0490   18.8800 C.3   190  LYS190      0.1093
    119  NZ         1.0370    1.7720   18.8630 N.3   190  LYS190     -0.1314
    120  N         -6.6320    2.3810   23.8480 N.3   192  TYR192     -0.1241
    121  CA        -7.0040    2.2820   25.2600 C.3   192  TYR192      0.1605
    122  C         -7.5230    3.6090   25.7770 C.2   192  TYR192      0.2264
    123  O         -7.0350    4.6730   25.3870 O.2   192  TYR192     -0.2867
    124  CB        -5.8270    1.8050   26.1010 C.3   192  TYR192      0.0534
    125  CG        -5.2750    0.4970   25.5950 C.ar  192  TYR192     -0.0201
    126  CD1       -5.9400   -0.6970   25.8440 C.ar  192  TYR192     -0.0009
    127  CD2       -4.1210    0.4670   24.8220 C.ar  192  TYR192     -0.0009
    128  CE1       -5.4590   -1.8900   25.3500 C.ar  192  TYR192      0.0417
    129  CE2       -3.6330   -0.7220   24.3200 C.ar  192  TYR192      0.0417
    130  CZ        -4.2990   -1.8990   24.5940 C.ar  192  TYR192      0.1957
    131  OH        -3.7880   -3.0930   24.1190 O.3   192  TYR192     -0.2866
@<TRIPOS>BOND
     1   119   118    1
     2   118   117    1
     3   117   116    1
     4   112   111    1
     5   112   113    1
     6   112   115    1
     7   114   113    2
     8   116   115    1
     9    99    97   ar
    10    99   101   ar
    11   102   101    1
    12    97    96   ar
    13   101   100   ar
    14    94    93    2
    15    96    95    1
    16    96    98   ar
    17    92    93    1
    18    92    95    1
    19    92    91    1
    20    93   103   am
    21   100    98   ar
    22   120   121    1
    23   106   105    2
    24   131   130    1
    25   129   130   ar
    26   129   127   ar
    27   105   104    1
    28   130   128   ar
    29   127   125   ar
    30   103   104    1
    31   104   107    1
    32   121   122    1
    33   121   124    1
    34   128   126   ar
    35   123   122    2
    36    81    80   ar
    37   125   126   ar
    38   125   124    1
    39    82    80   ar
    40    73    72    1
    41    80    79    1
    42   107   108    1
    43   110   108    1
    44    72    69    1
    45    72    74    1
    46    32    33    1
    47    32    31    1
    48   108   109    1
    49    33    27    1
    50    79    76    1
    51    69    68    1
    52    69    70    1
    53    20    21    1
    54    12    11    2
    55    75    76    1
    56    76    77    1
    57    59    57    1
    58    31    28    1
    59    15    14    1
    60    15    16    1
    61    14    13    1
    62    27    28    1
    63    27    22   am
    64    21    22    1
    65    21    24    1
    66    56    55    2
    67    28    29    1
    68    57    54    1
    69    57    58    1
    70    22    23    2
    71    70    71    2
    72    54    55    1
    73    54    53    1
    74    11    10    1
    75    16    17    2
    76    26    24    1
    77    77    78    2
    78    77    83   am
    79    55    60   am
    80    13    10    1
    81    10     9    1
    82    24    25    1
    83    17    18    1
    84    17    19    1
    85    83    84    1
    86    29    34   am
    87    29    30    2
    88    34    35    1
    89    60    61    1
    90    63    62    2
    91    51    52    1
    92    51    50    1
    93    62    61    1
    94    61    64    1
    95    88    90    1
    96    88    87    1
    97    37    36    2
    98    84    87    1
    99    84    85    1
   100    50    49    1
   101    35    36    1
   102    35    38    1
   103    67    65    1
   104    87    89    1
   105    36    45   am
   106    85    86    2
   107    38    39    1
   108    64    65    1
   109     4     3    2
   110    65    66    1
   111    49    46    1
   112    45    46    1
   113    46    47    1
   114     3     2    1
   115     6     8    1
   116     6     7    1
   117     6     5    1
   118    39    41   ar
   119    39    40   ar
   120    41    43   ar
   121     5     2    1
   122     2     1    1
   123    40    42   ar
   124    47    48    2
   125    43    44   ar
   126    42    44   ar
