@<TRIPOS>MOLECULE
tmp/3gueA01.pdb
 107 99 0 0 0
SMALL
GASTEIGER

@<TRIPOS>ATOM
      1  N         34.4980  -16.4080   11.2240 N.3    20  CYS20      -0.1235
      2  CA        34.5040  -15.8840    9.8470 C.3    20  CYS20       0.1677
      3  C         35.2650  -16.8310    8.8930 C.2    20  CYS20       0.2270
      4  O         34.7950  -17.1150    7.7810 O.2    20  CYS20      -0.2867
      5  CB        35.0770  -14.4660    9.7890 C.3    20  CYS20       0.0956
      6  SG        35.4370  -13.9110    8.1040 S.3    20  CYS20      -0.0801
      7  N         32.9100  -19.8890    8.3160 N.3    23  ILE23      -0.1231
      8  CA        31.8290  -19.5170    7.3980 C.3    23  ILE23       0.1692
      9  C         32.3680  -19.3510    5.9520 C.2    23  ILE23       0.2592
     10  O         31.7630  -19.8500    5.0000 O.2    23  ILE23      -0.2718
     11  CB        31.1010  -18.2230    7.8790 C.3    23  ILE23       0.0266
     12  CG1       30.5650  -18.4020    9.3180 C.3    23  ILE23       0.0019
     13  CG2       29.9850  -17.7910    6.9020 C.3    23  ILE23       0.0020
     14  CD1       29.7620  -17.1790    9.8680 C.3    23  ILE23       0.0001
     15  N         33.4970  -18.6680    5.7950 N.am   24  PHE24      -0.1976
     16  CA        34.1330  -18.5200    4.4810 C.3    24  PHE24       0.1639
     17  C         34.4730  -19.8660    3.8140 C.2    24  PHE24       0.2290
     18  O         34.2650  -20.0300    2.6140 O.2    24  PHE24      -0.2864
     19  CB        35.3830  -17.6100    4.5590 C.3    24  PHE24       0.0560
     20  CG        36.1330  -17.4750    3.2320 C.ar   24  PHE24      -0.0200
     21  CD1       35.7540  -16.5200    2.2950 C.ar   24  PHE24      -0.0042
     22  CD2       37.2020  -18.3300    2.9240 C.ar   24  PHE24      -0.0042
     23  CE1       36.4250  -16.4190    1.0730 C.ar   24  PHE24      -0.0003
     24  CE2       37.8640  -18.2400    1.7130 C.ar   24  PHE24      -0.0003
     25  CZ        37.4920  -17.2880    0.7910 C.ar   24  PHE24      -0.0000
     26  N         31.4680  -21.5660    2.4010 N.3    27  GLN27      -0.1245
     27  CA        31.1540  -20.9500    1.1100 C.3    27  GLN27       0.1566
     28  C         32.1340  -21.3400   -0.0090 C.2    27  GLN27       0.2260
     29  O         31.7160  -21.5400   -1.1540 O.2    27  GLN27      -0.2867
     30  CB        31.1350  -19.4220    1.2310 C.3    27  GLN27       0.0367
     31  CG        30.2140  -18.8490    2.3060 C.3    27  GLN27       0.0905
     32  CD        30.3880  -17.3660    2.4630 C.2    27  GLN27       0.2608
     33  OE1       31.5010  -16.8470    2.3290 O.2    27  GLN27      -0.2717
     34  NE2       29.2900  -16.6630    2.7250 N.am   27  GLN27      -0.0878
     35  N         35.2590   -8.2000    9.3740 N.3   155  ASN155     -0.1240
     36  CA        36.2670   -9.1180    8.9160 C.3   155  ASN155      0.1653
     37  C         36.7410   -8.7640    7.5100 C.2   155  ASN155      0.2266
     38  O         36.2340   -7.8300    6.8780 O.2   155  ASN155     -0.2867
     39  CB        35.6760  -10.5250    8.9210 C.3   155  ASN155      0.1155
     40  CG        35.1210  -10.9190   10.2840 C.2   155  ASN155      0.2627
     41  OD1       33.9660  -11.3470   10.4020 O.2   155  ASN155     -0.2716
     42  ND2       35.9420  -10.7810   11.3150 N.am  155  ASN155     -0.0877
     43  N         38.3670  -11.1150    3.9340 N.3   157  VAL157     -0.1245
     44  CA        38.4660  -12.4230    3.3260 C.3   157  VAL157      0.1561
     45  C         39.3430  -12.3030    2.0650 C.2   157  VAL157      0.2260
     46  O         39.3610  -11.2650    1.4120 O.2   157  VAL157     -0.2867
     47  CB        37.0370  -13.0780    3.0410 C.3   157  VAL157      0.0252
     48  CG1       36.1400  -13.0430    4.2800 C.3   157  VAL157      0.0019
     49  CG2       36.3100  -12.4440    1.8920 C.3   157  VAL157      0.0019
     50  N         33.7730   -9.0450    3.5910 N.3   181  PRO181     -0.2116
     51  CA        32.8830  -10.0700    3.0110 C.3   181  PRO181      0.1372
     52  C         31.3880   -9.6870    2.8180 C.2   181  PRO181      0.2244
     53  O         30.5260  -10.5740    2.8130 O.2   181  PRO181     -0.2868
     54  CB        33.0180  -11.2180    4.0020 C.3   181  PRO181      0.0268
     55  CG        33.3550  -10.5810    5.3130 C.3   181  PRO181      0.0207
     56  CD        33.9900   -9.2480    5.0460 C.3   181  PRO181      0.0892
     57  N         26.4300   -8.2460    5.0560 N.3   184  GLY184     -0.1210
     58  CA        25.8790   -9.4220    5.7350 C.3   184  GLY184      0.1956
     59  C         26.7430   -9.8730    6.8990 C.2   184  GLY184      0.2611
     60  O         26.2460  -10.5660    7.8040 O.2   184  GLY184     -0.2717
     61  N         28.0200   -9.4390    6.8710 N.am  185  ASP185     -0.1973
     62  CA        29.0690   -9.7430    7.8520 C.3   185  ASP185      0.1709
     63  C         28.7090   -9.1790    9.2250 C.2   185  ASP185      0.2293
     64  O         29.1810   -9.6590   10.2410 O.2   185  ASP185     -0.2864
     65  CB        30.4020   -9.1420    7.3640 C.3   185  ASP185      0.1436
     66  CG        31.6440   -9.7120    8.0580 C.2   185  ASP185      0.3671
     67  OD1       31.6820  -10.9040    8.4330 O.co2 185  ASP185     -0.2456
     68  OD2       32.6430   -8.9670    8.1670 O.co2 185  ASP185     -0.2456
     69  N         27.6440  -11.7730   12.4300 N.3   188  THR188     -0.1218
     70  CA        28.8220  -12.4780   12.9990 C.3   188  THR188      0.1862
     71  C         29.8330  -11.5490   13.6790 C.2   188  THR188      0.2287
     72  O         30.3530  -11.8660   14.7480 O.2   188  THR188     -0.2866
     73  CB        29.5130  -13.3910   11.9540 C.3   188  THR188      0.1770
     74  OG1       30.5460  -14.1740   12.5800 O.3   188  THR188     -0.2211
     75  CG2       30.1020  -12.5960   10.8220 C.3   188  THR188      0.0375
     76  N         23.3210  -17.3350    5.6420 N.3   310  LEU310     -0.1245
     77  CA        23.0870  -16.3230    4.6150 C.3   310  LEU310      0.1561
     78  C         23.5570  -16.8490    3.2570 C.2   310  LEU310      0.2260
     79  O         24.5840  -17.5170    3.1790 O.2   310  LEU310     -0.2867
     80  CB        23.8120  -15.0130    4.9610 C.3   310  LEU310      0.0270
     81  CG        23.2930  -14.1500    6.1240 C.3   310  LEU310      0.0019
     82  CD1       24.2540  -13.0050    6.3780 C.3   310  LEU310      0.0001
     83  CD2       21.9230  -13.5720    5.8310 C.3   310  LEU310      0.0001
     84  N         33.5820  -13.5930   -2.4010 N.3   332  LEU332     -0.1231
     85  CA        32.4910  -14.2510   -1.7020 C.3   332  LEU332      0.1693
     86  C         31.9580  -13.2470   -0.6620 C.2   332  LEU332      0.2592
     87  O         32.7200  -12.7060    0.1270 O.2   332  LEU332     -0.2718
     88  CB        32.9770  -15.5330   -1.0350 C.3   332  LEU332      0.0284
     89  CG        33.6740  -16.6020   -1.8750 C.3   332  LEU332      0.0019
     90  CD1       33.8240  -17.8740   -1.0560 C.3   332  LEU332      0.0001
     91  CD2       32.9710  -16.8970   -3.1810 C.3   332  LEU332      0.0001
     92  N         30.6540  -12.9790   -0.7110 N.am  333  GLU333     -0.1966
     93  CA        30.0430  -11.8920    0.0540 C.3   333  GLU333      0.1733
     94  C         28.6260  -12.2790    0.4290 C.2   333  GLU333      0.2616
     95  O         27.9650  -13.0010   -0.3290 O.2   333  GLU333     -0.2715
     96  CB        29.9490  -10.6200   -0.7950 C.3   333  GLU333      0.0429
     97  CG        31.2570   -9.8960   -1.0570 C.3   333  GLU333      0.1163
     98  CD        31.3880   -9.5080   -2.5100 C.2   333  GLU333      0.3649
     99  OE1       30.6790  -10.1240   -3.3240 O.co2 333  GLU333     -0.2457
    100  OE2       32.1770   -8.5980   -2.8390 O.co2 333  GLU333     -0.2457
    101  N         28.1620  -11.7730    1.5750 N.am  334  VAL334     -0.1977
    102  CA        26.7480  -11.8420    1.9710 C.3   334  VAL334      0.1596
    103  C         26.1150  -10.4620    2.2040 C.2   334  VAL334      0.2287
    104  O         26.8230   -9.4800    2.4730 O.2   334  VAL334     -0.2864
    105  CB        26.5600  -12.6640    3.2620 C.3   334  VAL334      0.0276
    106  CG1       26.6580  -14.1340    2.9720 C.3   334  VAL334      0.0022
    107  CG2       27.5960  -12.2460    4.3230 C.3   334  VAL334      0.0022
@<TRIPOS>BOND
     1    99    98   ar
     2    91    89    1
     3   100    98   ar
     4    98    97    1
     5    84    85    1
     6    89    90    1
     7    89    88    1
     8    85    88    1
     9    85    86    1
    10    29    28    2
    11    97    96    1
    12    96    93    1
    13    92    86   am
    14    92    93    1
    15    86    87    2
    16    95    94    2
    17    28    27    1
    18    93    94    1
    19    94   101   am
    20    25    23   ar
    21    25    24   ar
    22    23    21   ar
    23    27    30    1
    24    27    26    1
    25    30    31    1
    26    46    45    2
    27   101   102    1
    28    24    22   ar
    29    49    47    1
    30   102   103    1
    31   102   105    1
    32    45    44    1
    33   103   104    2
    34    21    20   ar
    35    31    32    1
    36    33    32    2
    37    32    34   am
    38    18    17    2
    39    53    52    2
    40    52    51    1
    41    22    20   ar
    42   106   105    1
    43    51    50    1
    44    51    54    1
    45    47    44    1
    46    47    48    1
    47    79    78    2
    48    20    19    1
    49    78    77    1
    50   105   107    1
    51    44    43    1
    52    50    56    1
    53    17    16    1
    54    54    55    1
    55    16    19    1
    56    16    15    1
    57    77    80    1
    58    77    76    1
    59    80    81    1
    60    10     9    2
    61    56    55    1
    62    57    58    1
    63    58    59    1
    64    15     9   am
    65    83    81    1
    66     9     8    1
    67    81    82    1
    68    61    59   am
    69    61    62    1
    70    38    37    2
    71    59    60    2
    72    13    11    1
    73    65    62    1
    74    65    66    1
    75     8    11    1
    76     8     7    1
    77    37    36    1
    78     4     3    2
    79    62    63    1
    80    11    12    1
    81    66    68   ar
    82    66    67   ar
    83     6     5    1
    84     3     2    1
    85    36    39    1
    86    36    35    1
    87    39    40    1
    88    63    64    2
    89    12    14    1
    90     5     2    1
    91     2     1    1
    92    40    41    2
    93    40    42   am
    94    75    73    1
    95    73    74    1
    96    73    70    1
    97    69    70    1
    98    70    71    1
    99    71    72    2
