@<TRIPOS>MOLECULE
tmp/3guhA03.pdb
 90 84 0 0 0
SMALL
GASTEIGER

@<TRIPOS>ATOM
      1  N         12.6420  -55.4790  -36.9090 N.3   214  THR214     -0.1218
      2  CA        11.5540  -56.2460  -37.4690 C.3   214  THR214      0.1862
      3  C         10.9300  -55.6370  -38.7130 C.2   214  THR214      0.2287
      4  O         10.4530  -56.3780  -39.5800 O.2   214  THR214     -0.2866
      5  CB        10.4560  -56.8180  -36.4810 C.3   214  THR214      0.1770
      6  OG1        9.1790  -56.1730  -36.6670 O.3   214  THR214     -0.2211
      7  CG2       10.8690  -56.8450  -35.0710 C.3   214  THR214      0.0375
      8  N         12.6210  -54.1440  -41.0450 N.3   216  ALA216     -0.1231
      9  CA        13.4630  -54.6160  -42.1160 C.3   216  ALA216      0.1694
     10  C         12.9760  -55.9900  -42.6030 C.2   216  ALA216      0.2592
     11  O         13.2030  -56.3810  -43.7740 O.2   216  ALA216     -0.2718
     12  CB        14.9450  -54.6470  -41.7170 C.3   216  ALA216      0.0304
     13  N         12.3280  -56.7650  -41.7330 N.am  217  ARG217     -0.1966
     14  CA        11.8690  -58.0630  -42.2060 C.3   217  ARG217      0.1729
     15  C         10.4890  -57.8950  -42.8120 C.2   217  ARG217      0.2616
     16  O         10.2620  -58.2900  -43.9390 O.2   217  ARG217     -0.2715
     17  CB        11.9060  -59.1100  -41.1100 C.3   217  ARG217      0.0348
     18  CG        13.3630  -59.3900  -40.5640 C.3   217  ARG217      0.0492
     19  CD        13.3780  -60.5620  -39.5250 C.3   217  ARG217      0.2205
     20  NE        12.2570  -60.4150  -38.5760 N.pl3 217  ARG217     -0.0865
     21  CZ        12.4020  -59.8800  -37.3560 C.cat 217  ARG217      0.5346
     22  NH1       11.3630  -59.7280  -36.5310 N.pl3 217  ARG217      0.1354
     23  NH2       13.6200  -59.5050  -36.9490 N.pl3 217  ARG217      0.1354
     24  N          9.5870  -57.2440  -42.0980 N.am  218  GLU218     -0.1977
     25  CA         8.2740  -57.0310  -42.6140 C.3   218  GLU218      0.1602
     26  C          8.2540  -56.4900  -44.0820 C.2   218  GLU218      0.2287
     27  O          7.3560  -56.8370  -44.8490 O.2   218  GLU218     -0.2864
     28  CB         7.5080  -56.1100  -41.6880 C.3   218  GLU218      0.0415
     29  CG         7.1200  -56.6950  -40.3720 C.3   218  GLU218      0.1163
     30  CD         6.6170  -55.6440  -39.3980 C.2   218  GLU218      0.3649
     31  OE1        6.9340  -54.4390  -39.5860 O.co2 218  GLU218     -0.2457
     32  OE2        5.8940  -56.0180  -38.4480 O.co2 218  GLU218     -0.2457
     33  N          9.8520  -57.3170  -46.4720 N.3   220  THR220     -0.1203
     34  CA        10.0920  -58.3150  -47.4900 C.3   220  THR220      0.1994
     35  C          8.8110  -59.0810  -47.7120 C.2   220  THR220      0.2617
     36  O          8.7600  -59.9110  -48.6060 O.2   220  THR220     -0.2717
     37  CB        11.2600  -59.2650  -47.2200 C.3   220  THR220      0.1784
     38  OG1       11.1310  -59.8200  -45.9250 O.3   220  THR220     -0.2211
     39  CG2       12.5730  -58.5670  -47.3530 C.3   220  THR220      0.0376
     40  N          7.7810  -58.7800  -46.9210 N.am  221  GLU221     -0.1979
     41  CA         6.4280  -59.3330  -47.1160 C.3   221  GLU221      0.1602
     42  C          5.4480  -58.4300  -47.9440 C.2   221  GLU221      0.2287
     43  O          5.5350  -57.2180  -47.9500 O.2   221  GLU221     -0.2864
     44  CB         5.8360  -59.7370  -45.7580 C.3   221  GLU221      0.0415
     45  CG         6.7120  -60.7370  -45.0070 C.3   221  GLU221      0.1163
     46  CD         6.2900  -60.9640  -43.5330 C.2   221  GLU221      0.3649
     47  OE1        5.1810  -60.5290  -43.1450 O.co2 221  GLU221     -0.2457
     48  OE2        7.0780  -61.5840  -42.7570 O.co2 221  GLU221     -0.2457
     49  N         17.5240  -58.4600  -49.9100 N.3   236  HIS236     -0.1241
     50  CA        17.7970  -59.2420  -48.6970 C.3   236  HIS236      0.1621
     51  C         18.7590  -60.3930  -48.8940 C.2   236  HIS236      0.2264
     52  O         19.6450  -60.5910  -48.1130 O.2   236  HIS236     -0.2867
     53  CB        16.5630  -59.7530  -47.9770 C.3   236  HIS236      0.0745
     54  CG        16.8840  -60.6160  -46.7860 C.ar  236  HIS236      0.0817
     55  ND1       16.3130  -61.8580  -46.5800 N.ar  236  HIS236     -0.2268
     56  CD2       17.7240  -60.4230  -45.7350 C.ar  236  HIS236      0.1154
     57  CE1       16.7900  -62.3970  -45.4670 C.ar  236  HIS236      0.1986
     58  NE2       17.6450  -61.5430  -44.9300 N.ar  236  HIS236     -0.2212
     59  N         20.1620  -55.5240  -47.0230 N.3   241  LEU241     -0.1245
     60  CA        19.0100  -55.0260  -46.3070 C.3   241  LEU241      0.1561
     61  C         19.2120  -55.2790  -44.8270 C.2   241  LEU241      0.2260
     62  O         19.4310  -56.4090  -44.4120 O.2   241  LEU241     -0.2867
     63  CB        17.7240  -55.6940  -46.7990 C.3   241  LEU241      0.0270
     64  CG        16.4490  -55.1770  -46.1200 C.3   241  LEU241      0.0019
     65  CD1       16.2190  -53.6490  -46.2490 C.3   241  LEU241      0.0001
     66  CD2       15.2040  -55.8600  -46.5810 C.3   241  LEU241      0.0001
     67  N          1.7080  -55.9040  -31.8950 N.3   397  ARG397     -0.1245
     68  CA         3.0030  -56.5250  -32.1290 C.3   397  ARG397      0.1563
     69  C          3.3510  -56.4550  -33.6010 C.2   397  ARG397      0.2260
     70  O          3.1890  -57.4390  -34.3440 O.2   397  ARG397     -0.2867
     71  CB         3.0140  -57.9730  -31.6740 C.3   397  ARG397      0.0307
     72  CG         4.4360  -58.5900  -31.5000 C.3   397  ARG397      0.0489
     73  CD         4.4750  -60.0050  -30.8360 C.3   397  ARG397      0.2205
     74  NE         3.7550  -60.9540  -31.6930 N.pl3 397  ARG397     -0.0865
     75  CZ         4.2980  -61.8020  -32.5750 C.cat 397  ARG397      0.5346
     76  NH1        5.6120  -61.9260  -32.7150 N.pl3 397  ARG397      0.1354
     77  NH2        3.5090  -62.5630  -33.3130 N.pl3 397  ARG397      0.1354
     78  N          7.2080  -54.2460  -31.9350 N.3   402  ALA402     -0.1231
     79  CA         7.5470  -55.6280  -31.6520 C.3   402  ALA402      0.1694
     80  C          8.9560  -55.6870  -31.1340 C.2   402  ALA402      0.2592
     81  O          9.3440  -56.5720  -30.4060 O.2   402  ALA402     -0.2718
     82  CB         7.4410  -56.4660  -32.9350 C.3   402  ALA402      0.0304
     83  N          9.7440  -54.7370  -31.5460 N.am  403  ASP403     -0.1974
     84  CA        11.1440  -54.7540  -31.2090 C.3   403  ASP403      0.1709
     85  C         11.4210  -54.2170  -29.8120 C.2   403  ASP403      0.2293
     86  O         12.5080  -54.4100  -29.3100 O.2   403  ASP403     -0.2864
     87  CB        11.9400  -53.9630  -32.2840 C.3   403  ASP403      0.1436
     88  CG        12.3500  -54.8470  -33.4370 C.2   403  ASP403      0.3671
     89  OD1       12.5050  -56.0630  -33.1640 O.co2 403  ASP403     -0.2456
     90  OD2       12.5610  -54.3720  -34.5890 O.co2 403  ASP403     -0.2456
@<TRIPOS>BOND
     1    49    50    1
     2    51    50    1
     3    51    52    2
     4    50    53    1
     5    36    35    2
     6    53    54    1
     7    43    42    2
     8    42    41    1
     9    35    34    1
    10    35    40   am
    11    34    37    1
    12    34    33    1
    13    39    37    1
    14    37    38    1
    15    41    40    1
    16    41    44    1
    17    59    60    1
    18    63    60    1
    19    63    64    1
    20    54    55   ar
    21    54    56   ar
    22    66    64    1
    23    55    57   ar
    24    60    61    1
    25    65    64    1
    26    44    45    1
    27    56    58   ar
    28    57    58   ar
    29    45    46    1
    30    27    26    2
    31    61    62    2
    32    26    25    1
    33    16    15    2
    34    11    10    2
    35    46    47   ar
    36    46    48   ar
    37    15    14    1
    38    15    24   am
    39    25    24    1
    40    25    28    1
    41    10     9    1
    42    10    13   am
    43    14    13    1
    44    14    17    1
    45     9    12    1
    46     9     8    1
    47    28    29    1
    48    17    18    1
    49    18    19    1
    50    29    30    1
    51    31    30   ar
    52     4     3    2
    53    19    20    1
    54    30    32   ar
    55     3     2    1
    56    20    21    2
    57     2     1    1
    58     2     5    1
    59    21    23    1
    60    21    22    1
    61     6     5    1
    62     5     7    1
    63    90    88   ar
    64    70    69    2
    65    69    68    1
    66    88    89   ar
    67    88    87    1
    68    77    75    1
    69    82    79    1
    70    76    75    1
    71    75    74    2
    72    87    84    1
    73    68    67    1
    74    68    71    1
    75    78    79    1
    76    74    73    1
    77    71    72    1
    78    79    80    1
    79    83    84    1
    80    83    80   am
    81    72    73    1
    82    84    85    1
    83    80    81    2
    84    85    86    2
