@<TRIPOS>MOLECULE
tmp/3gukB00.pdb
 105 97 0 0 0
SMALL
GASTEIGER

@<TRIPOS>ATOM
      1  N         19.0180   12.0590  -15.3540 N.3    78  ILE78      -0.1245
      2  CA        19.9320   11.5870  -14.3180 C.3    78  ILE78       0.1561
      3  C         19.9500   10.0530  -14.2720 C.2    78  ILE78       0.2260
      4  O         21.0200    9.4170  -14.3410 O.2    78  ILE78      -0.2867
      5  CB        19.5430   12.1940  -12.9480 C.3    78  ILE78       0.0252
      6  CG1       19.9300   13.6790  -12.9220 C.3    78  ILE78       0.0019
      7  CG2       20.2660   11.4790  -11.8050 C.3    78  ILE78       0.0019
      8  CD1       19.2970   14.5120  -11.7450 C.3    78  ILE78       0.0001
      9  N         25.9200    9.7820  -13.7840 N.3    84  LEU84      -0.1245
     10  CA        25.1220   10.5530  -12.8060 C.3    84  LEU84       0.1561
     11  C         24.3350    9.7070  -11.8170 C.2    84  LEU84       0.2260
     12  O         24.2480   10.0570  -10.6300 O.2    84  LEU84      -0.2867
     13  CB        24.1670   11.5600  -13.5040 C.3    84  LEU84       0.0270
     14  CG        24.7540   12.6700  -14.4100 C.3    84  LEU84       0.0019
     15  CD1       23.7050   13.6560  -14.8300 C.3    84  LEU84       0.0001
     16  CD2       25.9010   13.4330  -13.7220 C.3    84  LEU84       0.0001
     17  N         26.0770    8.4490   -8.5370 N.3    87  VAL87      -0.1231
     18  CA        26.3370    9.5870   -7.6500 C.3    87  VAL87       0.1692
     19  C         25.0190   10.0310   -7.0240 C.2    87  VAL87       0.2592
     20  O         24.9280   10.2390   -5.7830 O.2    87  VAL87      -0.2718
     21  CB        27.0430   10.7540   -8.3710 C.3    87  VAL87       0.0266
     22  CG1       27.2830   11.9010   -7.4070 C.3    87  VAL87       0.0020
     23  CG2       28.3570   10.2840   -8.9650 C.3    87  VAL87       0.0020
     24  N         23.9970   10.1580   -7.8720 N.am   88  TYR88      -0.1976
     25  CA        22.6720   10.5170   -7.4180 C.3    88  TYR88       0.1639
     26  C         22.1730    9.5650   -6.3440 C.2    88  TYR88       0.2290
     27  O         21.6680    9.9980   -5.3230 O.2    88  TYR88      -0.2864
     28  CB        21.6780   10.5370   -8.5830 C.3    88  TYR88       0.0560
     29  CG        20.3270   11.0540   -8.1820 C.ar   88  TYR88      -0.0198
     30  CD1       20.0810   12.4220   -8.1090 C.ar   88  TYR88      -0.0009
     31  CD2       19.2820   10.1630   -7.8700 C.ar   88  TYR88      -0.0009
     32  CE1       18.7880   12.9080   -7.7400 C.ar   88  TYR88       0.0417
     33  CE2       18.0080   10.6380   -7.4880 C.ar   88  TYR88       0.0417
     34  CZ        17.7770   12.0010   -7.4240 C.ar   88  TYR88       0.1957
     35  OH        16.5250   12.4540   -7.0410 O.3    88  TYR88      -0.2866
     36  N         23.3750   10.0360   -2.8030 N.3    91  LEU91      -0.1245
     37  CA        22.9690   11.2900   -2.1380 C.3    91  LEU91       0.1561
     38  C         21.7740   11.1560   -1.1760 C.2    91  LEU91       0.2260
     39  O         20.8440   10.3880   -1.3830 O.2    91  LEU91      -0.2867
     40  CB        22.6600   12.3700   -3.1800 C.3    91  LEU91       0.0270
     41  CG        23.8120   12.9440   -4.0200 C.3    91  LEU91       0.0019
     42  CD1       23.2580   13.8760   -5.1060 C.3    91  LEU91       0.0001
     43  CD2       24.8610   13.6420   -3.1680 C.3    91  LEU91       0.0001
     44  N         20.8170   18.1760   -6.9210 N.3    98  ALA98      -0.1245
     45  CA        21.2150   17.4820   -8.1510 C.3    98  ALA98       0.1562
     46  C         20.1650   17.5870   -9.2820 C.2    98  ALA98       0.2260
     47  O         20.5000   17.8370  -10.4660 O.2    98  ALA98      -0.2867
     48  CB        21.5670   15.9950   -7.8230 C.3    98  ALA98       0.0290
     49  N         20.4180   21.2090  -10.5650 N.3   101  GLU101     -0.1231
     50  CA        21.5630   21.4750  -11.4390 C.3   101  GLU101      0.1699
     51  C         21.3230   20.9390  -12.8570 C.2   101  GLU101      0.2592
     52  O         21.5930   21.6210  -13.8360 O.2   101  GLU101     -0.2718
     53  CB        22.8800   20.9280  -10.8520 C.3   101  GLU101      0.0402
     54  CG        24.1510   21.4740  -11.5780 C.3   101  GLU101      0.1161
     55  CD        25.4880   20.9120  -11.0270 C.2   101  GLU101      0.3649
     56  OE1       25.4450   20.1510  -10.0270 O.co2 101  GLU101     -0.2457
     57  OE2       26.5880   21.2660  -11.5880 O.co2 101  GLU101     -0.2457
     58  N         20.8250   19.7150  -12.9600 N.am  102  VAL102     -0.1980
     59  CA        20.4950   19.1030  -14.2830 C.3   102  VAL102      0.1595
     60  C         19.3850   19.8630  -15.0260 C.2   102  VAL102      0.2287
     61  O         19.4750   20.0990  -16.2480 O.2   102  VAL102     -0.2864
     62  CB        20.1060   17.6070  -14.1110 C.3   102  VAL102      0.0276
     63  CG1       19.4280   17.0120  -15.4000 C.3   102  VAL102      0.0022
     64  CG2       21.3730   16.7810  -13.7500 C.3   102  VAL102      0.0022
     65  N         26.5080   18.8350  -16.7830 N.3   110  VAL110     -0.1245
     66  CA        26.7450   18.2700  -15.4650 C.3   110  VAL110      0.1561
     67  C         27.6590   17.0420  -15.4880 C.2   110  VAL110      0.2260
     68  O         28.5410   16.9250  -14.6320 O.2   110  VAL110     -0.2867
     69  CB        25.4130   17.8940  -14.7810 C.3   110  VAL110      0.0252
     70  CG1       25.6840   17.1050  -13.4870 C.3   110  VAL110      0.0019
     71  CG2       24.5700   19.1680  -14.5340 C.3   110  VAL110      0.0019
     72  N         33.9890   16.6910   -9.3170 N.3   116  VAL116     -0.1231
     73  CA        32.8860   17.0230   -8.4120 C.3   116  VAL116      0.1692
     74  C         32.0120   15.7930   -8.1430 C.2   116  VAL116      0.2591
     75  O         31.6300   15.5290   -6.9990 O.2   116  VAL116     -0.2718
     76  CB        32.0130   18.1750   -8.9720 C.3   116  VAL116      0.0266
     77  CG1       30.7430   18.3750   -8.1390 C.3   116  VAL116      0.0020
     78  CG2       32.8000   19.4620   -9.0250 C.3   116  VAL116      0.0020
     79  N         31.6920   15.0500   -9.1990 N.am  117  LEU117     -0.1980
     80  CA        30.9190   13.8260   -9.0500 C.3   117  LEU117      0.1596
     81  C         31.6240   12.8520   -8.1040 C.2   117  LEU117      0.2287
     82  O         30.9880   12.2590   -7.2340 O.2   117  LEU117     -0.2864
     83  CB        30.6530   13.1940  -10.4160 C.3   117  LEU117      0.0297
     84  CG        29.7800   14.0440  -11.3340 C.3   117  LEU117      0.0022
     85  CD1       29.7550   13.3880  -12.7200 C.3   117  LEU117      0.0001
     86  CD2       28.3650   14.2160  -10.7590 C.3   117  LEU117      0.0001
     87  N         31.3790   14.3260   -4.5460 N.3   120  LEU120     -0.1245
     88  CA        30.0160   14.1340   -4.0560 C.3   120  LEU120      0.1561
     89  C         29.8150   12.6840   -3.6570 C.2   120  LEU120      0.2260
     90  O         29.2990   12.4310   -2.5840 O.2   120  LEU120     -0.2867
     91  CB        28.9760   14.5610   -5.1040 C.3   120  LEU120      0.0270
     92  CG        28.7990   16.0780   -5.3090 C.3   120  LEU120      0.0019
     93  CD1       27.8650   16.4090   -6.4730 C.3   120  LEU120      0.0001
     94  CD2       28.3440   16.8250   -4.0240 C.3   120  LEU120      0.0001
     95  N         24.3270   21.7420   -1.6730 N.3   152  PHE152     -0.1241
     96  CA        25.2270   20.5800   -1.7730 C.3   152  PHE152      0.1605
     97  C         26.2010   20.5580   -0.6160 C.2   152  PHE152      0.2264
     98  O         26.6070   19.5000   -0.1350 O.2   152  PHE152     -0.2867
     99  CB        26.0450   20.6200   -3.0630 C.3   152  PHE152      0.0534
    100  CG        25.3780   19.9470   -4.2290 C.ar  152  PHE152     -0.0203
    101  CD1       25.0610   18.5910   -4.1770 C.ar  152  PHE152     -0.0042
    102  CD2       25.1270   20.6600   -5.4060 C.ar  152  PHE152     -0.0042
    103  CE1       24.4660   17.9570   -5.2570 C.ar  152  PHE152     -0.0003
    104  CE2       24.5280   20.0390   -6.5090 C.ar  152  PHE152     -0.0003
    105  CZ        24.2000   18.6820   -6.4300 C.ar  152  PHE152     -0.0000
@<TRIPOS>BOND
     1    65    66    1
     2    61    60    2
     3    67    66    1
     4    67    68    2
     5    66    69    1
     6    63    62    1
     7     1     2    1
     8    60    59    1
     9    15    14    1
    10    69    71    1
    11    69    70    1
    12    14    16    1
    13    14    13    1
    14     4     3    2
    15     2     3    1
    16     2     5    1
    17    59    62    1
    18    59    58    1
    19    62    64    1
    20    52    51    2
    21     9    10    1
    22    13    10    1
    23    58    51   am
    24     5     6    1
    25     5     7    1
    26     6     8    1
    27    51    50    1
    28    10    11    1
    29    85    84    1
    30    11    12    2
    31    57    55   ar
    32    54    55    1
    33    54    53    1
    34    50    53    1
    35    50    49    1
    36    84    86    1
    37    84    83    1
    38    55    56   ar
    39    47    46    2
    40    83    80    1
    41    72    73    1
    42    46    45    1
    43    79    80    1
    44    79    74   am
    45    80    81    1
    46    78    76    1
    47    76    73    1
    48    76    77    1
    49    23    21    1
    50    28    29    1
    51    28    25    1
    52    17    18    1
    53    73    74    1
    54    21    18    1
    55    21    22    1
    56    29    30   ar
    57    29    31   ar
    58    45    48    1
    59    45    44    1
    60    74    75    2
    61    30    32   ar
    62    81    82    2
    63    24    25    1
    64    24    19   am
    65    31    33   ar
    66    32    34   ar
    67    18    19    1
    68    33    34   ar
    69    34    35    1
    70    25    26    1
    71    19    20    2
    72   104   105   ar
    73   104   102   ar
    74    93    92    1
    75   105   103   ar
    76    26    27    2
    77   102   100   ar
    78    92    91    1
    79    92    94    1
    80   103   101   ar
    81    42    41    1
    82    91    88    1
    83    87    88    1
    84   100   101   ar
    85   100    99    1
    86    88    89    1
    87    41    40    1
    88    41    43    1
    89    89    90    2
    90    40    37    1
    91    99    96    1
    92    36    37    1
    93    37    38    1
    94    96    95    1
    95    96    97    1
    96    39    38    2
    97    97    98    2
