@<TRIPOS>MOLECULE
tmp/3gumA00.pdb
 124 115 0 0 0
SMALL
GASTEIGER

@<TRIPOS>ATOM
      1  N         12.8510    5.8470    2.9940 N.3    78  ILE78      -0.1245
      2  CA        13.2880    4.9110    1.9730 C.3    78  ILE78       0.1561
      3  C         14.8170    4.8660    1.9070 C.2    78  ILE78       0.2260
      4  O         15.4210    3.7920    1.9040 O.2    78  ILE78      -0.2867
      5  CB        12.6970    5.2460    0.6080 C.3    78  ILE78       0.0252
      6  CG1       11.2300    4.8080    0.5460 C.3    78  ILE78       0.0019
      7  CG2       13.4080    4.5170   -0.5460 C.3    78  ILE78       0.0019
      8  CD1       10.4410    5.4650   -0.5500 C.3    78  ILE78       0.0001
      9  N         15.0810   -1.1160    1.4710 N.3    84  LEU84      -0.1245
     10  CA        14.3410   -0.2650    0.4840 C.3    84  LEU84       0.1561
     11  C         15.2280    0.5020   -0.4650 C.2    84  LEU84       0.2260
     12  O         14.9050    0.6020   -1.6400 O.2    84  LEU84      -0.2867
     13  CB        13.3320    0.6970    1.1500 C.3    84  LEU84       0.0270
     14  CG        12.2810    0.0520    2.0610 C.3    84  LEU84       0.0019
     15  CD1       11.2640    1.0600    2.5730 C.3    84  LEU84       0.0001
     16  CD2       11.5600   -1.1290    1.3360 C.3    84  LEU84       0.0001
     17  N         16.5270   -1.0830   -3.8330 N.3    87  VAL87      -0.1231
     18  CA        15.4060   -1.3770   -4.7050 C.3    87  VAL87       0.1692
     19  C         14.9430   -0.0610   -5.3150 C.2    87  VAL87       0.2592
     20  O         14.8610    0.0810   -6.5580 O.2    87  VAL87      -0.2718
     21  CB        14.2790   -2.1490   -3.9530 C.3    87  VAL87       0.0266
     22  CG1       13.0600   -2.3730   -4.8370 C.3    87  VAL87       0.0020
     23  CG2       14.8230   -3.4920   -3.4510 C.3    87  VAL87       0.0020
     24  N         14.6610    0.9170   -4.4560 N.am   88  TYR88      -0.1976
     25  CA        14.4140    2.2880   -4.9290 C.3    88  TYR88       0.1639
     26  C         15.3420    2.7820   -6.0290 C.2    88  TYR88       0.2290
     27  O         14.8900    3.2760   -7.0440 O.2    88  TYR88      -0.2864
     28  CB        14.4540    3.2610   -3.7720 C.3    88  TYR88       0.0560
     29  CG        13.8720    4.6110   -4.1520 C.ar   88  TYR88      -0.0198
     30  CD1       12.5140    4.8000   -4.2680 C.ar   88  TYR88      -0.0009
     31  CD2       14.7150    5.6990   -4.4230 C.ar   88  TYR88      -0.0009
     32  CE1       11.9950    6.0840   -4.6330 C.ar   88  TYR88       0.0417
     33  CE2       14.2020    6.9680   -4.7860 C.ar   88  TYR88       0.0417
     34  CZ        12.8540    7.1390   -4.8910 C.ar   88  TYR88       0.1957
     35  OH        12.3810    8.4010   -5.3060 O.3    88  TYR88      -0.2866
     36  N         14.8620    1.4430   -9.6250 N.3    91  LEU91      -0.1245
     37  CA        13.6050    1.8020  -10.2870 C.3    91  LEU91       0.1561
     38  C         13.7050    3.0490  -11.1730 C.2    91  LEU91       0.2260
     39  O         14.4830    3.9480  -10.9150 O.2    91  LEU91      -0.2867
     40  CB        12.5340    2.0510   -9.2410 C.3    91  LEU91       0.0270
     41  CG        11.9440    0.9350   -8.3910 C.3    91  LEU91       0.0019
     42  CD1       11.0040    1.5230   -7.3030 C.3    91  LEU91       0.0001
     43  CD2       11.2370   -0.1160   -9.2180 C.3    91  LEU91       0.0001
     44  N          6.6900    3.9750   -5.3940 N.3    98  ALA98      -0.1245
     45  CA         7.3890    3.6070   -4.1510 C.3    98  ALA98       0.1562
     46  C          7.2780    4.6660   -3.0160 C.2    98  ALA98       0.2260
     47  O          7.1180    4.3380   -1.8210 O.2    98  ALA98      -0.2867
     48  CB         8.9020    3.2560   -4.4740 C.3    98  ALA98       0.0290
     49  N          3.6250    4.4530   -1.7260 N.3   101  GLU101     -0.1231
     50  CA         3.3670    3.3230   -0.8440 C.3   101  GLU101      0.1699
     51  C          3.9170    3.4690    0.5720 C.2   101  GLU101      0.2592
     52  O          3.2350    3.1370    1.5460 O.2   101  GLU101     -0.2718
     53  CB         3.8740    2.0110   -1.4470 C.3   101  GLU101      0.0402
     54  CG         3.3560    0.8030   -0.6990 C.3   101  GLU101      0.1161
     55  CD         3.7150   -0.5260   -1.3650 C.2   101  GLU101      0.3649
     56  OE1        4.2090   -0.4990   -2.5130 O.co2 101  GLU101     -0.2457
     57  OE2        3.5140   -1.5970   -0.7150 O.co2 101  GLU101     -0.2457
     58  N          5.1470    3.9700    0.6820 N.am  102  VAL102     -0.1980
     59  CA         5.7880    4.2280    1.9750 C.3   102  VAL102      0.1595
     60  C          5.0190    5.3210    2.7070 C.2   102  VAL102      0.2287
     61  O          4.8740    5.2930    3.8980 O.2   102  VAL102     -0.2864
     62  CB         7.2740    4.6150    1.7600 C.3   102  VAL102      0.0276
     63  CG1        7.9170    5.2870    3.0180 C.3   102  VAL102      0.0022
     64  CG2        8.0420    3.3940    1.3400 C.3   102  VAL102      0.0022
     65  N          6.1860   -1.9920    4.4380 N.3   110  VAL110     -0.1245
     66  CA         6.8100   -2.1160    3.1230 C.3   110  VAL110      0.1561
     67  C          8.0900   -2.9610    3.0990 C.2   110  VAL110      0.2260
     68  O          8.2320   -3.8320    2.2180 O.2   110  VAL110     -0.2867
     69  CB         7.1270   -0.7600    2.4950 C.3   110  VAL110      0.0252
     70  CG1        7.8730   -0.9670    1.1540 C.3   110  VAL110      0.0019
     71  CG2        5.8400    0.0840    2.3090 C.3   110  VAL110      0.0019
     72  N          7.9580   -6.8630    2.6680 N.3   113  PHE113     -0.1241
     73  CA         7.5580   -7.5100    1.4130 C.3   113  PHE113      0.1605
     74  C          8.7950   -7.9660    0.6850 C.2   113  PHE113      0.2264
     75  O          9.0530   -7.5330   -0.4360 O.2   113  PHE113     -0.2867
     76  CB         6.7850   -6.5320    0.5110 C.3   113  PHE113      0.0534
     77  CG         5.5490   -5.9930    1.1290 C.ar  113  PHE113     -0.0203
     78  CD1        5.1400   -4.7080    0.8620 C.ar  113  PHE113     -0.0042
     79  CD2        4.7920   -6.7670    1.9930 C.ar  113  PHE113     -0.0042
     80  CE1        3.9930   -4.1960    1.4500 C.ar  113  PHE113     -0.0003
     81  CE2        3.6450   -6.2600    2.5920 C.ar  113  PHE113     -0.0003
     82  CZ         3.2400   -4.9880    2.3170 C.ar  113  PHE113     -0.0000
     83  N          8.0020   -9.1040   -3.0360 N.3   116  VAL116     -0.1231
     84  CA         7.8550   -8.0250   -3.9970 C.3   116  VAL116      0.1692
     85  C          9.1530   -7.2490   -4.1570 C.2   116  VAL116      0.2591
     86  O          9.4790   -6.8110   -5.2600 O.2   116  VAL116     -0.2718
     87  CB         6.7350   -7.0520   -3.5840 C.3   116  VAL116      0.0266
     88  CG1        6.8480   -5.7520   -4.3660 C.3   116  VAL116      0.0020
     89  CG2        5.3720   -7.6920   -3.7940 C.3   116  VAL116      0.0020
     90  N          9.8990   -7.0720   -3.0690 N.am  117  LEU117     -0.1980
     91  CA        11.1480   -6.3230   -3.1900 C.3   117  LEU117      0.1596
     92  C         12.1360   -6.9540   -4.1720 C.2   117  LEU117      0.2287
     93  O         12.7750   -6.2530   -4.9590 O.2   117  LEU117     -0.2864
     94  CB        11.8100   -6.0930   -1.8190 C.3   117  LEU117      0.0297
     95  CG        11.1070   -5.1780   -0.8220 C.3   117  LEU117      0.0022
     96  CD1       11.9910   -4.9420    0.3640 C.3   117  LEU117      0.0001
     97  CD2       10.7840   -3.8690   -1.4620 C.3   117  LEU117      0.0001
     98  N         10.6840   -6.5400   -7.8540 N.3   120  LEU120     -0.1245
     99  CA        10.8590   -5.1860   -8.3700 C.3   120  LEU120      0.1561
    100  C         12.3180   -5.0320   -8.8140 C.2   120  LEU120      0.2260
    101  O         12.5690   -4.6160   -9.9280 O.2   120  LEU120     -0.2867
    102  CB        10.4650   -4.1140   -7.3270 C.3   120  LEU120      0.0270
    103  CG         8.9510   -3.9100   -7.0630 C.3   120  LEU120      0.0019
    104  CD1        8.6630   -3.0350   -5.8540 C.3   120  LEU120      0.0001
    105  CD2        8.1730   -3.3690   -8.2900 C.3   120  LEU120      0.0001
    106  N          1.6580   -7.4830   -4.6280 N.3   132  LEU132     -0.1245
    107  CA         1.1780   -6.2980   -3.8760 C.3   132  LEU132      0.1561
    108  C         -0.3510   -6.2450   -3.7280 C.2   132  LEU132      0.2260
    109  O         -0.8630   -5.7990   -2.7060 O.2   132  LEU132     -0.2867
    110  CB         1.6760   -4.9820   -4.4790 C.3   132  LEU132      0.0270
    111  CG         3.1240   -4.5590   -4.2130 C.3   132  LEU132      0.0019
    112  CD1        3.4170   -3.3260   -5.0090 C.3   132  LEU132      0.0001
    113  CD2        3.3920   -4.3370   -2.7270 C.3   132  LEU132      0.0001
    114  N          3.1390    0.6310  -10.4950 N.3   152  PHE152     -0.1241
    115  CA         4.2750   -0.3130  -10.3860 C.3   152  PHE152      0.1605
    116  C          4.2870   -1.2650  -11.5660 C.2   152  PHE152      0.2264
    117  O          5.3460   -1.6670  -12.0530 O.2   152  PHE152     -0.2867
    118  CB         4.2170   -1.1300   -9.0850 C.3   152  PHE152      0.0534
    119  CG         4.9410   -0.4950   -7.8990 C.ar  152  PHE152     -0.0203
    120  CD1        6.3280   -0.2250   -7.9410 C.ar  152  PHE152     -0.0042
    121  CD2        4.2450   -0.2540   -6.7010 C.ar  152  PHE152     -0.0042
    122  CE1        6.9940    0.2970   -6.8260 C.ar  152  PHE152     -0.0003
    123  CE2        4.8870    0.2920   -5.5740 C.ar  152  PHE152     -0.0003
    124  CZ         6.2670    0.5870   -5.6390 C.ar  152  PHE152     -0.0000
@<TRIPOS>BOND
     1   117   116    2
     2   116   115    1
     3    38    39    2
     4    38    37    1
     5   114   115    1
     6   115   118    1
     7    37    36    1
     8    37    40    1
     9   101   100    2
    10    40    41    1
    11    43    41    1
    12   118   119    1
    13   100    99    1
    14    41    42    1
    15    99    98    1
    16    99   102    1
    17   105   103    1
    18   120   119   ar
    19   120   122   ar
    20   119   121   ar
    21   102   103    1
    22   103   104    1
    23    27    26    2
    24   122   124   ar
    25   121   123   ar
    26    20    19    2
    27    26    25    1
    28   124   123   ar
    29    44    45    1
    30    19    18    1
    31    19    24   am
    32    35    34    1
    33    86    85    2
    34   112   111    1
    35    93    92    2
    36    25    24    1
    37    25    28    1
    38    34    33   ar
    39    34    32   ar
    40    22    21    1
    41    33    31   ar
    42    18    21    1
    43    18    17    1
    44    32    30   ar
    45   106   107    1
    46   110   111    1
    47   110   107    1
    48    48    45    1
    49    31    29   ar
    50    88    87    1
    51    30    29   ar
    52   111   113    1
    53    92    91    1
    54    85    84    1
    55    85    90   am
    56    29    28    1
    57    45    46    1
    58    84    87    1
    59    84    83    1
    60    21    23    1
    61   107   108    1
    62    89    87    1
    63   108   109    2
    64    91    90    1
    65    91    94    1
    66    46    47    2
    67    56    55   ar
    68    94    95    1
    69    49    50    1
    70    12    11    2
    71    97    95    1
    72    53    50    1
    73    53    54    1
    74    55    57   ar
    75    55    54    1
    76    50    51    1
    77    95    96    1
    78     8     6    1
    79     7     5    1
    80    11    10    1
    81    75    74    2
    82    10    13    1
    83    10     9    1
    84    76    77    1
    85    76    73    1
    86     6     5    1
    87    51    58   am
    88    51    52    2
    89     5     2    1
    90    58    59    1
    91    74    73    1
    92    78    77   ar
    93    78    80   ar
    94    77    79   ar
    95    13    14    1
    96    70    69    1
    97    16    14    1
    98    64    62    1
    99    73    72    1
   100    80    82   ar
   101    62    59    1
   102    62    63    1
   103     4     3    2
   104     3     2    1
   105     2     1    1
   106    59    60    1
   107    79    81   ar
   108    14    15    1
   109    68    67    2
   110    71    69    1
   111    82    81   ar
   112    69    66    1
   113    60    61    2
   114    67    66    1
   115    66    65    1
