@<TRIPOS>MOLECULE
tmp/3gunB01.pdb
 105 97 0 0 0
SMALL
GASTEIGER

@<TRIPOS>ATOM
      1  N         18.5770   12.0570  -15.2620 N.3    78  ILE78      -0.1245
      2  CA        19.5200   11.5850  -14.2810 C.3    78  ILE78       0.1561
      3  C         19.5450   10.0490  -14.2580 C.2    78  ILE78       0.2260
      4  O         20.6030    9.4410  -14.3190 O.2    78  ILE78      -0.2867
      5  CB        19.1480   12.1270  -12.9220 C.3    78  ILE78       0.0252
      6  CG1       19.4500   13.6230  -12.8390 C.3    78  ILE78       0.0019
      7  CG2       19.9050   11.3050  -11.7840 C.3    78  ILE78       0.0019
      8  CD1       18.8670   14.2980  -11.6500 C.3    78  ILE78       0.0001
      9  N         25.5300    9.9460  -13.8810 N.3    84  LEU84      -0.1245
     10  CA        24.7700   10.6090  -12.8220 C.3    84  LEU84       0.1561
     11  C         24.0140    9.6570  -11.8950 C.2    84  LEU84       0.2260
     12  O         23.8730    9.9230  -10.7190 O.2    84  LEU84      -0.2867
     13  CB        23.7580   11.5390  -13.4890 C.3    84  LEU84       0.0270
     14  CG        24.2940   12.6730  -14.3540 C.3    84  LEU84       0.0019
     15  CD1       23.1880   13.5610  -14.8370 C.3    84  LEU84       0.0001
     16  CD2       25.3980   13.5360  -13.6270 C.3    84  LEU84       0.0001
     17  N         25.6900    8.5080   -8.6100 N.3    87  VAL87      -0.1231
     18  CA        25.9710    9.6090   -7.6930 C.3    87  VAL87       0.1692
     19  C         24.6530   10.0770   -7.0420 C.2    87  VAL87       0.2592
     20  O         24.5470   10.2090   -5.8220 O.2    87  VAL87      -0.2718
     21  CB        26.6840   10.7660   -8.4150 C.3    87  VAL87       0.0266
     22  CG1       26.8820   11.9620   -7.4920 C.3    87  VAL87       0.0020
     23  CG2       28.0120   10.3040   -9.0840 C.3    87  VAL87       0.0020
     24  N         23.6520   10.2800   -7.8870 N.am   88  TYR88      -0.1976
     25  CA        22.3300   10.6900   -7.4290 C.3    88  TYR88       0.1639
     26  C         21.8520    9.7080   -6.3700 C.2    88  TYR88       0.2290
     27  O         21.3770   10.1430   -5.3280 O.2    88  TYR88      -0.2864
     28  CB        21.3890   10.6640   -8.6220 C.3    88  TYR88       0.0560
     29  CG        19.9910   11.0950   -8.2360 C.ar   88  TYR88      -0.0198
     30  CD1       19.6660   12.4140   -8.0580 C.ar   88  TYR88      -0.0009
     31  CD2       18.9910   10.1290   -8.0780 C.ar   88  TYR88      -0.0009
     32  CE1       18.3550   12.7970   -7.7340 C.ar   88  TYR88       0.0417
     33  CE2       17.6440   10.5290   -7.7270 C.ar   88  TYR88       0.0417
     34  CZ        17.3520   11.8660   -7.5650 C.ar   88  TYR88       0.1957
     35  OH        16.0220   12.1640   -7.2250 O.3    88  TYR88      -0.2866
     36  N         22.9610   10.0060   -2.7850 N.3    91  LEU91      -0.1245
     37  CA        22.5620   11.1950   -2.0570 C.3    91  LEU91       0.1561
     38  C         21.3400   10.9530   -1.1470 C.2    91  LEU91       0.2260
     39  O         20.4420   10.1370   -1.4450 O.2    91  LEU91      -0.2867
     40  CB        22.2400   12.3130   -3.0480 C.3    91  LEU91       0.0270
     41  CG        23.3800   12.7630   -3.9700 C.3    91  LEU91       0.0019
     42  CD1       22.8600   13.8400   -4.9920 C.3    91  LEU91       0.0001
     43  CD2       24.5370   13.3310   -3.1140 C.3    91  LEU91       0.0001
     44  N         20.1810   18.0680   -6.8480 N.3    98  ALA98      -0.1245
     45  CA        20.6180   17.3510   -8.0880 C.3    98  ALA98       0.1562
     46  C         19.6110   17.5130   -9.2210 C.2    98  ALA98       0.2260
     47  O         19.9930   17.8140  -10.4070 O.2    98  ALA98      -0.2867
     48  CB        20.9590   15.8620   -7.8300 C.3    98  ALA98       0.0290
     49  N         19.7420   21.1930  -10.4000 N.3   101  GLU101     -0.1231
     50  CA        20.9500   21.4460  -11.2370 C.3   101  GLU101      0.1699
     51  C         20.7350   20.9110  -12.6520 C.2   101  GLU101      0.2592
     52  O         21.0370   21.5760  -13.6120 O.2   101  GLU101     -0.2718
     53  CB        22.1360   20.7630  -10.6110 C.3   101  GLU101      0.0402
     54  CG        23.4510   21.2930  -11.2150 C.3   101  GLU101      0.1161
     55  CD        24.6350   20.3830  -10.8960 C.2   101  GLU101      0.3649
     56  OE1       24.5360   19.6010   -9.9450 O.co2 101  GLU101     -0.2457
     57  OE2       25.6580   20.4810  -11.6950 O.co2 101  GLU101     -0.2457
     58  N         20.1670   19.6970  -12.7740 N.am  102  VAL102     -0.1980
     59  CA        19.9290   19.1640  -14.1490 C.3   102  VAL102      0.1595
     60  C         18.8020   19.9180  -14.8760 C.2   102  VAL102      0.2287
     61  O         18.8280   20.1610  -16.1050 O.2   102  VAL102     -0.2864
     62  CB        19.5680   17.6940  -14.0210 C.3   102  VAL102      0.0276
     63  CG1       18.9570   17.1920  -15.3610 C.3   102  VAL102      0.0022
     64  CG2       20.7900   16.8320  -13.6610 C.3   102  VAL102      0.0022
     65  N         25.7940   18.8980  -16.6600 N.3   110  VAL110     -0.1245
     66  CA        25.9700   18.4350  -15.2710 C.3   110  VAL110      0.1561
     67  C         26.9030   17.2450  -15.2370 C.2   110  VAL110      0.2260
     68  O         27.7760   17.1440  -14.3490 O.2   110  VAL110     -0.2867
     69  CB        24.6020   18.0220  -14.6980 C.3   110  VAL110      0.0252
     70  CG1       24.8140   17.2760  -13.4200 C.3   110  VAL110      0.0019
     71  CG2       23.6550   19.2940  -14.4960 C.3   110  VAL110      0.0019
     72  N         33.2540   17.0060   -9.4630 N.3   116  VAL116     -0.1231
     73  CA        32.0880   17.2440   -8.5870 C.3   116  VAL116      0.1692
     74  C         31.3730   15.9270   -8.2740 C.2   116  VAL116      0.2591
     75  O         31.0130   15.6550   -7.1460 O.2   116  VAL116     -0.2718
     76  CB        31.0820   18.2770   -9.1810 C.3   116  VAL116      0.0266
     77  CG1       29.7070   18.2930   -8.4120 C.3   116  VAL116      0.0020
     78  CG2       31.7020   19.6830   -9.2290 C.3   116  VAL116      0.0020
     79  N         31.1630   15.1220   -9.3030 N.am  117  LEU117     -0.1980
     80  CA        30.4650   13.8570   -9.1420 C.3   117  LEU117      0.1596
     81  C         31.1320   12.8960   -8.1960 C.2   117  LEU117      0.2287
     82  O         30.4750   12.2990   -7.3320 O.2   117  LEU117     -0.2864
     83  CB        30.1950   13.1840  -10.4940 C.3   117  LEU117      0.0297
     84  CG        29.3560   13.9500  -11.5060 C.3   117  LEU117      0.0022
     85  CD1       29.2660   13.1680  -12.8340 C.3   117  LEU117      0.0001
     86  CD2       27.9740   14.4080  -10.9640 C.3   117  LEU117      0.0001
     87  N         30.8310   14.4400   -4.5240 N.3   120  LEU120     -0.1245
     88  CA        29.4830   14.1750   -4.0380 C.3   120  LEU120      0.1561
     89  C         29.3140   12.7100   -3.6560 C.2   120  LEU120      0.2260
     90  O         28.8180   12.4110   -2.6150 O.2   120  LEU120     -0.2867
     91  CB        28.4360   14.5220   -5.1270 C.3   120  LEU120      0.0270
     92  CG        28.1710   16.0260   -5.3100 C.3   120  LEU120      0.0019
     93  CD1       27.2740   16.2300   -6.5530 C.3   120  LEU120      0.0001
     94  CD2       27.6280   16.7280   -4.0760 C.3   120  LEU120      0.0001
     95  N         23.6130   21.4940   -1.7550 N.3   152  PHE152     -0.1241
     96  CA        24.6110   20.4010   -1.8140 C.3   152  PHE152      0.1605
     97  C         25.5890   20.4600   -0.6360 C.2   152  PHE152      0.2264
     98  O         26.0160   19.4150   -0.1270 O.2   152  PHE152     -0.2867
     99  CB        25.4220   20.4150   -3.1220 C.3   152  PHE152      0.0534
    100  CG        24.7360   19.7760   -4.3030 C.ar  152  PHE152     -0.0203
    101  CD1       24.3460   18.4430   -4.2600 C.ar  152  PHE152     -0.0042
    102  CD2       24.6020   20.5000   -5.4650 C.ar  152  PHE152     -0.0042
    103  CE1       23.7960   17.8930   -5.4010 C.ar  152  PHE152     -0.0003
    104  CE2       24.0420   19.9600   -6.6210 C.ar  152  PHE152     -0.0003
    105  CZ        23.6620   18.6800   -6.5920 C.ar  152  PHE152     -0.0000
@<TRIPOS>BOND
     1    65    66    1
     2    61    60    2
     3    63    62    1
     4    66    67    1
     5    66    69    1
     6     1     2    1
     7    67    68    2
     8    60    59    1
     9    15    14    1
    10    69    71    1
    11    69    70    1
    12    14    16    1
    13    14    13    1
    14     4     3    2
    15     2     3    1
    16     2     5    1
    17    59    62    1
    18    59    58    1
    19    62    64    1
    20     9    10    1
    21    52    51    2
    22    13    10    1
    23     5     6    1
    24     5     7    1
    25     6     8    1
    26    85    84    1
    27    10    11    1
    28    58    51   am
    29    51    50    1
    30    11    12    2
    31    57    55   ar
    32    84    86    1
    33    84    83    1
    34    50    53    1
    35    50    49    1
    36    54    55    1
    37    54    53    1
    38    55    56   ar
    39    83    80    1
    40    47    46    2
    41    72    73    1
    42    79    80    1
    43    79    74   am
    44    78    76    1
    45    46    45    1
    46    76    73    1
    47    76    77    1
    48    80    81    1
    49    23    21    1
    50    28    29    1
    51    28    25    1
    52    17    18    1
    53    73    74    1
    54    21    18    1
    55    21    22    1
    56    74    75    2
    57    29    31   ar
    58    29    30   ar
    59    81    82    2
    60    45    48    1
    61    45    44    1
    62    31    33   ar
    63    30    32   ar
    64    24    25    1
    65    24    19   am
    66    32    34   ar
    67    33    34   ar
    68    18    19    1
    69    34    35    1
    70    25    26    1
    71    19    20    2
    72   104   105   ar
    73   104   102   ar
    74   105   103   ar
    75    93    92    1
    76    26    27    2
    77   102   100   ar
    78   103   101   ar
    79    92    91    1
    80    92    94    1
    81    91    88    1
    82    42    41    1
    83    87    88    1
    84   100   101   ar
    85   100    99    1
    86    88    89    1
    87    41    43    1
    88    41    40    1
    89    89    90    2
    90    99    96    1
    91    40    37    1
    92    36    37    1
    93    37    38    1
    94    96    95    1
    95    96    97    1
    96    39    38    2
    97    97    98    2
