@<TRIPOS>MOLECULE
tmp/3guoA00.pdb
 105 97 0 0 0
SMALL
GASTEIGER

@<TRIPOS>ATOM
      1  N         12.7260    5.8790    3.0470 N.3    78  ILE78      -0.1245
      2  CA        13.1750    4.9030    2.0480 C.3    78  ILE78       0.1561
      3  C         14.6950    4.8390    1.9990 C.2    78  ILE78       0.2260
      4  O         15.2880    3.7740    2.0750 O.2    78  ILE78      -0.2867
      5  CB        12.5780    5.1830    0.6320 C.3    78  ILE78       0.0252
      6  CG1       11.0950    4.7430    0.5790 C.3    78  ILE78       0.0019
      7  CG2       13.3920    4.4090   -0.4570 C.3    78  ILE78       0.0019
      8  CD1       10.2200    5.4860   -0.5440 C.3    78  ILE78       0.0001
      9  N         14.8250   -1.1260    1.5000 N.3    84  LEU84      -0.1245
     10  CA        14.1310   -0.3190    0.4990 C.3    84  LEU84       0.1561
     11  C         15.0910    0.3910   -0.4330 C.2    84  LEU84       0.2260
     12  O         14.8590    0.4450   -1.6190 O.2    84  LEU84      -0.2867
     13  CB        13.1800    0.7160    1.1550 C.3    84  LEU84       0.0270
     14  CG        12.1410    0.1980    2.1540 C.3    84  LEU84       0.0019
     15  CD1       11.2620    1.3110    2.7360 C.3    84  LEU84       0.0001
     16  CD2       11.2730   -0.9740    1.5620 C.3    84  LEU84       0.0001
     17  N         16.2860   -1.2240   -3.6550 N.3    87  VAL87      -0.1231
     18  CA        15.1770   -1.5990   -4.5140 C.3    87  VAL87       0.1692
     19  C         14.6560   -0.3150   -5.1600 C.2    87  VAL87       0.2592
     20  O         14.4360   -0.2880   -6.3770 O.2    87  VAL87      -0.2718
     21  CB        14.0510   -2.3710   -3.7830 C.3    87  VAL87       0.0266
     22  CG1       12.9110   -2.6660   -4.7390 C.3    87  VAL87       0.0020
     23  CG2       14.5900   -3.6890   -3.1950 C.3    87  VAL87       0.0020
     24  N         14.4700    0.7330   -4.3400 N.am   88  TYR88      -0.1976
     25  CA        14.1920    2.0490   -4.8350 C.3    88  TYR88       0.1639
     26  C         15.1510    2.5400   -5.9110 C.2    88  TYR88       0.2290
     27  O         14.7300    3.0680   -6.9140 O.2    88  TYR88      -0.2864
     28  CB        14.2160    3.0530   -3.6850 C.3    88  TYR88       0.0560
     29  CG        13.6640    4.4040   -4.1010 C.ar   88  TYR88      -0.0198
     30  CD1       12.3080    4.6410   -4.1270 C.ar   88  TYR88      -0.0009
     31  CD2       14.5260    5.4560   -4.4450 C.ar   88  TYR88      -0.0009
     32  CE1       11.8010    5.8990   -4.4990 C.ar   88  TYR88       0.0417
     33  CE2       14.0250    6.7140   -4.8210 C.ar   88  TYR88       0.0417
     34  CZ        12.6690    6.9180   -4.8390 C.ar   88  TYR88       0.1957
     35  OH        12.1800    8.1680   -5.2240 O.3    88  TYR88      -0.2866
     36  N         14.6190    1.2840   -9.4860 N.3    91  LEU91      -0.1245
     37  CA        13.3620    1.6430  -10.1400 C.3    91  LEU91       0.1561
     38  C         13.5070    2.8240  -11.0730 C.2    91  LEU91       0.2260
     39  O         14.2610    3.7500  -10.8190 O.2    91  LEU91      -0.2867
     40  CB        12.3290    2.0200   -9.0850 C.3    91  LEU91       0.0270
     41  CG        11.8390    0.9210   -8.1450 C.3    91  LEU91       0.0019
     42  CD1       10.7480    1.4920   -7.2080 C.3    91  LEU91       0.0001
     43  CD2       11.3510   -0.2550   -8.9640 C.3    91  LEU91       0.0001
     44  N          6.5350    3.9220   -5.3560 N.3    98  ALA98      -0.1245
     45  CA         7.2410    3.4780   -4.1510 C.3    98  ALA98       0.1562
     46  C          7.1310    4.4970   -3.0150 C.2    98  ALA98       0.2260
     47  O          6.9310    4.1130   -1.8640 O.2    98  ALA98      -0.2867
     48  CB         8.6940    3.2080   -4.4760 C.3    98  ALA98       0.0290
     49  N          3.4690    4.3250   -1.8330 N.3   101  GLU101     -0.1231
     50  CA         3.3050    3.1260   -0.9850 C.3   101  GLU101      0.1699
     51  C          3.8100    3.2850    0.4840 C.2   101  GLU101      0.2592
     52  O          3.1660    2.7900    1.4190 O.2   101  GLU101     -0.2718
     53  CB         4.0100    1.9270   -1.6320 C.3   101  GLU101      0.0402
     54  CG         3.6000    0.5870   -1.0480 C.3   101  GLU101      0.1161
     55  CD         4.5340   -0.5420   -1.4520 C.2   101  GLU101      0.3649
     56  OE1        5.5590   -0.2950   -2.1230 O.co2 101  GLU101     -0.2457
     57  OE2        4.2530   -1.6790   -1.0670 O.co2 101  GLU101     -0.2457
     58  N          4.9730    3.9140    0.6620 N.am  102  VAL102     -0.1980
     59  CA         5.5350    4.2210    1.9760 C.3   102  VAL102      0.1595
     60  C          4.7550    5.3450    2.7010 C.2   102  VAL102      0.2287
     61  O          4.4610    5.2440    3.8830 O.2   102  VAL102     -0.2864
     62  CB         7.0150    4.6060    1.8420 C.3   102  VAL102      0.0276
     63  CG1        7.5850    5.2650    3.1510 C.3   102  VAL102      0.0022
     64  CG2        7.8260    3.3830    1.4240 C.3   102  VAL102      0.0022
     65  N          5.9340   -1.6480    4.4900 N.3   110  VAL110     -0.1245
     66  CA         6.5380   -1.9030    3.1790 C.3   110  VAL110      0.1561
     67  C          7.7390   -2.8780    3.2270 C.2   110  VAL110      0.2260
     68  O          7.7530   -3.8960    2.4820 O.2   110  VAL110     -0.2867
     69  CB         6.9370   -0.5920    2.4800 C.3   110  VAL110      0.0252
     70  CG1        7.5270   -0.9050    1.1020 C.3   110  VAL110      0.0019
     71  CG2        5.7210    0.3350    2.3580 C.3   110  VAL110      0.0019
     72  N          7.9190   -9.3450   -2.7200 N.3   116  VAL116     -0.1231
     73  CA         7.5540   -8.2040   -3.5500 C.3   116  VAL116      0.1692
     74  C          8.7610   -7.2970   -3.8380 C.2   116  VAL116      0.2591
     75  O          8.9930   -6.9050   -4.9910 O.2   116  VAL116     -0.2718
     76  CB         6.4110   -7.3840   -2.9020 C.3   116  VAL116      0.0266
     77  CG1        6.3130   -5.9730   -3.5200 C.3   116  VAL116      0.0020
     78  CG2        5.0940   -8.1320   -3.0530 C.3   116  VAL116      0.0020
     79  N          9.5230   -6.9670   -2.8010 N.am  117  LEU117     -0.1980
     80  CA        10.7410   -6.1640   -2.9720 C.3   117  LEU117      0.1596
     81  C         11.7160   -6.8050   -3.9700 C.2   117  LEU117      0.2287
     82  O         12.3050   -6.1180   -4.8160 O.2   117  LEU117     -0.2864
     83  CB        11.4470   -5.9500   -1.6330 C.3   117  LEU117      0.0297
     84  CG        10.7540   -5.1000   -0.5820 C.3   117  LEU117      0.0022
     85  CD1       11.6870   -4.9190    0.5900 C.3   117  LEU117      0.0001
     86  CD2       10.3510   -3.7620   -1.1470 C.3   117  LEU117      0.0001
     87  N         10.1720   -6.6210   -7.5240 N.3   120  LEU120     -0.1245
     88  CA        10.4110   -5.2660   -8.0160 C.3   120  LEU120      0.1561
     89  C         11.8640   -5.0610   -8.4510 C.2   120  LEU120      0.2260
     90  O         12.1030   -4.4390   -9.4830 O.2   120  LEU120     -0.2867
     91  CB        10.0330   -4.2120   -6.9730 C.3   120  LEU120      0.0270
     92  CG         8.5460   -3.9240   -6.7770 C.3   120  LEU120      0.0019
     93  CD1        8.3200   -2.9200   -5.6170 C.3   120  LEU120      0.0001
     94  CD2        7.8260   -3.4410   -8.0530 C.3   120  LEU120      0.0001
     95  N          2.8440    0.4000  -10.5620 N.3   152  PHE152     -0.1241
     96  CA         3.9930   -0.5030  -10.4340 C.3   152  PHE152      0.1605
     97  C          4.0410   -1.5010  -11.5710 C.2   152  PHE152      0.2264
     98  O          5.1100   -1.8970  -12.0130 O.2   152  PHE152     -0.2867
     99  CB         3.9310   -1.3060   -9.1380 C.3   152  PHE152      0.0534
    100  CG         4.6080   -0.6480   -7.9360 C.ar  152  PHE152     -0.0203
    101  CD1        5.9630   -0.2650   -7.9720 C.ar  152  PHE152     -0.0042
    102  CD2        3.8970   -0.4870   -6.7430 C.ar  152  PHE152     -0.0042
    103  CE1        6.5830    0.2970   -6.8280 C.ar  152  PHE152     -0.0003
    104  CE2        4.4850    0.0410   -5.5860 C.ar  152  PHE152     -0.0003
    105  CZ         5.8320    0.4650   -5.6360 C.ar  152  PHE152     -0.0000
@<TRIPOS>BOND
     1    98    97    2
     2    97    96    1
     3    38    39    2
     4    38    37    1
     5    95    96    1
     6    96    99    1
     7    37    36    1
     8    37    40    1
     9    90    89    2
    10    99   100    1
    11    40    41    1
    12    43    41    1
    13    89    88    1
    14    41    42    1
    15    94    92    1
    16    88    87    1
    17    88    91    1
    18   101   100   ar
    19   101   103   ar
    20   100   102   ar
    21    91    92    1
    22    27    26    2
    23   103   105   ar
    24    92    93    1
    25   102   104   ar
    26    20    19    2
    27    26    25    1
    28   105   104   ar
    29    44    45    1
    30    35    34    1
    31    19    18    1
    32    19    24   am
    33    75    74    2
    34    34    33   ar
    35    34    32   ar
    36    25    24    1
    37    25    28    1
    38    33    31   ar
    39    82    81    2
    40    22    21    1
    41    18    21    1
    42    18    17    1
    43    32    30   ar
    44    48    45    1
    45    31    29   ar
    46    45    46    1
    47    30    29   ar
    48    29    28    1
    49    81    80    1
    50    74    73    1
    51    74    79   am
    52    21    23    1
    53    73    76    1
    54    73    72    1
    55    77    76    1
    56    78    76    1
    57    46    47    2
    58    80    79    1
    59    80    83    1
    60    56    55   ar
    61    49    50    1
    62    83    84    1
    63    53    54    1
    64    53    50    1
    65    12    11    2
    66    55    57   ar
    67    55    54    1
    68    86    84    1
    69    50    51    1
    70    84    85    1
    71     8     6    1
    72     7     5    1
    73    11    10    1
    74    51    58   am
    75    51    52    2
    76    10    13    1
    77    10     9    1
    78     6     5    1
    79     5     2    1
    80    58    59    1
    81    70    69    1
    82    13    14    1
    83    64    62    1
    84    16    14    1
    85    62    59    1
    86    62    63    1
    87    59    60    1
    88     3     2    1
    89     3     4    2
    90     2     1    1
    91    14    15    1
    92    71    69    1
    93    69    66    1
    94    68    67    2
    95    60    61    2
    96    66    67    1
    97    66    65    1
