@<TRIPOS>MOLECULE
tmp/3gurC00.pdb
 222 215 0 0 0
SMALL
GASTEIGER

@<TRIPOS>ATOM
      1  N         16.4210   21.6420   77.8620 N.3     6  TYR6       -0.1227
      2  CA        17.1490   20.3850   77.9910 C.3     6  TYR6        0.1736
      3  C         18.1500   20.5400   79.1230 C.2     6  TYR6        0.2595
      4  O         18.3270   21.6300   79.6490 O.2     6  TYR6       -0.2718
      5  CB        17.8900   20.0700   76.6880 C.3     6  TYR6        0.0548
      6  CG        18.4360   18.6560   76.5840 C.ar    6  TYR6       -0.0200
      7  CD1       17.5730   17.5560   76.5280 C.ar    6  TYR6       -0.0009
      8  CD2       19.8160   18.4180   76.5140 C.ar    6  TYR6       -0.0009
      9  CE1       18.0600   16.2680   76.4240 C.ar    6  TYR6        0.0417
     10  CE2       20.3110   17.1330   76.3990 C.ar    6  TYR6        0.0417
     11  CZ        19.4240   16.0620   76.3620 C.ar    6  TYR6        0.1957
     12  OH        19.8970   14.7830   76.2450 O.3     6  TYR6       -0.2866
     13  N         18.8020   19.4490   79.4960 N.am    7  TRP7       -0.1976
     14  CA        19.9130   19.5020   80.4330 C.3     7  TRP7        0.1640
     15  C         21.0740   20.3120   79.8570 C.2     7  TRP7        0.2290
     16  O         21.1790   20.4990   78.6420 O.2     7  TRP7       -0.2864
     17  CB        20.4030   18.0990   80.7450 C.3     7  TRP7        0.0576
     18  CG        19.3610   17.2220   81.3640 C.ar    7  TRP7        0.0006
     19  CD1       18.6890   16.1990   80.7580 C.ar    7  TRP7        0.0946
     20  CD2       18.8980   17.2660   82.7150 C.ar    7  TRP7        0.0152
     21  NE1       17.8340   15.6010   81.6510 N.ar    7  TRP7       -0.2442
     22  CE2       17.9360   16.2390   82.8600 C.ar    7  TRP7        0.0810
     23  CE3       19.1970   18.0760   83.8200 C.ar    7  TRP7        0.0012
     24  CZ2       17.2570   16.0000   84.0720 C.ar    7  TRP7        0.0191
     25  CZ3       18.5150   17.8410   85.0320 C.ar    7  TRP7        0.0001
     26  CH2       17.5580   16.8090   85.1410 C.ar    7  TRP7        0.0015
     27  N         23.8220   19.8380   78.7730 N.3     9  ILE9       -0.1245
     28  CA        24.7080   18.8660   78.1390 C.3     9  ILE9        0.1561
     29  C         24.4240   18.8560   76.6360 C.2     9  ILE9        0.2260
     30  O         23.5000   19.5180   76.1760 O.2     9  ILE9       -0.2867
     31  CB        24.5380   17.4230   78.7170 C.3     9  ILE9        0.0252
     32  CG1       23.1790   16.8100   78.3280 C.3     9  ILE9        0.0019
     33  CG2       24.7600   17.4160   80.2330 C.3     9  ILE9        0.0019
     34  CD1       23.1060   15.2740   78.3290 C.3     9  ILE9        0.0001
     35  N         23.9200   15.8300   74.6360 N.3    11  GLY11      -0.1210
     36  CA        22.8120   14.8780   74.5840 C.3    11  GLY11       0.1956
     37  C         21.9380   14.9240   73.3510 C.2    11  GLY11       0.2611
     38  O         22.4260   15.0160   72.2340 O.2    11  GLY11      -0.2717
     39  N         20.6320   14.8770   73.5690 N.am   12  LEU12      -0.1979
     40  CA        19.6810   14.7860   72.4820 C.3    12  LEU12       0.1596
     41  C         19.3640   16.1410   71.8730 C.2    12  LEU12       0.2287
     42  O         18.6280   16.2170   70.8940 O.2    12  LEU12      -0.2864
     43  CB        18.3940   14.1240   72.9650 C.3    12  LEU12       0.0297
     44  CG        18.4350   12.6610   73.4010 C.3    12  LEU12       0.0022
     45  CD1       17.2140   12.4000   74.2220 C.3    12  LEU12       0.0001
     46  CD2       18.4620   11.7280   72.2140 C.3    12  LEU12       0.0001
     47  N         21.7240   19.0770   86.6020 N.3    34  MET34      -0.1245
     48  CA        21.5510   17.8850   87.4080 C.3    34  MET34       0.1570
     49  C         22.6210   17.8870   88.5050 C.2    34  MET34       0.2261
     50  O         23.7880   18.2110   88.2460 O.2    34  MET34      -0.2867
     51  CB        21.6580   16.6330   86.5290 C.3    34  MET34       0.0387
     52  CG        21.4460   15.3170   87.2590 C.3    34  MET34       0.0595
     53  SD        21.9430   13.8670   86.3030 S.3    34  MET34      -0.1393
     54  CE        20.6010   13.7850   85.1130 C.3    34  MET34       0.0692
     55  N         17.3990   15.8970   90.4290 N.3    42  ARG42      -0.1245
     56  CA        16.7790   16.3760   89.1880 C.3    42  ARG42       0.1563
     57  C         15.6820   17.4170   89.4500 C.2    42  ARG42       0.2260
     58  O         14.9380   17.7740   88.5370 O.2    42  ARG42      -0.2867
     59  CB        16.2180   15.2060   88.3660 C.3    42  ARG42       0.0307
     60  CG        17.1660   14.0290   88.2230 C.3    42  ARG42       0.0489
     61  CD        16.6620   12.9800   87.2510 C.3    42  ARG42       0.2205
     62  NE        15.3900   12.3800   87.6490 N.pl3  42  ARG42      -0.0865
     63  CZ        14.3130   12.3080   86.8680 C.cat  42  ARG42       0.5346
     64  NH1       14.3460   12.7900   85.6350 N.pl3  42  ARG42       0.1354
     65  NH2       13.2010   11.7360   87.3150 N.pl3  42  ARG42       0.1354
     66  N         14.2270   20.1930   87.2710 N.3    45  TRP45      -0.1241
     67  CA        13.3860   19.9380   86.1590 C.3    45  TRP45       0.1605
     68  C         12.0610   19.5400   86.7330 C.2    45  TRP45       0.2264
     69  O         11.0360   20.0710   86.4130 O.2    45  TRP45      -0.2867
     70  CB        14.0530   18.8440   85.3230 C.3    45  TRP45       0.0550
     71  CG        13.1940   17.9910   84.5860 C.ar   45  TRP45       0.0003
     72  CD1       13.0870   16.6910   84.7120 C.ar   45  TRP45       0.0946
     73  CD2       12.3180   18.3720   83.5750 C.ar   45  TRP45       0.0152
     74  NE1       12.1960   16.2030   83.8420 N.ar   45  TRP45      -0.2442
     75  CE2       11.7040   17.2350   83.1210 C.ar   45  TRP45       0.0810
     76  CE3       12.0040   19.5740   82.9900 C.ar   45  TRP45       0.0012
     77  CZ2       10.7960   17.2550   82.1240 C.ar   45  TRP45       0.0191
     78  CZ3       11.1010   19.5950   82.0350 C.ar   45  TRP45       0.0001
     79  CH2       10.5100   18.4530   81.5880 C.ar   45  TRP45       0.0015
     80  N          8.4800   20.2360   85.5930 N.3    49  LYS49      -0.1245
     81  CA         8.1650   19.2290   84.5770 C.3    49  LYS49       0.1561
     82  C          6.7000   19.2000   84.1620 C.2    49  LYS49       0.2260
     83  O          6.3780   19.1430   82.9660 O.2    49  LYS49      -0.2867
     84  CB         8.5930   17.8420   85.0730 C.3    49  LYS49       0.0271
     85  CG         8.1870   16.7040   84.1620 C.3    49  LYS49       0.0035
     86  CD         8.6640   15.3490   84.6620 C.3    49  LYS49       0.0206
     87  CE         8.2760   14.2430   83.6810 C.3    49  LYS49       0.1093
     88  NZ         9.0470   13.0010   83.9430 N.3    49  LYS49      -0.1314
     89  N          5.2340   15.4180   79.3360 N.3    57  PRO57      -0.2102
     90  CA         6.4000   16.0680   79.9520 C.3    57  PRO57       0.1504
     91  C          7.7090   15.3160   79.7690 C.2    57  PRO57       0.2576
     92  O          7.8450   14.1710   80.2260 O.2    57  PRO57      -0.2718
     93  CB         6.0140   16.1280   81.4290 C.3    57  PRO57       0.0282
     94  CG         4.5190   16.2840   81.3990 C.3    57  PRO57       0.0208
     95  CD         4.0560   15.4470   80.2300 C.3    57  PRO57       0.0893
     96  N          8.6620   15.9760   79.1020 N.am   58  ASN58      -0.1961
     97  CA         9.9520   15.3850   78.7720 C.3    58  ASN58       0.1819
     98  C         11.0380   16.4030   78.4340 C.2    58  ASN58       0.2621
     99  O         10.7430   17.5670   78.1510 O.2    58  ASN58      -0.2715
    100  CB         9.7940   14.4490   77.5810 C.3    58  ASN58       0.1195
    101  CG        10.6200   13.1920   77.7170 C.2    58  ASN58       0.2630
    102  OD1       11.6260   13.1530   78.4400 O.2    58  ASN58      -0.2716
    103  ND2       10.1930   12.1450   77.0270 N.am   58  ASN58      -0.0877
    104  N         12.2880   15.9410   78.4580 N.am   59  LEU59      -0.1964
    105  CA        13.4460   16.6910   77.9640 C.3    59  LEU59       0.1713
    106  C         14.0550   15.9400   76.7810 C.2    59  LEU59       0.2458
    107  O         14.3420   14.7470   76.8980 O.2    59  LEU59      -0.2730
    108  CB        14.5000   16.8750   79.0650 C.3    59  LEU59       0.0310
    109  CG        14.1020   17.7360   80.2740 C.3    59  LEU59       0.0022
    110  CD1       15.1670   17.6840   81.3250 C.3    59  LEU59       0.0001
    111  CD2       13.8160   19.1850   79.8730 C.3    59  LEU59       0.0001
    112  N         14.2650   16.6290   75.6420 N.am   60  PRO60      -0.2727
    113  CA        14.0680   18.0580   75.3910 C.3    60  PRO60       0.1402
    114  C         12.6300   18.4850   75.0920 C.2    60  PRO60       0.2269
    115  O         11.8000   17.6510   74.7250 O.2    60  PRO60      -0.2865
    116  CB        14.9200   18.3000   74.1490 C.3    60  PRO60       0.0296
    117  CG        14.8490   17.0150   73.4130 C.3    60  PRO60       0.0237
    118  CD        14.7950   15.9370   74.4530 C.3    60  PRO60       0.0939
    119  N          9.9560   15.1430   72.5050 N.3    71  GLN71      -0.1231
    120  CA        10.5260   14.1420   71.5990 C.3    71  GLN71       0.1698
    121  C         11.4430   14.7760   70.5410 C.2    71  GLN71       0.2593
    122  O         10.9770   15.4470   69.6150 O.2    71  GLN71      -0.2718
    123  CB         9.4290   13.2760   70.9660 C.3    71  GLN71       0.0381
    124  CG         8.6970   12.3570   71.9580 C.3    71  GLN71       0.0905
    125  CD         9.5700   11.2220   72.4490 C.2    71  GLN71       0.2608
    126  OE1       10.6500   10.9970   71.9250 O.2    71  GLN71      -0.2717
    127  NE2        9.1090   10.5060   73.4590 N.am   71  GLN71      -0.0878
    128  N         12.7480   14.5660   70.6830 N.am   72  SER72      -0.1938
    129  CA        13.7310   15.2380   69.8170 C.3    72  SER72       0.2055
    130  C         13.4440   15.0830   68.3200 C.2    72  SER72       0.2643
    131  O         13.6720   16.0190   67.5690 O.2    72  SER72      -0.2714
    132  CB        15.1660   14.8060   70.1510 C.3    72  SER72       0.2130
    133  OG        15.2720   13.3950   70.1650 O.3    72  SER72      -0.2179
    134  N         12.9310   13.9220   67.9000 N.am   73  ASN73      -0.1971
    135  CA        12.5660   13.7020   66.4920 C.3    73  ASN73       0.1688
    136  C         11.3750   14.5660   66.0550 C.2    73  ASN73       0.2292
    137  O         11.3260   15.0090   64.9060 O.2    73  ASN73      -0.2864
    138  CB        12.2820   12.2220   66.1820 C.3    73  ASN73       0.1181
    139  CG        13.5460   11.3450   66.1760 C.2    73  ASN73       0.2629
    140  OD1       14.6790   11.8220   66.0000 O.2    73  ASN73      -0.2716
    141  ND2       13.3430   10.0470   66.3490 N.am   73  ASN73      -0.0877
    142  N         18.8490    6.7760   65.4850 N.3   104  MET104     -0.1245
    143  CA        18.3500    6.6560   66.8700 C.3   104  MET104      0.1570
    144  C         18.8000    5.3290   67.5050 C.2   104  MET104      0.2261
    145  O         19.2380    5.3020   68.6480 O.2   104  MET104     -0.2867
    146  CB        16.8180    6.8500   66.9470 C.3   104  MET104      0.0387
    147  CG        16.2360    6.9370   68.3630 C.3   104  MET104      0.0595
    148  SD        17.0200    8.1760   69.4650 S.3   104  MET104     -0.1393
    149  CE        16.2450    9.6780   68.8770 C.3   104  MET104      0.0692
    150  N         22.4900    5.7430   68.0990 N.3   107  ARG107     -0.1231
    151  CA        22.6140    6.6370   69.2420 C.3   107  ARG107      0.1694
    152  C         22.3340    5.8760   70.5450 C.2   107  ARG107      0.2591
    153  O         23.0410    6.0590   71.5400 O.2   107  ARG107     -0.2718
    154  CB        21.6600    7.8240   69.1220 C.3   107  ARG107      0.0321
    155  CG        21.6490    8.6980   70.3640 C.3   107  ARG107      0.0489
    156  CD        20.4800    9.6610   70.4000 C.3   107  ARG107      0.2205
    157  NE        20.4580   10.5410   69.2310 N.pl3 107  ARG107     -0.0865
    158  CZ        21.2200   11.6200   69.0940 C.cat 107  ARG107      0.5346
    159  NH1       22.0900   11.9730   70.0350 N.pl3 107  ARG107      0.1354
    160  NH2       21.1220   12.3450   67.9960 N.pl3 107  ARG107      0.1354
    161  N         21.3190    5.0160   70.5300 N.am  108  MET108     -0.1979
    162  CA        20.9330    4.3290   71.7470 C.3   108  MET108      0.1605
    163  C         21.9650    3.2950   72.1610 C.2   108  MET108      0.2287
    164  O         22.1980    3.1290   73.3480 O.2   108  MET108     -0.2864
    165  CB        19.5280    3.7330   71.6420 C.3   108  MET108      0.0413
    166  CG        18.4280    4.7610   71.8680 C.3   108  MET108      0.0598
    167  SD        16.7480    4.0520   71.8340 S.3   108  MET108     -0.1393
    168  CE        16.6500    3.2620   70.2150 C.3   108  MET108      0.0692
    169  N         24.8660    5.1450   74.0420 N.3   111  ALA111     -0.1245
    170  CA        24.4650    5.5940   75.3750 C.3   111  ALA111      0.1562
    171  C         24.3200    4.4040   76.3170 C.2   111  ALA111      0.2260
    172  O         24.6750    4.4940   77.4900 O.2   111  ALA111     -0.2867
    173  CB        23.1690    6.3930   75.3210 C.3   111  ALA111      0.0290
    174  N         26.4890    4.4790   79.8150 N.3   115  TYR115     -0.1241
    175  CA        25.8330    4.5810   81.1290 C.3   115  TYR115      0.1605
    176  C         25.9570    3.3120   81.9680 C.2   115  TYR115      0.2264
    177  O         25.5870    3.3060   83.1440 O.2   115  TYR115     -0.2867
    178  CB        24.3520    4.9550   80.9860 C.3   115  TYR115      0.0534
    179  CG        24.1030    6.4190   80.7300 C.ar  115  TYR115     -0.0201
    180  CD1       23.8970    7.3010   81.7760 C.ar  115  TYR115     -0.0009
    181  CD2       24.0680    6.9190   79.4340 C.ar  115  TYR115     -0.0009
    182  CE1       23.6700    8.6510   81.5330 C.ar  115  TYR115      0.0417
    183  CE2       23.8450    8.2570   79.1850 C.ar  115  TYR115      0.0417
    184  CZ        23.6440    9.1120   80.2360 C.ar  115  TYR115      0.1957
    185  OH        23.4200   10.4380   79.9770 O.3   115  TYR115     -0.2866
    186  N         29.9890   12.0210   67.5260 N.3   165  ARG165     -0.1245
    187  CA        30.2260   11.5680   68.9020 C.3   165  ARG165      0.1563
    188  C         30.9050   10.2050   68.9450 C.2   165  ARG165      0.2260
    189  O         31.5260    9.8500   69.9440 O.2   165  ARG165     -0.2867
    190  CB        28.9660   11.6270   69.8030 C.3   165  ARG165      0.0307
    191  CG        27.8670   10.6120   69.5110 C.3   165  ARG165      0.0489
    192  CD        26.6520   10.7800   70.4430 C.3   165  ARG165      0.2205
    193  NE        26.1460   12.1550   70.4650 N.pl3 165  ARG165     -0.0865
    194  CZ        25.2620   12.6290   71.3390 C.cat 165  ARG165      0.5346
    195  NH1       24.7600   11.8440   72.2890 N.pl3 165  ARG165      0.1354
    196  NH2       24.8860   13.8980   71.2690 N.pl3 165  ARG165      0.1354
    197  N         27.0080   13.2900   77.6240 N.3   208  PHE208     -0.1227
    198  CA        25.9470   12.6460   78.3650 C.3   208  PHE208      0.1736
    199  C         25.7430   13.3130   79.7330 C.2   208  PHE208      0.2596
    200  O         26.3320   14.3770   79.9990 O.2   208  PHE208     -0.2718
    201  CB        26.3030   11.1740   78.5240 C.3   208  PHE208      0.0547
    202  CG        26.2760   10.3910   77.2260 C.ar  208  PHE208     -0.0202
    203  CD1       25.1120   10.3300   76.4500 C.ar  208  PHE208     -0.0042
    204  CD2       27.3950    9.6890   76.8010 C.ar  208  PHE208     -0.0042
    205  CE1       25.0740    9.5980   75.2830 C.ar  208  PHE208     -0.0003
    206  CE2       27.3600    8.9500   75.6170 C.ar  208  PHE208     -0.0003
    207  CZ        26.1970    8.9070   74.8610 C.ar  208  PHE208     -0.0000
    208  N         24.9020   12.7170   80.5870 N.am  209  THR209     -0.1953
    209  CA        24.6850   13.2670   81.9400 C.3   209  THR209      0.1897
    210  C         25.7250   12.7990   82.9450 C.2   209  THR209      0.2313
    211  O         26.5160   11.8910   82.6660 O.2   209  THR209     -0.2863
    212  CB        23.2770   12.9700   82.5490 C.3   209  THR209      0.1794
    213  OG1       23.2260   11.6300   83.0620 O.3   209  THR209     -0.2208
    214  CG2       22.1630   13.2220   81.5420 C.3   209  THR209      0.0378
    215  N         25.3520   10.9540   85.2330 N.3   211  MET211     -0.1245
    216  CA        25.1340    9.5400   85.5100 C.3   211  MET211      0.1570
    217  C         26.0130    8.5990   84.6800 C.2   211  MET211      0.2261
    218  O         26.1960    7.4390   85.0620 O.2   211  MET211     -0.2867
    219  CB        23.6560    9.1700   85.3220 C.3   211  MET211      0.0387
    220  CG        22.7480    9.5860   86.4760 C.3   211  MET211      0.0595
    221  SD        21.0280    9.1130   86.1840 S.3   211  MET211     -0.1393
    222  CE        20.1820    9.9530   87.5230 C.3   211  MET211      0.0692
@<TRIPOS>BOND
     1   137   136    2
     2   142   143    1
     3   140   139    2
     4   136   135    1
     5   139   138    1
     6   139   141   am
     7   138   135    1
     8   135   134    1
     9   143   146    1
    10   143   144    1
    11   146   147    1
    12   144   145    2
    13   186   187    1
    14   131   130    2
    15   134   130   am
    16   160   158    1
    17   150   151    1
    18   130   129    1
    19   147   148    1
    20   149   148    1
    21   187   188    1
    22   187   190    1
    23   188   189    2
    24   158   157    2
    25   158   159    1
    26   154   151    1
    27   154   155    1
    28   157   156    1
    29   151   152    1
    30   191   190    1
    31   191   192    1
    32   122   121    2
    33   129   132    1
    34   129   128    1
    35   132   133    1
    36   168   167    1
    37   155   156    1
    38   192   193    1
    39   193   194    2
    40   161   152   am
    41   161   162    1
    42   121   128   am
    43   121   120    1
    44   152   153    2
    45    42    41    2
    46   123   120    1
    47   123   124    1
    48   196   194    1
    49   194   195    1
    50   120   119    1
    51   165   162    1
    52   165   166    1
    53   162   163    1
    54   167   166    1
    55    41    40    1
    56   126   125    2
    57   124   125    1
    58   163   164    2
    59    46    44    1
    60    38    37    2
    61   125   127   am
    62    40    43    1
    63    40    39    1
    64    43    44    1
    65    37    39   am
    66    37    36    1
    67    44    45    1
    68   117   116    1
    69   117   118    1
    70   169   170    1
    71   116   113    1
    72   118   112    1
    73    36    35    1
    74   115   114    2
    75   207   205   ar
    76   207   206   ar
    77   114   113    1
    78   205   203   ar
    79   173   170    1
    80   170   171    1
    81   113   112    1
    82   206   204   ar
    83   112   106   am
    84    30    29    2
    85    12    11    1
    86   171   172    2
    87    11    10   ar
    88    11     9   ar
    89    10     8   ar
    90     9     7   ar
    91   203   202   ar
    92     8     6   ar
    93     7     6   ar
    94     6     5    1
    95    29    28    1
    96     5     2    1
    97   106   107    2
    98   106   105    1
    99   204   202   ar
   100   103   101   am
   101   202   201    1
   102   100   101    1
   103   100    97    1
   104   197   198    1
   105   101   102    2
   106     1     2    1
   107   105   104    1
   108   105   108    1
   109     2     3    1
   110    28    31    1
   111    28    27    1
   112    99    98    2
   113    32    34    1
   114    32    31    1
   115   198   201    1
   116   198   199    1
   117    98   104   am
   118    98    97    1
   119    16    15    2
   120    31    33    1
   121    97    96    1
   122   108   109    1
   123    96    91   am
   124     3    13   am
   125     3     4    2
   126   183   181   ar
   127   183   184   ar
   128    89    90    1
   129    89    95    1
   130   181   179   ar
   131    13    14    1
   132   199   200    2
   133   199   208   am
   134    91    90    1
   135    91    92    2
   136   174   175    1
   137    15    14    1
   138   111   109    1
   139    90    93    1
   140   185   184    1
   141    95    94    1
   142   184   182   ar
   143   109   110    1
   144    14    17    1
   145   208   209    1
   146   179   178    1
   147   179   180   ar
   148    17    18    1
   149    19    18   ar
   150    19    21   ar
   151   178   175    1
   152   175   176    1
   153    18    20   ar
   154    94    93    1
   155   182   180   ar
   156   214   212    1
   157    79    78   ar
   158    79    77   ar
   159    21    22   ar
   160   209   212    1
   161   209   210    1
   162   176   177    2
   163    78    76   ar
   164    77    75   ar
   165   212   213    1
   166   211   210    2
   167    20    22   ar
   168    20    23   ar
   169    22    24   ar
   170    83    82    2
   171    76    73   ar
   172    75    73   ar
   173    75    74   ar
   174    73    71   ar
   175    87    88    1
   176    87    86    1
   177    23    25   ar
   178    74    72   ar
   179    24    26   ar
   180    82    81    1
   181    85    86    1
   182    85    84    1
   183    81    84    1
   184    81    80    1
   185    71    72   ar
   186    71    70    1
   187   217   218    2
   188   217   216    1
   189    25    26   ar
   190    54    53    1
   191   215   216    1
   192   219   216    1
   193   219   220    1
   194    70    67    1
   195    64    63    1
   196    67    68    1
   197    67    66    1
   198   221   220    1
   199   221   222    1
   200    53    52    1
   201    69    68    2
   202    51    52    1
   203    51    48    1
   204    47    48    1
   205    63    65    1
   206    63    62    2
   207    61    62    1
   208    61    60    1
   209    48    49    1
   210    60    59    1
   211    50    49    2
   212    59    56    1
   213    58    57    2
   214    56    57    1
   215    56    55    1
