@<TRIPOS>MOLECULE
tmp/3guuA00.pdb
 193 181 0 0 0
SMALL
GASTEIGER

@<TRIPOS>ATOM
      1  N          4.7510   44.2060    4.1240 N.3    85  ASP85      -0.1239
      2  CA         3.8210   44.2890    5.2720 C.3    85  ASP85       0.1674
      3  C          2.3820   43.8070    4.9780 C.2    85  ASP85       0.2266
      4  O          1.3780   44.4950    5.2900 O.2    85  ASP85      -0.2867
      5  CB         3.7610   45.7330    5.7850 C.3    85  ASP85       0.1410
      6  CG         5.0910   46.2190    6.3790 C.2    85  ASP85       0.3668
      7  OD1        6.1860   45.6080    6.2480 O.co2  85  ASP85      -0.2456
      8  OD2        5.0300   47.2780    6.9810 O.co2  85  ASP85      -0.2456
      9  N          4.7340   37.2500    5.9780 N.3   139  PHE139     -0.1227
     10  CA         5.2230   38.4780    6.5560 C.3   139  PHE139      0.1736
     11  C          5.7980   38.2250    7.9390 C.2   139  PHE139      0.2595
     12  O          5.1140   37.6620    8.8050 O.2   139  PHE139     -0.2718
     13  CB         4.0750   39.4850    6.6600 C.3   139  PHE139      0.0547
     14  CG         4.4220   40.7440    7.4160 C.ar  139  PHE139     -0.0202
     15  CD1        5.5100   41.5470    7.0210 C.ar  139  PHE139     -0.0042
     16  CD2        3.6610   41.1340    8.5160 C.ar  139  PHE139     -0.0042
     17  CE1        5.8390   42.7070    7.6790 C.ar  139  PHE139     -0.0003
     18  CE2        3.9780   42.2980    9.1890 C.ar  139  PHE139     -0.0003
     19  CZ         5.0830   43.1000    8.7500 C.ar  139  PHE139     -0.0000
     20  N          7.0690   38.6170    8.1130 N.am  140  ILE140     -0.1980
     21  CA         7.7470   38.7130    9.4060 C.3   140  ILE140      0.1595
     22  C          8.3440   37.3830    9.8380 C.2   140  ILE140      0.2287
     23  O          8.8760   37.2610   10.9250 O.2   140  ILE140     -0.2864
     24  CB         6.8930   39.4630   10.5280 C.3   140  ILE140      0.0276
     25  CG1        7.7770   40.4700   11.2690 C.3   140  ILE140      0.0022
     26  CG2        6.0420   38.5050   11.4440 C.3   140  ILE140      0.0022
     27  CD1        8.1950   41.7080   10.3590 C.3   140  ILE140      0.0001
     28  N         11.9020   49.6760    7.9390 N.3   174  SER174     -0.1202
     29  CA        10.6130   49.1790    8.4760 C.3   174  SER174      0.2020
     30  C         10.4840   47.6490    8.3260 C.2   174  SER174      0.2619
     31  O         11.4120   46.9170    8.7150 O.2   174  SER174     -0.2717
     32  CB         9.4440   49.9530    7.8280 C.3   174  SER174      0.2103
     33  OG         8.2850   49.9440    8.6700 O.3   174  SER174     -0.2182
     34  N          9.3950   47.1340    7.7320 N.am  175  GLY175     -0.1956
     35  CA         9.3290   45.7040    7.3760 C.3   175  GLY175      0.1869
     36  C         10.4860   45.2540    6.4980 C.2   175  GLY175      0.2309
     37  O         10.8960   44.0990    6.5660 O.2   175  GLY175     -0.2863
     38  N         12.1960   46.1800   13.1300 N.3   205  PRO205     -0.2116
     39  CA        11.5670   45.1920   14.0550 C.3   205  PRO205      0.1372
     40  C         12.5640   44.0160   14.2820 C.2   205  PRO205      0.2244
     41  O         12.8900   43.2990   13.3120 O.2   205  PRO205     -0.2868
     42  CB        10.3120   44.7040   13.2820 C.3   205  PRO205      0.0268
     43  CG        10.1850   45.5770   12.0410 C.3   205  PRO205      0.0207
     44  CD        11.5910   46.1420   11.7770 C.3   205  PRO205      0.0892
     45  N          9.9010   39.6930   17.1120 N.3   208  ALA208     -0.1231
     46  CA         8.5000   39.5780   16.6890 C.3   208  ALA208      0.1694
     47  C          7.5180   39.8350   17.8700 C.2   208  ALA208      0.2591
     48  O          6.5320   40.5930   17.7520 O.2   208  ALA208     -0.2718
     49  CB         8.2570   38.2030   16.0800 C.3   208  ALA208      0.0304
     50  N          7.7870   39.1630   18.9940 N.am  209  LYS209     -0.1980
     51  CA         6.9890   39.3320   20.2260 C.3   209  LYS209      0.1596
     52  C          6.9380   40.7960   20.6750 C.2   209  LYS209      0.2287
     53  O          5.8630   41.3150   20.9650 O.2   209  LYS209     -0.2864
     54  CB         7.5140   38.4570   21.3700 C.3   209  LYS209      0.0298
     55  CG         6.6220   38.5330   22.5860 C.3   209  LYS209      0.0038
     56  CD         6.9200   37.4950   23.6930 C.3   209  LYS209      0.0206
     57  CE         6.1950   37.9050   25.0090 C.3   209  LYS209      0.1093
     58  NZ         6.2440   36.8500   26.0920 N.3   209  LYS209     -0.1314
     59  N          7.4360   43.5640   18.9460 N.3   211  THR211     -0.1203
     60  CA         6.7750   44.4070   17.9940 C.3   211  THR211      0.1994
     61  C          5.2800   44.1580   18.1150 C.2   211  THR211      0.2617
     62  O          4.5050   45.0980   18.1010 O.2   211  THR211     -0.2717
     63  CB         7.3110   44.1430   16.5690 C.3   211  THR211      0.1784
     64  OG1        8.7570   44.1330   16.5830 O.3   211  THR211     -0.2211
     65  CG2        6.7880   45.1880   15.6080 C.3   211  THR211      0.0376
     66  N          4.8800   42.8960   18.2610 N.am  212  PHE212     -0.1975
     67  CA         3.4890   42.5480   18.5760 C.3   212  PHE212      0.1639
     68  C          2.8930   43.2990   19.7990 C.2   212  PHE212      0.2290
     69  O          1.8340   43.9800   19.7070 O.2   212  PHE212     -0.2864
     70  CB         3.3130   41.0350   18.7570 C.3   212  PHE212      0.0560
     71  CG         1.9300   40.6620   19.1610 C.ar  212  PHE212     -0.0200
     72  CD1        0.9110   40.5150   18.1860 C.ar  212  PHE212     -0.0042
     73  CD2        1.6190   40.4640   20.5270 C.ar  212  PHE212     -0.0042
     74  CE1       -0.4310   40.2090   18.5520 C.ar  212  PHE212     -0.0003
     75  CE2        0.2750   40.1870   20.9380 C.ar  212  PHE212     -0.0003
     76  CZ        -0.7680   40.0700   19.9430 C.ar  212  PHE212     -0.0000
     77  N          2.3220   47.0280   19.2520 N.3   215  LEU215     -0.1245
     78  CA         1.3080   47.3670   18.2150 C.3   215  LEU215      0.1561
     79  C         -0.1220   46.9960   18.5670 C.2   215  LEU215      0.2260
     80  O         -1.0570   47.6900   18.1320 O.2   215  LEU215     -0.2867
     81  CB         1.6410   46.6840   16.8680 C.3   215  LEU215      0.0270
     82  CG         2.7720   47.3680   16.0920 C.3   215  LEU215      0.0019
     83  CD1        3.2680   46.4880   14.9410 C.3   215  LEU215      0.0001
     84  CD2        2.3930   48.7700   15.6260 C.3   215  LEU215      0.0001
     85  N         -0.9250   45.6560   11.6560 N.3   223  PHE223     -0.1227
     86  CA         0.4120   45.0610   11.5720 C.3   223  PHE223      0.1736
     87  C          0.6770   43.9190   12.5640 C.2   223  PHE223      0.2595
     88  O          1.3640   42.9770   12.1950 O.2   223  PHE223     -0.2718
     89  CB         1.5280   46.1050   11.6060 C.3   223  PHE223      0.0547
     90  CG         1.5060   47.0030   10.4300 C.ar  223  PHE223     -0.0202
     91  CD1        1.4230   46.4700    9.1300 C.ar  223  PHE223     -0.0042
     92  CD2        1.5960   48.3830   10.5960 C.ar  223  PHE223     -0.0042
     93  CE1        1.3920   47.3350    8.0190 C.ar  223  PHE223     -0.0003
     94  CE2        1.5770   49.2420    9.5010 C.ar  223  PHE223     -0.0003
     95  CZ         1.4690   48.7280    8.2270 C.ar  223  PHE223     -0.0000
     96  N          0.1110   43.9960   13.7890 N.am  224  ALA224     -0.1980
     97  CA         0.1310   42.8990   14.7280 C.3   224  ALA224      0.1597
     98  C         -0.5700   41.6670   14.1480 C.2   224  ALA224      0.2287
     99  O         -0.0110   40.5260   14.1330 O.2   224  ALA224     -0.2864
    100  CB        -0.5040   43.3160   16.0690 C.3   224  ALA224      0.0319
    101  N          1.4840   40.1440   11.2760 N.3   227  GLY227     -0.1210
    102  CA         2.5420   39.2910   11.8690 C.3   227  GLY227      0.1956
    103  C          2.0770   37.9310   12.3670 C.2   227  GLY227      0.2611
    104  O          2.7410   36.9080   12.1110 O.2   227  GLY227     -0.2717
    105  N          0.9400   37.8930   13.0660 N.am  228  VAL228     -0.1979
    106  CA         0.3560   36.6020   13.4620 C.3   228  VAL228      0.1595
    107  C          0.1130   35.7330   12.2110 C.2   228  VAL228      0.2287
    108  O          0.5690   34.5800   12.1580 O.2   228  VAL228     -0.2864
    109  CB        -0.9830   36.7510   14.1830 C.3   228  VAL228      0.0276
    110  CG1       -1.6170   35.3690   14.3760 C.3   228  VAL228      0.0022
    111  CG2       -0.8200   37.5000   15.5340 C.3   228  VAL228      0.0022
    112  N          3.5810   34.8520   10.4080 N.3   231  LEU231     -0.1245
    113  CA         4.2140   33.7490   11.1840 C.3   231  LEU231      0.1561
    114  C          3.4920   32.4070   11.0770 C.2   231  LEU231      0.2260
    115  O          4.1580   31.3820   10.9240 O.2   231  LEU231     -0.2867
    116  CB         4.4460   34.1070   12.6580 C.3   231  LEU231      0.0270
    117  CG         5.4760   35.2170   13.0030 C.3   231  LEU231      0.0019
    118  CD1        5.6320   35.4100   14.5200 C.3   231  LEU231      0.0001
    119  CD2        6.8150   34.9930   12.3260 C.3   231  LEU231      0.0001
    120  N          2.0040   26.1860   14.6070 N.3   238  MET238     -0.1245
    121  CA         1.4140   27.4370   15.0910 C.3   238  MET238      0.1570
    122  C          0.0930   27.7270   14.3570 C.2   238  MET238      0.2261
    123  O         -0.9120   28.1190   14.9810 O.2   238  MET238     -0.2867
    124  CB         2.3960   28.5940   14.9010 C.3   238  MET238      0.0387
    125  CG         1.7650   30.0160   15.0620 C.3   238  MET238      0.0595
    126  SD         3.0070   31.3130   15.2640 S.3   238  MET238     -0.1393
    127  CE         1.9630   32.7520   15.4070 C.3   238  MET238      0.0692
    128  N         -3.4540   27.8900   16.3790 N.3   242  ILE242     -0.1245
    129  CA        -4.2880   29.0800   16.2000 C.3   242  ILE242      0.1561
    130  C         -5.6570   28.7870   15.5510 C.2   242  ILE242      0.2260
    131  O         -6.6810   29.2690   16.0520 O.2   242  ILE242     -0.2867
    132  CB        -3.5290   30.2080   15.4650 C.3   242  ILE242      0.0252
    133  CG1       -2.5760   30.8910   16.4560 C.3   242  ILE242      0.0019
    134  CG2       -4.5260   31.2320   14.8450 C.3   242  ILE242      0.0019
    135  CD1       -1.4390   31.6100   15.8110 C.3   242  ILE242      0.0001
    136  N         -2.2810   32.9480   24.8290 N.3   285  LEU285     -0.1231
    137  CA        -1.7280   32.3130   23.6360 C.3   285  LEU285      0.1693
    138  C         -0.2070   32.5450   23.5520 C.2   285  LEU285      0.2591
    139  O          0.5510   31.6300   23.2370 O.2   285  LEU285     -0.2718
    140  CB        -2.4610   32.8230   22.3780 C.3   285  LEU285      0.0284
    141  CG        -3.0360   31.7630   21.4180 C.3   285  LEU285      0.0019
    142  CD1       -3.6200   30.5600   22.1550 C.3   285  LEU285      0.0001
    143  CD2       -4.0960   32.3620   20.5240 C.3   285  LEU285      0.0001
    144  N          0.2220   33.7570   23.8810 N.am  286  LEU286     -0.1980
    145  CA         1.6400   34.1060   23.8790 C.3   286  LEU286      0.1596
    146  C          2.4820   33.1580   24.7320 C.2   286  LEU286      0.2287
    147  O          3.6790   32.9710   24.4710 O.2   286  LEU286     -0.2864
    148  CB         1.8430   35.5720   24.2970 C.3   286  LEU286      0.0297
    149  CG         2.1390   36.6120   23.2080 C.3   286  LEU286      0.0022
    150  CD1        1.5720   36.2810   21.8210 C.3   286  LEU286      0.0001
    151  CD2        1.6250   37.9570   23.6790 C.3   286  LEU286      0.0001
    152  N          3.5930   28.3880   20.2510 N.3   291  ILE291     -0.1245
    153  CA         3.8390   29.8150   20.0430 C.3   291  ILE291      0.1561
    154  C          5.0530   30.3820   20.7980 C.2   291  ILE291      0.2260
    155  O          5.9240   31.0310   20.2010 O.2   291  ILE291     -0.2867
    156  CB         2.5910   30.6780   20.3570 C.3   291  ILE291      0.0252
    157  CG1        1.4880   30.4150   19.3310 C.3   291  ILE291      0.0019
    158  CG2        2.9160   32.1940   20.3050 C.3   291  ILE291      0.0019
    159  CD1        0.2170   31.1260   19.6990 C.3   291  ILE291      0.0001
    160  N          8.2500   32.2430   19.1300 N.3   295  LEU295     -0.1245
    161  CA         8.6810   33.6200   19.4200 C.3   295  LEU295      0.1561
    162  C         10.1840   33.7380   19.8050 C.2   295  LEU295      0.2260
    163  O         10.8310   34.7290   19.4730 O.2   295  LEU295     -0.2867
    164  CB         7.7680   34.2040   20.4660 C.3   295  LEU295      0.0270
    165  CG         6.5930   35.0430   19.8960 C.3   295  LEU295      0.0019
    166  CD1        6.5120   35.2380   18.3630 C.3   295  LEU295      0.0001
    167  CD2        5.3310   34.5290   20.4020 C.3   295  LEU295      0.0001
    168  N          5.5360   53.2330   15.8150 N.3   326  ILE326     -0.1231
    169  CA         5.1100   52.0100   15.0520 C.3   326  ILE326      0.1692
    170  C          6.0560   50.7890   15.3520 C.2   326  ILE326      0.2591
    171  O          5.6070   49.6940   15.6850 O.2   326  ILE326     -0.2718
    172  CB         5.0320   52.3260   13.5260 C.3   326  ILE326      0.0266
    173  CG1        4.1040   53.5660   13.2900 C.3   326  ILE326      0.0019
    174  CG2        4.6050   51.0780   12.6820 C.3   326  ILE326      0.0020
    175  CD1        3.9470   53.9500   11.8230 C.3   326  ILE326      0.0001
    176  N          7.3590   51.0100   15.3320 N.am  327  VAL327     -0.1980
    177  CA         8.3160   49.9120   15.5930 C.3   327  VAL327      0.1595
    178  C          9.1170   50.3050   16.8410 C.2   327  VAL327      0.2287
    179  O          9.7980   51.3060   16.8230 O.2   327  VAL327     -0.2864
    180  CB         9.2940   49.7110   14.3950 C.3   327  VAL327      0.0276
    181  CG1       10.3730   48.6270   14.7600 C.3   327  VAL327      0.0022
    182  CG2        8.5120   49.3140   13.1370 C.3   327  VAL327      0.0022
    183  N          1.8660   54.3680    5.1050 N.3   421  PHE421     -0.1241
    184  CA         1.3140   54.1910    6.4530 C.3   421  PHE421      0.1605
    185  C          0.2510   55.2170    6.8050 C.2   421  PHE421      0.2264
    186  O         -0.2800   55.2000    7.9160 O.2   421  PHE421     -0.2867
    187  CB         2.4310   54.2170    7.4880 C.3   421  PHE421      0.0534
    188  CG         3.4180   53.0860    7.3480 C.ar  421  PHE421     -0.0203
    189  CD1        3.3030   51.9520    8.1280 C.ar  421  PHE421     -0.0042
    190  CD2        4.4770   53.1760    6.4540 C.ar  421  PHE421     -0.0042
    191  CE1        4.2140   50.9050    7.9980 C.ar  421  PHE421     -0.0003
    192  CE2        5.4020   52.1370    6.3190 C.ar  421  PHE421     -0.0003
    193  CZ         5.2600   50.9940    7.0930 C.ar  421  PHE421     -0.0000
@<TRIPOS>BOND
     1     1     2    1
     2     3     2    1
     3     3     4    2
     4   183   184    1
     5     2     5    1
     6     5     6    1
     7     9    10    1
     8     7     6   ar
     9   192   190   ar
    10   192   193   ar
    11     6     8   ar
    12   184   185    1
    13   184   187    1
    14   190   188   ar
    15    36    37    2
    16    36    35    1
    17    10    13    1
    18    10    11    1
    19    13    14    1
    20   185   186    2
    21    15    14   ar
    22    15    17   ar
    23   193   191   ar
    24   188   187    1
    25   188   189   ar
    26    35    34    1
    27    14    16   ar
    28    17    19   ar
    29    34    30   am
    30    32    29    1
    31    32    33    1
    32    28    29    1
    33    11    20   am
    34    11    12    2
    35   191   189   ar
    36    93    95   ar
    37    93    91   ar
    38    20    21    1
    39    95    94   ar
    40    30    29    1
    41    30    31    2
    42    16    18   ar
    43    19    18   ar
    44    91    90   ar
    45    21    22    1
    46    21    24    1
    47    94    92   ar
    48    22    23    2
    49    27    25    1
    50   112   113    1
    51    90    92   ar
    52    90    89    1
    53    24    25    1
    54    24    26    1
    55   115   114    2
    56   114   113    1
    57   113   116    1
    58   101   102    1
    59    86    89    1
    60    86    85    1
    61    86    87    1
    62    44    43    1
    63    44    38    1
    64   175   173    1
    65   102   103    1
    66    43    42    1
    67   104   103    2
    68   108   107    2
    69    88    87    2
    70   107   106    1
    71   119   117    1
    72   103   105   am
    73    87    96   am
    74   116   117    1
    75   174   172    1
    76   117   118    1
    77   105   106    1
    78    38    39    1
    79   182   180    1
    80    42    39    1
    81   173   172    1
    82    41    40    2
    83   106   109    1
    84   172   169    1
    85    96    97    1
    86    39    40    1
    87    99    98    2
    88    98    97    1
    89   109   110    1
    90   109   111    1
    91   122   123    2
    92   122   121    1
    93   180   181    1
    94   180   177    1
    95   120   121    1
    96    97   100    1
    97   134   132    1
    98   124   125    1
    99   124   121    1
   100    83    82    1
   101   169   170    1
   102   169   168    1
   103   125   126    1
   104   126   127    1
   105   176   170   am
   106   176   177    1
   107   170   171    2
   108   132   129    1
   109   132   133    1
   110   130   131    2
   111   130   129    1
   112   177   178    1
   113    65    63    1
   114    84    82    1
   115   135   133    1
   116    49    46    1
   117    82    81    1
   118   129   128    1
   119    63    64    1
   120    63    60    1
   121    46    45    1
   122    46    47    1
   123   179   178    2
   124    81    78    1
   125    48    47    2
   126    47    50   am
   127    60    61    1
   128    60    59    1
   129    62    61    2
   130    61    66   am
   131    80    79    2
   132    72    74   ar
   133    72    71   ar
   134    78    79    1
   135    78    77    1
   136    66    67    1
   137   166   165    1
   138    74    76   ar
   139    67    70    1
   140    67    68    1
   141    70    71    1
   142    50    51    1
   143   160   161    1
   144    71    73   ar
   145   157   159    1
   146   157   156    1
   147   161   162    1
   148   161   164    1
   149   163   162    2
   150    69    68    2
   151   165   167    1
   152   165   164    1
   153    76    75   ar
   154   153   152    1
   155   153   156    1
   156   153   154    1
   157   155   154    2
   158    51    52    1
   159    51    54    1
   160   158   156    1
   161   143   141    1
   162    73    75   ar
   163    52    53    2
   164    54    55    1
   165   141   142    1
   166   141   140    1
   167   150   149    1
   168   140   137    1
   169    55    56    1
   170   149   151    1
   171   149   148    1
   172   139   138    2
   173   138   137    1
   174   138   144   am
   175   137   136    1
   176    56    57    1
   177   145   144    1
   178   145   148    1
   179   145   146    1
   180   147   146    2
   181    57    58    1
