@<TRIPOS>MOLECULE
tmp/3guzA01.pdb
 76 73 0 0 0
SMALL
GASTEIGER

@<TRIPOS>ATOM
      1  N          9.1150  -17.1210    9.6710 N.3    34  HIS34      -0.1297
      2  CA         8.3530  -16.9550   10.8850 C.3    34  HIS34       0.1306
      3  C          6.9950  -17.5890   10.6860 C.3    34  HIS34       0.2013
      4  O          6.6160  -17.9980    9.5240 O.3    34  HIS34      -0.2188
      5  CB         8.2110  -15.4480   11.1790 C.3    34  HIS34       0.0691
      6  CG         9.5160  -14.7100   11.1180 C.ar   34  HIS34       0.0814
      7  ND1        9.6890  -13.5500   10.3750 N.ar   34  HIS34      -0.2268
      8  CD2       10.7170  -14.9820   11.6950 C.ar   34  HIS34       0.1154
      9  CE1       10.9410  -13.1350   10.5100 C.ar   34  HIS34       0.1986
     10  NE2       11.5840  -13.9870   11.3040 N.ar   34  HIS34      -0.2212
     11  N          4.3240  -16.2590   10.2920 N.3    36  GLY36      -0.1210
     12  CA         3.5820  -15.6070    9.2120 C.3    36  GLY36       0.1956
     13  C          3.8290  -16.2990    7.8760 C.2    36  GLY36       0.2611
     14  O          2.9010  -16.4510    7.0980 O.2    36  GLY36      -0.2717
     15  N          5.0510  -16.7890    7.5990 N.am   37  HIS37      -0.1975
     16  CA         5.3070  -17.4340    6.2860 C.3    37  HIS37       0.1656
     17  C          4.5120  -18.7390    6.1900 C.2    37  HIS37       0.2291
     18  O          4.2710  -19.2440    5.0790 O.2    37  HIS37      -0.2864
     19  CB         6.7760  -17.7750    6.0910 C.3    37  HIS37       0.0771
     20  CG         7.6160  -16.5590    5.9500 C.ar   37  HIS37       0.0820
     21  ND1        8.2110  -15.9350    7.0440 N.ar   37  HIS37      -0.2267
     22  CD2        7.9000  -15.7940    4.8710 C.ar   37  HIS37       0.1154
     23  CE1        8.8230  -14.8400    6.6300 C.ar   37  HIS37       0.1986
     24  NE2        8.6570  -14.7330    5.3240 N.ar   37  HIS37      -0.2212
     25  N          1.4750  -19.0360    6.6370 N.3    39  LYS39      -0.1231
     26  CA         0.2080  -18.8000    5.9200 C.3    39  LYS39       0.1693
     27  C          0.3800  -19.1800    4.4700 C.2    39  LYS39       0.2591
     28  O         -0.5720  -19.6570    3.8470 O.2    39  LYS39      -0.2718
     29  CB        -0.2030  -17.3460    5.9420 C.3    39  LYS39       0.0285
     30  CG         0.6180  -16.4020    5.2120 C.3    39  LYS39       0.0035
     31  CD        -0.0000  -14.9510    5.2780 C.3    39  LYS39       0.0206
     32  CE        -0.1260  -14.4580    6.7040 C.3    39  LYS39       0.1093
     33  NZ        -0.5290  -13.0280    6.6630 N.3    39  LYS39      -0.1314
     34  N          1.5500  -18.8810    3.8830 N.am   40  LEU40      -0.1980
     35  CA         1.8080  -19.2370    2.4760 C.3    40  LEU40       0.1596
     36  C          1.8860  -20.7490    2.3310 C.2    40  LEU40       0.2287
     37  O          1.3830  -21.2940    1.4110 O.2    40  LEU40      -0.2864
     38  CB         3.1480  -18.5960    1.9940 C.3    40  LEU40       0.0297
     39  CG         3.0890  -17.0780    2.1230 C.3    40  LEU40       0.0022
     40  CD1        4.5220  -16.5990    1.7760 C.3    40  LEU40       0.0001
     41  CD2        1.9900  -16.3740    1.2800 C.3    40  LEU40       0.0001
     42  N          2.4480  -13.3190   -0.3500 N.3   138  GLY138     -0.1225
     43  CA         1.7370  -12.4390    0.6070 C.3   138  GLY138      0.1811
     44  C          1.0990  -11.2570   -0.0960 C.2   138  GLY138      0.2280
     45  O          1.5760  -10.7740   -1.1500 O.2   138  GLY138     -0.2866
     46  N          0.6570   -8.5700    1.6860 N.3   140  LYS140     -0.1231
     47  CA         1.1440   -7.4210    2.4480 C.3   140  LYS140      0.1693
     48  C          2.0720   -6.5400    1.5960 C.2   140  LYS140      0.2592
     49  O          1.9630   -5.3160    1.6000 O.2   140  LYS140     -0.2718
     50  CB         1.8940   -7.9030    3.7010 C.3   140  LYS140      0.0285
     51  CG         2.6070   -6.7910    4.5090 C.3   140  LYS140      0.0035
     52  CD         4.1210   -6.7090    4.0630 C.3   140  LYS140      0.0206
     53  CE         5.0920   -5.9560    5.0680 C.3   140  LYS140      0.1093
     54  NZ         4.7880   -6.3620    6.4720 N.3   140  LYS140     -0.1314
     55  N          3.0140   -7.1680    0.8950 N.am  141  ASP141     -0.1974
     56  CA         3.8430   -6.4260   -0.0790 C.3   141  ASP141      0.1709
     57  C          3.0120   -6.3290   -1.3650 C.2   141  ASP141      0.2293
     58  O          3.1390   -7.1600   -2.3060 O.2   141  ASP141     -0.2864
     59  CB         5.1230   -7.1820   -0.3860 C.3   141  ASP141      0.1436
     60  CG         6.1190   -6.3350   -1.1660 C.2   141  ASP141      0.3671
     61  OD1        5.6940   -5.3470   -1.8020 O.co2 141  ASP141     -0.2456
     62  OD2        7.3250   -6.7060   -1.1680 O.co2 141  ASP141     -0.2456
     63  N         -2.0890  -14.2580   -0.4710 N.3   164  VAL164     -0.1231
     64  CA        -2.5220  -14.7780    0.8220 C.3   164  VAL164      0.1678
     65  C         -2.5590  -13.6370    1.8120 C.2   164  VAL164      0.2434
     66  O         -1.5290  -12.9810    2.0580 O.2   164  VAL164     -0.2733
     67  CB        -1.6090  -15.9000    1.3480 C.3   164  VAL164      0.0265
     68  CG1       -2.1390  -16.4270    2.7240 C.3   164  VAL164      0.0020
     69  CG2       -1.4600  -17.0310    0.3200 C.3   164  VAL164      0.0020
     70  N         -3.7280  -13.3710    2.3740 N.am  165  PRO165     -0.2729
     71  CA        -3.8970  -12.2110    3.2170 C.3   165  PRO165      0.1401
     72  C         -3.1640  -12.1960    4.5600 C.2   165  PRO165      0.2269
     73  O         -2.8280  -13.2190    5.0100 O.2   165  PRO165     -0.2865
     74  CB        -5.4080  -12.1840    3.4440 C.3   165  PRO165      0.0296
     75  CG        -5.8250  -13.5190    3.2510 C.3   165  PRO165      0.0237
     76  CD        -4.9890  -14.0780    2.1970 C.3   165  PRO165      0.0939
@<TRIPOS>BOND
     1    58    57    2
     2    61    60   ar
     3    57    56    1
     4    62    60   ar
     5    60    59    1
     6    45    44    2
     7    63    64    1
     8    59    56    1
     9    42    43    1
    10    44    43    1
    11    56    55    1
    12    69    67    1
    13    64    67    1
    14    64    65    1
    15    55    48   am
    16    41    39    1
    17    67    68    1
    18    37    36    2
    19    48    49    2
    20    48    47    1
    21    46    47    1
    22    40    39    1
    23    65    66    2
    24    65    70   am
    25    38    39    1
    26    38    35    1
    27    76    70    1
    28    76    75    1
    29    36    35    1
    30    70    71    1
    31    47    50    1
    32    35    34    1
    33    71    74    1
    34    71    72    1
    35    75    74    1
    36    50    51    1
    37    28    27    2
    38    34    27   am
    39    52    51    1
    40    52    53    1
    41    27    26    1
    42    72    73    2
    43    22    24   ar
    44    22    20   ar
    45    53    54    1
    46    18    17    2
    47    30    31    1
    48    30    29    1
    49    31    32    1
    50    24    23   ar
    51    26    29    1
    52    26    25    1
    53    20    19    1
    54    20    21   ar
    55    19    16    1
    56    17    16    1
    57    16    15    1
    58    23    21   ar
    59    33    32    1
    60    14    13    2
    61    15    13   am
    62    13    12    1
    63    12    11    1
    64     4     3    1
    65     1     2    1
    66     7     9   ar
    67     7     6   ar
    68     9    10   ar
    69     3     2    1
    70     2     5    1
    71     6     5    1
    72     6     8   ar
    73    10     8   ar
