@<TRIPOS>MOLECULE
tmp/3guzA00.pdb
 140 133 0 0 0
SMALL
GASTEIGER

@<TRIPOS>ATOM
      1  N          7.9090  -18.9390   -2.8810 N.3    28  PRO28      -0.2102
      2  CA         9.1940  -18.2980   -2.7960 C.3    28  PRO28       0.1504
      3  C          9.4540  -17.5450   -1.4810 C.2    28  PRO28       0.2576
      4  O          8.6180  -16.7720   -1.0480 O.2    28  PRO28      -0.2718
      5  CB         9.1570  -17.2880   -3.9500 C.3    28  PRO28       0.0282
      6  CG         8.1930  -17.9270   -4.9710 C.3    28  PRO28       0.0208
      7  CD         7.0870  -18.3410   -3.9600 C.3    28  PRO28       0.0893
      8  N         10.6460  -17.7280   -0.8890 N.am   29  THR29      -0.1939
      9  CA        10.9850  -16.9910    0.3260 C.3    29  THR29       0.2028
     10  C         12.4730  -16.6240    0.3030 C.2    29  THR29       0.2642
     11  O         13.2770  -17.2070   -0.4530 O.2    29  THR29      -0.2714
     12  CB        10.7780  -17.8240    1.6550 C.3    29  THR29       0.1808
     13  OG1       11.8660  -18.7280    1.8320 O.3    29  THR29      -0.2208
     14  CG2        9.5000  -18.6350    1.6170 C.3    29  THR29       0.0379
     15  N         12.8460  -15.6990    1.1670 N.am   30  MET30      -0.1976
     16  CA        14.2890  -15.4380    1.3920 C.3    30  MET30       0.1605
     17  C         14.7360  -15.9780    2.7580 C.2    30  MET30       0.2287
     18  O         15.6950  -15.4860    3.3510 O.2    30  MET30      -0.2864
     19  CB        14.5570  -13.9140    1.2740 C.3    30  MET30       0.0413
     20  CG        14.1950  -13.4310   -0.1560 C.3    30  MET30       0.0598
     21  SD        15.0310  -11.9130   -0.5780 S.3    30  MET30      -0.1393
     22  CE        14.5060  -10.7810    0.6630 C.3    30  MET30       0.0692
     23  N          5.0510  -16.7890    7.5990 N.3    37  HIS37      -0.1241
     24  CA         5.3070  -17.4340    6.2860 C.3    37  HIS37       0.1621
     25  C          4.5120  -18.7390    6.1900 C.2    37  HIS37       0.2264
     26  O          4.2710  -19.2440    5.0790 O.2    37  HIS37      -0.2867
     27  CB         6.7760  -17.7750    6.0910 C.3    37  HIS37       0.0745
     28  CG         7.6160  -16.5590    5.9500 C.ar   37  HIS37       0.0817
     29  ND1        8.2110  -15.9350    7.0440 N.ar   37  HIS37      -0.2268
     30  CD2        7.9000  -15.7940    4.8710 C.ar   37  HIS37       0.1154
     31  CE1        8.8230  -14.8400    6.6300 C.ar   37  HIS37       0.1986
     32  NE2        8.6570  -14.7330    5.3240 N.ar   37  HIS37      -0.2212
     33  N         16.0500  -18.2860   -0.7850 N.3    56  PHE56      -0.1241
     34  CA        17.2040  -17.7060   -1.5070 C.3    56  PHE56       0.1605
     35  C         17.2030  -16.2250   -1.2290 C.2    56  PHE56       0.2264
     36  O         16.2390  -15.5260   -1.5800 O.2    56  PHE56      -0.2867
     37  CB        17.0720  -17.9670   -3.0460 C.3    56  PHE56       0.0534
     38  CG        18.2030  -17.3280   -3.8490 C.ar   56  PHE56      -0.0203
     39  CD1       19.5140  -17.7230   -3.5780 C.ar   56  PHE56      -0.0042
     40  CD2       17.9750  -16.2930   -4.8040 C.ar   56  PHE56      -0.0042
     41  CE1       20.5960  -17.1350   -4.2620 C.ar   56  PHE56      -0.0003
     42  CE2       19.0530  -15.6960   -5.4920 C.ar   56  PHE56      -0.0003
     43  CZ        20.3710  -16.1340   -5.2250 C.ar   56  PHE56      -0.0000
     44  N         18.1170  -12.9720   -2.2850 N.3    58  ASN58      -0.1240
     45  CA        18.3960  -12.5830   -3.6860 C.3    58  ASN58       0.1653
     46  C         19.1750  -11.2850   -3.7780 C.2    58  ASN58       0.2266
     47  O         18.5860  -10.2390   -3.5960 O.2    58  ASN58      -0.2867
     48  CB        17.0100  -12.4520   -4.3950 C.3    58  ASN58       0.1155
     49  CG        17.1430  -11.8840   -5.8120 C.2    58  ASN58       0.2627
     50  OD1       18.2330  -12.0290   -6.4230 O.2    58  ASN58      -0.2716
     51  ND2       16.1210  -11.1090   -6.2770 N.am   58  ASN58      -0.0877
     52  N         17.8650   -7.8480   -5.5470 N.3    61  GLN61      -0.1245
     53  CA        16.7670   -6.9730   -5.0880 C.3    61  GLN61       0.1566
     54  C         17.1230   -6.1480   -3.8610 C.2    61  GLN61       0.2260
     55  O         16.2780   -5.5060   -3.2990 O.2    61  GLN61      -0.2867
     56  CB        15.5160   -7.8180   -4.8120 C.3    61  GLN61       0.0367
     57  CG        15.6290   -8.7750   -3.5810 C.3    61  GLN61       0.0905
     58  CD        14.3210   -9.5740   -3.4710 C.2    61  GLN61       0.2608
     59  OE1       13.4540   -9.2610   -2.6330 O.2    61  GLN61      -0.2717
     60  NE2       14.1520  -10.5530   -4.3060 N.am   61  GLN61      -0.0878
     61  N         20.9670   -9.6770    6.1860 N.3    71  TYR71      -0.1241
     62  CA        19.6650  -10.3140    6.1380 C.3    71  TYR71       0.1605
     63  C         19.8390  -11.6240    6.8640 C.2    71  TYR71       0.2264
     64  O         20.8200  -12.3830    6.5570 O.2    71  TYR71      -0.2867
     65  CB        19.2110  -10.6120    4.7170 C.3    71  TYR71       0.0534
     66  CG        17.7290  -10.8870    4.6300 C.ar   71  TYR71      -0.0201
     67  CD1       16.8250   -9.8140    4.5580 C.ar   71  TYR71      -0.0009
     68  CD2       17.2230  -12.2120    4.6850 C.ar   71  TYR71      -0.0009
     69  CE1       15.4840  -10.0360    4.4730 C.ar   71  TYR71       0.0417
     70  CE2       15.8240  -12.4420    4.6030 C.ar   71  TYR71       0.0417
     71  CZ        14.9830  -11.3600    4.5370 C.ar   71  TYR71       0.1957
     72  OH        13.6160  -11.5090    4.4540 O.3    71  TYR71      -0.2866
     73  N         15.1220   -2.5830   -6.9830 N.3   115  HIS115     -0.1241
     74  CA        14.5020   -3.5980   -6.1430 C.3   115  HIS115      0.1621
     75  C         13.5660   -4.4880   -6.9520 C.2   115  HIS115      0.2264
     76  O         13.6640   -5.7220   -6.9120 O.2   115  HIS115     -0.2867
     77  CB        13.7070   -2.9550   -4.9790 C.3   115  HIS115      0.0745
     78  CG        12.9030   -3.9350   -4.2010 C.ar  115  HIS115      0.0817
     79  ND1       13.4930   -4.9090   -3.4280 N.ar  115  HIS115     -0.2268
     80  CD2       11.5550   -4.1320   -4.1040 C.ar  115  HIS115      0.1154
     81  CE1       12.5490   -5.6660   -2.8790 C.ar  115  HIS115      0.1986
     82  NE2       11.3610   -5.2070   -3.2670 N.ar  115  HIS115     -0.2212
     83  N         13.2950   -8.5770   -8.0430 N.3   119  VAL119     -0.1245
     84  CA        12.1700   -9.4680   -7.7380 C.3   119  VAL119      0.1561
     85  C         11.5830  -10.1550   -8.9740 C.2   119  VAL119      0.2260
     86  O         11.4450  -11.3780   -8.9680 O.2   119  VAL119     -0.2867
     87  CB        11.0640   -8.6770   -6.9660 C.3   119  VAL119      0.0252
     88  CG1        9.8120   -9.5810   -6.7200 C.3   119  VAL119      0.0019
     89  CG2       11.6040   -8.1380   -5.6290 C.3   119  VAL119      0.0019
     90  N         14.2360  -12.8080  -10.2580 N.3   122  ILE122     -0.1231
     91  CA        14.4590  -14.0730   -9.5100 C.3   122  ILE122      0.1692
     92  C         13.1550  -14.8890   -9.5390 C.2   122  ILE122      0.2591
     93  O         13.1800  -16.1140   -9.5930 O.2   122  ILE122     -0.2718
     94  CB        14.8670  -13.8410   -7.9790 C.3   122  ILE122      0.0266
     95  CG1       15.2620  -15.1910   -7.3280 C.3   122  ILE122      0.0019
     96  CG2       13.6900  -13.3330   -7.1650 C.3   122  ILE122      0.0020
     97  CD1       16.3380  -16.0140   -8.1200 C.3   122  ILE122      0.0001
     98  N         12.0130  -14.2100   -9.4940 N.am  123  VAL123     -0.1980
     99  CA        10.7900  -15.0020   -9.4780 C.3   123  VAL123      0.1595
    100  C         10.5610  -15.6640  -10.8330 C.2   123  VAL123      0.2287
    101  O         10.1440  -16.8040  -10.8590 O.2   123  VAL123     -0.2864
    102  CB         9.5520  -14.1390   -8.9900 C.3   123  VAL123      0.0276
    103  CG1        8.2040  -14.8720   -9.2240 C.3   123  VAL123      0.0022
    104  CG2        9.7710  -13.7000   -7.5260 C.3   123  VAL123      0.0022
    105  N         12.8620  -18.6670  -10.7480 N.3   126  LEU126     -0.1245
    106  CA        12.2920  -19.7740   -9.9150 C.3   126  LEU126      0.1561
    107  C         11.0860  -20.4600  -10.6350 C.2   126  LEU126      0.2260
    108  O         10.9780  -21.6770  -10.5900 O.2   126  LEU126     -0.2867
    109  CB        11.8590  -19.2530   -8.5450 C.3   126  LEU126      0.0270
    110  CG        12.9750  -18.7350   -7.6140 C.3   126  LEU126      0.0019
    111  CD1       12.2730  -17.9080   -6.4580 C.3   126  LEU126      0.0001
    112  CD2       13.8270  -19.9900   -7.1330 C.3   126  LEU126      0.0001
    113  N          2.0230  -15.9820   -2.6970 N.3   137  PHE137     -0.1241
    114  CA         2.6780  -14.7600   -2.2670 C.3   137  PHE137      0.1605
    115  C          1.8000  -14.0630   -1.2260 C.2   137  PHE137      0.2264
    116  O          0.5570  -14.1850   -1.2480 O.2   137  PHE137     -0.2867
    117  CB         2.9350  -13.7810   -3.4280 C.3   137  PHE137      0.0534
    118  CG         3.8470  -14.3530   -4.4660 C.ar  137  PHE137     -0.0203
    119  CD1        3.3110  -15.1570   -5.4670 C.ar  137  PHE137     -0.0042
    120  CD2        5.2320  -14.1820   -4.3640 C.ar  137  PHE137     -0.0042
    121  CE1        4.1370  -15.7610   -6.4430 C.ar  137  PHE137     -0.0003
    122  CE2        6.0780  -14.7530   -5.2820 C.ar  137  PHE137     -0.0003
    123  CZ         5.5320  -15.5520   -6.3700 C.ar  137  PHE137     -0.0000
    124  N          3.0140   -7.1680    0.8950 N.3   141  ASP141     -0.1239
    125  CA         3.8430   -6.4260   -0.0790 C.3   141  ASP141      0.1674
    126  C          3.0120   -6.3290   -1.3650 C.2   141  ASP141      0.2266
    127  O          3.1390   -7.1600   -2.3060 O.2   141  ASP141     -0.2867
    128  CB         5.1230   -7.1820   -0.3860 C.3   141  ASP141      0.1410
    129  CG         6.1190   -6.3350   -1.1660 C.2   141  ASP141      0.3668
    130  OD1        5.6940   -5.3470   -1.8020 O.co2 141  ASP141     -0.2456
    131  OD2        7.3250   -6.7060   -1.1680 O.co2 141  ASP141     -0.2456
    132  N          4.7010   -5.8790   -4.7100 N.3   144  GLN144     -0.1245
    133  CA         5.3160   -7.1060   -5.2060 C.3   144  GLN144      0.1566
    134  C          4.2430   -8.0180   -5.7800 C.2   144  GLN144      0.2260
    135  O          4.4470   -8.5650   -6.8310 O.2   144  GLN144     -0.2867
    136  CB         6.0620   -7.8240   -4.0700 C.3   144  GLN144      0.0367
    137  CG         6.3570   -9.2360   -4.4140 C.3   144  GLN144      0.0905
    138  CD         7.3110   -9.8380   -3.3960 C.2   144  GLN144      0.2608
    139  OE1        6.8880  -10.6140   -2.4860 O.2   144  GLN144     -0.2717
    140  NE2        8.5580   -9.5710   -3.5670 N.am  144  GLN144     -0.0878
@<TRIPOS>BOND
     1   101   100    2
     2   100    99    1
     3   105   106    1
     4   107   108    2
     5   107   106    1
     6    90    91    1
     7   106   109    1
     8    93    92    2
     9    92    91    1
    10    92    98   am
    11    91    94    1
    12    98    99    1
    13    99   102    1
    14   103   102    1
    15   102   104    1
    16    85    86    2
    17    85    84    1
    18   109   110    1
    19    97    95    1
    20    83    84    1
    21    94    95    1
    22    94    96    1
    23    84    87    1
    24   110   112    1
    25   110   111    1
    26    73    74    1
    27    87    88    1
    28    87    89    1
    29    75    76    2
    30    75    74    1
    31   135   134    2
    32   121   123   ar
    33   121   119   ar
    34    50    49    2
    35   123   122   ar
    36    51    49   am
    37    74    77    1
    38    49    48    1
    39   134   133    1
    40    52    53    1
    41    42    43   ar
    42    42    40   ar
    43   119   118   ar
    44   122   120   ar
    45    43    41   ar
    46   133   132    1
    47   133   136    1
    48    53    56    1
    49    53    54    1
    50    77    78    1
    51     6     7    1
    52     6     5    1
    53    56    57    1
    54    40    38   ar
    55   118   120   ar
    56   118   117    1
    57   137   136    1
    58   137   138    1
    59    48    45    1
    60    60    58   am
    61    41    39   ar
    62    78    80   ar
    63    78    79   ar
    64    80    82   ar
    65     7     1    1
    66     5     2    1
    67    54    55    2
    68    38    39   ar
    69    38    37    1
    70    46    45    1
    71    46    47    2
    72    45    44    1
    73    57    58    1
    74   140   138   am
    75    58    59    2
    76   117   114    1
    77    79    81   ar
    78   138   139    2
    79    82    81   ar
    80    37    34    1
    81     1     2    1
    82     2     3    1
    83   113   114    1
    84   127   126    2
    85   114   115    1
    86   130   129   ar
    87    36    35    2
    88    34    35    1
    89    34    33    1
    90     3     4    2
    91     3     8   am
    92   126   125    1
    93   116   115    2
    94   131   129   ar
    95   129   128    1
    96     8     9    1
    97    21    20    1
    98    21    22    1
    99    11    10    2
   100   128   125    1
   101    20    19    1
   102   125   124    1
   103    10     9    1
   104    10    15   am
   105     9    12    1
   106    15    16    1
   107    19    16    1
   108    16    17    1
   109    14    12    1
   110    12    13    1
   111    17    18    2
   112    72    71    1
   113    69    71   ar
   114    69    67   ar
   115    71    70   ar
   116    67    66   ar
   117    70    68   ar
   118    66    68   ar
   119    66    65    1
   120    65    62    1
   121    30    32   ar
   122    30    28   ar
   123    26    25    2
   124    32    31   ar
   125    28    27    1
   126    28    29   ar
   127    27    24    1
   128    62    61    1
   129    62    63    1
   130    25    24    1
   131    24    23    1
   132    64    63    2
   133    31    29   ar
