@<TRIPOS>MOLECULE
tmp/3gv4A00.pdb
 111 110 0 0 0
SMALL
GASTEIGER

@<TRIPOS>ATOM
      1  N        -10.5710    2.3710  -11.4430 N.3    35  TRP35      -0.1241
      2  CA       -11.4820    1.5630  -10.6570 C.3    35  TRP35       0.1605
      3  C        -12.7270    1.3110  -11.5060 C.2    35  TRP35       0.2264
      4  O        -13.0150    2.0860  -12.4280 O.2    35  TRP35      -0.2867
      5  CB       -11.8610    2.3240   -9.3790 C.3    35  TRP35       0.0550
      6  CG       -10.7100    2.5260   -8.4340 C.ar   35  TRP35       0.0003
      7  CD1       -9.6230    3.3400   -8.6200 C.ar   35  TRP35       0.0946
      8  CD2      -10.5320    1.9020   -7.1500 C.ar   35  TRP35       0.0152
      9  NE1       -8.7750    3.2560   -7.5350 N.ar   35  TRP35      -0.2442
     10  CE2       -9.3050    2.3810   -6.6210 C.ar   35  TRP35       0.0810
     11  CE3      -11.2900    0.9860   -6.3960 C.ar   35  TRP35       0.0012
     12  CZ2       -8.8140    1.9750   -5.3730 C.ar   35  TRP35       0.0191
     13  CZ3      -10.7940    0.5730   -5.1470 C.ar   35  TRP35       0.0001
     14  CH2       -9.5640    1.0730   -4.6540 C.ar   35  TRP35       0.0015
     15  N         -8.6670    6.7100   -9.9140 N.3    46  GLY46      -0.1210
     16  CA        -8.6860    6.7900   -8.4590 C.3    46  GLY46       0.1956
     17  C         -8.4070    8.1940   -7.9440 C.2    46  GLY46       0.2612
     18  O         -8.0480    9.0910   -8.7080 O.2    46  GLY46      -0.2717
     19  N         -8.5340    8.3570   -6.6280 N.am   47  ARG47      -0.1965
     20  CA        -8.5060    9.6840   -6.0020 C.3    47  ARG47       0.1729
     21  C         -7.0830   10.2560   -5.8880 C.2    47  ARG47       0.2616
     22  O         -6.9050   11.4300   -5.5580 O.2    47  ARG47      -0.2715
     23  CB        -9.1860    9.6170   -4.6300 C.3    47  ARG47       0.0348
     24  CG        -8.4450    8.7310   -3.6290 C.3    47  ARG47       0.0492
     25  CD        -9.3800    8.2250   -2.5290 C.3    47  ARG47       0.2205
     26  NE       -10.1690    9.3120   -1.9700 N.pl3  47  ARG47      -0.0865
     27  CZ       -11.3200    9.1720   -1.3220 C.cat  47  ARG47       0.5346
     28  NH1      -11.8540    7.9750   -1.1120 N.pl3  47  ARG47       0.1354
     29  NH2      -11.9350   10.2550   -0.8720 N.pl3  47  ARG47       0.1354
     30  N         -6.0890    9.4120   -6.1530 N.am   48  TYR48      -0.1974
     31  CA        -4.6750    9.8150   -6.1990 C.3    48  TYR48       0.1639
     32  C         -4.2280   10.1520   -7.6130 C.2    48  TYR48       0.2290
     33  O         -3.0680   10.5330   -7.8210 O.2    48  TYR48      -0.2864
     34  CB        -3.7760    8.7220   -5.6050 C.3    48  TYR48       0.0560
     35  CG        -4.0560    8.4910   -4.1400 C.ar   48  TYR48      -0.0198
     36  CD1       -3.3610    9.2010   -3.1490 C.ar   48  TYR48      -0.0009
     37  CD2       -5.0270    7.5710   -3.7380 C.ar   48  TYR48      -0.0009
     38  CE1       -3.6380    8.9940   -1.7940 C.ar   48  TYR48       0.0417
     39  CE2       -5.3130    7.3620   -2.3950 C.ar   48  TYR48       0.0417
     40  CZ        -4.6210    8.0690   -1.4330 C.ar   48  TYR48       0.1957
     41  OH        -4.9200    7.8530   -0.1140 O.3    48  TYR48      -0.2866
     42  N        -13.5110    8.6240  -10.1590 N.3    53  MET53      -0.1230
     43  CA       -14.4190    7.6690   -9.5080 C.3    53  MET53       0.1702
     44  C        -15.0900    8.3180   -8.2990 C.2    53  MET53       0.2592
     45  O        -16.2830    8.1070   -8.0560 O.2    53  MET53      -0.2718
     46  CB       -13.7440    6.3400   -9.1230 C.3    53  MET53       0.0401
     47  CG       -14.7680    5.2760   -8.6770 C.3    53  MET53       0.0596
     48  SD       -16.0310    4.9160   -9.9210 S.3    53  MET53      -0.1393
     49  CE       -15.1560    3.6860  -10.8850 C.3    53  MET53       0.0692
     50  N        -14.3230    9.1070   -7.5460 N.am   54  LEU54      -0.1980
     51  CA       -14.8850    9.8650   -6.4290 C.3    54  LEU54       0.1596
     52  C        -15.9900   10.8220   -6.9200 C.2    54  LEU54       0.2287
     53  O        -17.0640   10.9190   -6.3040 O.2    54  LEU54      -0.2864
     54  CB       -13.7710   10.6140   -5.6680 C.3    54  LEU54       0.0297
     55  CG       -14.1910   11.4890   -4.4760 C.3    54  LEU54       0.0022
     56  CD1      -14.9480   10.6930   -3.4030 C.3    54  LEU54       0.0001
     57  CD2      -12.9820   12.2460   -3.8680 C.3    54  LEU54       0.0001
     58  N        -16.6500    0.1670   -5.2390 N.3    65  VAL65      -0.1245
     59  CA       -15.8430    0.2500   -6.4480 C.3    65  VAL65       0.1561
     60  C        -14.6590   -0.7090   -6.3290 C.2    65  VAL65       0.2260
     61  O        -14.1790   -0.9630   -5.2250 O.2    65  VAL65      -0.2867
     62  CB       -15.3620    1.6970   -6.7110 C.3    65  VAL65       0.0252
     63  CG1      -16.5550    2.6260   -7.0380 C.3    65  VAL65       0.0019
     64  CG2      -14.5840    2.2580   -5.5110 C.3    65  VAL65       0.0019
     65  N        -13.5000   -0.9820   -2.4300 N.3    74  TRP74      -0.1241
     66  CA       -13.6650    0.1020   -1.4620 C.3    74  TRP74       0.1605
     67  C        -15.1280    0.5260   -1.3590 C.2    74  TRP74       0.2264
     68  O        -15.7950    0.6950   -2.3770 O.2    74  TRP74      -0.2867
     69  CB       -12.7960    1.2960   -1.8620 C.3    74  TRP74       0.0550
     70  CG       -12.8970    2.5090   -0.9790 C.ar   74  TRP74       0.0003
     71  CD1      -13.7010    3.6070   -1.1740 C.ar   74  TRP74       0.0946
     72  CD2      -12.1530    2.7650    0.2230 C.ar   74  TRP74       0.0152
     73  NE1      -13.5010    4.5240   -0.1630 N.ar   74  TRP74      -0.2442
     74  CE2      -12.5530    4.0390    0.7020 C.ar   74  TRP74       0.0810
     75  CE3      -11.1860    2.0460    0.9420 C.ar   74  TRP74       0.0012
     76  CZ2      -12.0280    4.6010    1.8780 C.ar   74  TRP74       0.0191
     77  CZ3      -10.6580    2.6090    2.1140 C.ar   74  TRP74       0.0001
     78  CH2      -11.0770    3.8750    2.5610 C.ar   74  TRP74       0.0015
     79  N        -17.3010    3.6510   -0.3340 N.3    76  TYR76      -0.1241
     80  CA       -17.2070    5.0820   -0.0550 C.3    76  TYR76       0.1605
     81  C        -17.9140    5.4750    1.2380 C.2    76  TYR76       0.2264
     82  O        -17.4330    6.3560    1.9440 O.2    76  TYR76      -0.2867
     83  CB       -17.7640    5.9050   -1.2060 C.3    76  TYR76       0.0534
     84  CG       -16.8540    6.0010   -2.4140 C.ar   76  TYR76      -0.0201
     85  CD1      -15.6750    6.7830   -2.3790 C.ar   76  TYR76      -0.0009
     86  CD2      -17.1840    5.3470   -3.6040 C.ar   76  TYR76      -0.0009
     87  CE1      -14.8460    6.8920   -3.4970 C.ar   76  TYR76       0.0417
     88  CE2      -16.3580    5.4480   -4.7370 C.ar   76  TYR76       0.0417
     89  CZ       -15.1980    6.2250   -4.6760 C.ar   76  TYR76       0.1957
     90  OH       -14.3950    6.3540   -5.7830 O.3    76  TYR76      -0.2866
     91  N        -16.1540    3.8510    4.1660 N.3    79  GLN79      -0.1245
     92  CA       -14.7920    4.3990    4.1270 C.3    79  GLN79       0.1566
     93  C        -13.7710    3.3390    4.5100 C.2    79  GLN79       0.2260
     94  O        -12.9110    3.5490    5.3900 O.2    79  GLN79      -0.2867
     95  CB       -14.6600    5.6140    5.0390 C.3    79  GLN79       0.0367
     96  CG       -15.6100    6.7560    4.7070 C.3    79  GLN79       0.0905
     97  CD       -15.4360    7.9150    5.6640 C.2    79  GLN79       0.2608
     98  OE1      -14.6860    8.8460    5.3800 O.2    79  GLN79      -0.2717
     99  NE2      -16.0960    7.8460    6.8200 N.am   79  GLN79      -0.0878
    100  N        -11.9930   -0.7490    2.9740 N.3    81  TYR81      -0.1241
    101  CA       -11.9800   -1.8980    2.0900 C.3    81  TYR81       0.1605
    102  C        -12.8840   -2.9960    2.6450 C.2    81  TYR81       0.2264
    103  O        -12.9110   -3.2480    3.8610 O.2    81  TYR81      -0.2867
    104  CB       -10.5560   -2.4140    1.9040 C.3    81  TYR81       0.0534
    105  CG        -9.6880   -1.4490    1.1280 C.ar   81  TYR81      -0.0201
    106  CD1       -9.8020   -1.3420   -0.2580 C.ar   81  TYR81      -0.0009
    107  CD2       -8.7650   -0.6410    1.7760 C.ar   81  TYR81      -0.0009
    108  CE1       -9.0060   -0.4540   -0.9730 C.ar   81  TYR81       0.0417
    109  CE2       -7.9690    0.2520    1.0680 C.ar   81  TYR81       0.0417
    110  CZ        -8.0890    0.3290   -0.3030 C.ar   81  TYR81       0.1957
    111  OH        -7.3000    1.2050   -1.0080 O.3    81  TYR81      -0.2866
@<TRIPOS>BOND
     1     4     3    2
     2     3     2    1
     3     1     2    1
     4    49    48    1
     5     2     5    1
     6    42    43    1
     7    48    47    1
     8    15    16    1
     9    43    46    1
    10    43    44    1
    11     5     6    1
    12    46    47    1
    13    18    17    2
    14     7     6   ar
    15     7     9   ar
    16    16    17    1
    17     6     8   ar
    18    44    45    2
    19    44    50   am
    20    17    19   am
    21    33    32    2
    22    32    31    1
    23    50    51    1
    24     9    10   ar
    25     8    10   ar
    26     8    11   ar
    27    63    62    1
    28    52    51    1
    29    52    53    2
    30    62    59    1
    31    62    64    1
    32    19    20    1
    33    10    12   ar
    34    59    60    1
    35    59    58    1
    36    51    54    1
    37    11    13   ar
    38    60    61    2
    39    31    30    1
    40    31    34    1
    41    30    21   am
    42    20    21    1
    43    20    23    1
    44    21    22    2
    45    90    89    1
    46    54    55    1
    47    34    35    1
    48    12    14   ar
    49    13    14   ar
    50    88    89   ar
    51    88    86   ar
    52    89    87   ar
    53    23    24    1
    54    55    57    1
    55    55    56    1
    56    35    37   ar
    57    35    36   ar
    58    37    39   ar
    59    24    25    1
    60    86    84   ar
    61    87    85   ar
    62    36    38   ar
    63    25    26    1
    64    65    66    1
    65    84    85   ar
    66    84    83    1
    67    39    40   ar
    68    68    67    2
    69    26    27    2
    70    69    66    1
    71    69    70    1
    72    38    40   ar
    73    66    67    1
    74    40    41    1
    75    27    28    1
    76    27    29    1
    77    83    80    1
    78    71    70   ar
    79    71    73   ar
    80   111   110    1
    81    70    72   ar
    82   108   110   ar
    83   108   106   ar
    84    79    80    1
    85   110   109   ar
    86   106   105   ar
    87    73    74   ar
    88    80    81    1
    89    72    74   ar
    90    72    75   ar
    91    74    76   ar
    92    75    77   ar
    93   109   107   ar
    94   105   107   ar
    95   105   104    1
    96    81    82    2
    97    76    78   ar
    98   104   101    1
    99   101   102    1
   100   101   100    1
   101    77    78   ar
   102   102   103    2
   103    92    91    1
   104    92    93    1
   105    92    95    1
   106    93    94    2
   107    96    95    1
   108    96    97    1
   109    98    97    2
   110    97    99   am
