@<TRIPOS>MOLECULE
tmp/3gv5A00.pdb
 142 137 0 0 0
SMALL
GASTEIGER

@<TRIPOS>ATOM
      1  N         70.2130   68.4160   33.9900 N.3     7  ASP7       -0.1225
      2  CA        70.5990   67.2540   34.7910 C.3     7  ASP7        0.1805
      3  C         71.3580   66.2710   33.8970 C.2     7  ASP7        0.2598
      4  O         70.7630   65.6880   32.9830 O.2     7  ASP7       -0.2718
      5  CB        69.3330   66.5850   35.3130 C.3     7  ASP7        0.1424
      6  CG        69.5970   65.5460   36.4200 C.2     7  ASP7        0.3668
      7  OD1       70.5760   64.7860   36.3640 O.co2   7  ASP7       -0.2456
      8  OD2       68.7810   65.4920   37.3390 O.co2   7  ASP7       -0.2456
      9  N         72.6590   66.0960   34.1360 N.am    8  LEU8       -0.1966
     10  CA        73.4760   65.2220   33.2650 C.3     8  LEU8        0.1728
     11  C         73.0860   63.7520   33.3830 C.2     8  LEU8        0.2616
     12  O         72.8240   63.2850   34.4700 O.2     8  LEU8       -0.2715
     13  CB        74.9590   65.3930   33.5760 C.3     8  LEU8        0.0311
     14  CG        75.7010   66.4780   32.7920 C.3     8  LEU8        0.0022
     15  CD1       74.7500   67.2560   31.9340 C.3     8  LEU8        0.0001
     16  CD2       76.3990   67.3710   33.7790 C.3     8  LEU8        0.0001
     17  N         73.0320   63.0300   32.2650 N.am    9  ASP9       -0.1957
     18  CA        72.7290   61.5840   32.3000 C.3     9  ASP9        0.1840
     19  C         73.8710   60.7530   32.9160 C.2     9  ASP9        0.2622
     20  O         75.0240   60.8930   32.5120 O.2     9  ASP9       -0.2715
     21  CB        72.5610   61.0360   30.8630 C.3     9  ASP9        0.1450
     22  CG        71.4240   61.7290   30.0780 C.2     9  ASP9        0.3671
     23  OD1       70.3290   61.9650   30.6260 O.co2   9  ASP9       -0.2456
     24  OD2       71.6300   62.0190   28.8990 O.co2   9  ASP9       -0.2456
     25  N         73.5030   59.7970   33.7990 N.am   10  CYS10      -0.1954
     26  CA        74.4890   58.9160   34.4830 C.3    10  CYS10       0.1843
     27  C         75.9030   59.5070   34.5350 C.2    10  CYS10       0.2625
     28  O         76.8310   58.9310   33.9760 O.2    10  CYS10      -0.2714
     29  CB        74.5250   57.5160   33.8590 C.3    10  CYS10       0.0997
     30  SG        74.8710   57.5570   32.0880 S.3    10  CYS10      -0.0797
     31  N         76.0590   60.6310   35.2460 N.am   11  PHE11      -0.1960
     32  CA        77.1890   61.5650   34.9970 C.3    11  PHE11       0.1771
     33  C         78.5760   60.9000   35.0960 C.2    11  PHE11       0.2619
     34  O         79.3570   60.9890   34.1600 O.2    11  PHE11      -0.2715
     35  CB        77.1150   62.7920   35.9300 C.3    11  PHE11       0.0574
     36  CG        78.2750   63.7660   35.7920 C.ar   11  PHE11      -0.0200
     37  CD1       78.5900   64.3480   34.5600 C.ar   11  PHE11      -0.0042
     38  CD2       79.0100   64.1450   36.9230 C.ar   11  PHE11      -0.0042
     39  CE1       79.6510   65.2480   34.4500 C.ar   11  PHE11      -0.0003
     40  CE2       80.0600   65.0620   36.8260 C.ar   11  PHE11      -0.0003
     41  CZ        80.3860   65.5970   35.5760 C.ar   11  PHE11      -0.0000
     42  N         78.8590   60.2540   36.2280 N.am   12  TYR12      -0.1974
     43  CA        80.1300   59.5580   36.4250 C.3    12  TYR12       0.1639
     44  C         80.3870   58.5370   35.3000 C.2    12  TYR12       0.2290
     45  O         81.4780   58.4720   34.7580 O.2    12  TYR12      -0.2864
     46  CB        80.1770   58.8610   37.8010 C.3    12  TYR12       0.0560
     47  CG        80.3060   59.7850   38.9990 C.ar   12  TYR12      -0.0198
     48  CD1       80.5930   59.2670   40.2700 C.ar   12  TYR12      -0.0009
     49  CD2       80.1570   61.1790   38.8740 C.ar   12  TYR12      -0.0009
     50  CE1       80.7190   60.0940   41.3820 C.ar   12  TYR12       0.0417
     51  CE2       80.2960   62.0210   40.0110 C.ar   12  TYR12       0.0417
     52  CZ        80.5660   61.4650   41.2440 C.ar   12  TYR12       0.1957
     53  OH        80.6920   62.2780   42.3510 O.3    12  TYR12      -0.2866
     54  N         82.6570   52.7260   44.1040 N.3    31  GLN31      -0.1245
     55  CA        83.3320   53.4010   45.2040 C.3    31  GLN31       0.1566
     56  C         83.2730   52.4720   46.4030 C.2    31  GLN31       0.2260
     57  O         82.2050   52.2280   46.9540 O.2    31  GLN31      -0.2867
     58  CB        82.6850   54.7600   45.5090 C.3    31  GLN31       0.0367
     59  CG        82.9300   55.8020   44.4070 C.3    31  GLN31       0.0905
     60  CD        82.3440   57.1630   44.7440 C.2    31  GLN31       0.2608
     61  OE1       81.4450   57.2830   45.5620 O.2    31  GLN31      -0.2717
     62  NE2       82.8780   58.1940   44.1280 N.am   31  GLN31      -0.0878
     63  N         78.0560   53.1580   42.5970 N.3    36  VAL36      -0.1231
     64  CA        77.3710   54.4170   42.8590 C.3    36  VAL36       0.1692
     65  C         76.4040   54.8480   41.7340 C.2    36  VAL36       0.2592
     66  O         75.3120   55.3580   42.0110 O.2    36  VAL36      -0.2718
     67  CB        78.3220   55.5450   43.3250 C.3    36  VAL36       0.0266
     68  CG1       78.9550   55.1620   44.7270 C.3    36  VAL36       0.0020
     69  CG2       79.3800   55.8620   42.2790 C.3    36  VAL36       0.0020
     70  N         76.7960   54.6080   40.4920 N.am   37  THR37      -0.1953
     71  CA        75.8980   54.8050   39.3670 C.3    37  THR37       0.1897
     72  C         76.3310   53.8560   38.2490 C.2    37  THR37       0.2313
     73  O         77.3590   53.1690   38.3610 O.2    37  THR37      -0.2863
     74  CB        75.8460   56.3050   38.8910 C.3    37  THR37       0.1794
     75  OG1       74.7890   56.4830   37.9230 O.3    37  THR37      -0.2208
     76  CG2       77.1800   56.7110   38.2970 C.3    37  THR37       0.0378
     77  N         72.9740   53.4210   31.0380 N.3    40  TYR40      -0.1241
     78  CA        71.6170   52.9540   30.7600 C.3    40  TYR40       0.1605
     79  C         71.5820   51.4970   30.3110 C.2    40  TYR40       0.2264
     80  O         70.6300   50.7870   30.6260 O.2    40  TYR40      -0.2867
     81  CB        70.8310   53.9410   29.8490 C.3    40  TYR40       0.0534
     82  CG        70.3200   55.0950   30.6940 C.ar   40  TYR40      -0.0201
     83  CD1       71.1960   56.1120   31.1260 C.ar   40  TYR40      -0.0009
     84  CD2       69.0020   55.1210   31.1550 C.ar   40  TYR40      -0.0009
     85  CE1       70.7600   57.1410   31.9580 C.ar   40  TYR40       0.0417
     86  CE2       68.5530   56.1620   31.9960 C.ar   40  TYR40       0.0417
     87  CZ        69.4380   57.1630   32.3900 C.ar   40  TYR40       0.1957
     88  OH        68.9990   58.1840   33.2100 O.3    40  TYR40      -0.2866
     89  N         71.3530   49.6690   33.6160 N.3    43  ARG43      -0.1245
     90  CA        69.9970   49.7950   34.1880 C.3    43  ARG43       0.1563
     91  C         68.9310   48.8780   33.5700 C.2    43  ARG43       0.2260
     92  O         68.0960   48.3380   34.2910 O.2    43  ARG43      -0.2867
     93  CB        69.5230   51.2550   34.1610 C.3    43  ARG43       0.0307
     94  CG        70.3310   52.1170   35.0770 C.3    43  ARG43       0.0489
     95  CD        69.9990   53.5980   34.9600 C.3    43  ARG43       0.2205
     96  NE        71.1450   54.4020   35.3930 N.pl3  43  ARG43      -0.0865
     97  CZ        71.0980   55.6950   35.7150 C.cat  43  ARG43       0.5346
     98  NH1       69.9430   56.3560   35.6800 N.pl3  43  ARG43       0.1354
     99  NH2       72.2080   56.3280   36.0850 N.pl3  43  ARG43       0.1354
    100  N         71.0900   52.3900   41.0560 N.3    49  LYS49      -0.1231
    101  CA        72.0330   53.3460   41.6550 C.3    49  LYS49       0.1693
    102  C         72.3130   52.9230   43.0810 C.2    49  LYS49       0.2591
    103  O         71.4170   52.4460   43.7650 O.2    49  LYS49      -0.2718
    104  CB        71.5010   54.7830   41.6510 C.3    49  LYS49       0.0285
    105  CG        71.3610   55.4300   40.2880 C.3    49  LYS49       0.0035
    106  CD        70.6420   56.7710   40.4330 C.3    49  LYS49       0.0206
    107  CE        69.6470   56.9960   39.2980 C.3    49  LYS49       0.1093
    108  NZ        69.3480   58.4500   39.1500 N.3    49  LYS49      -0.1314
    109  N         73.5610   53.0920   43.5170 N.am   50  LEU50      -0.1980
    110  CA        73.9820   52.8180   44.9030 C.3    50  LEU50       0.1596
    111  C         73.8070   51.3530   45.3320 C.2    50  LEU50       0.2287
    112  O         73.5390   51.0550   46.4910 O.2    50  LEU50      -0.2864
    113  CB        73.2640   53.7610   45.8760 C.3    50  LEU50       0.0297
    114  CG        73.6450   55.2430   45.7520 C.3    50  LEU50       0.0022
    115  CD1       72.5910   56.1060   46.4340 C.3    50  LEU50       0.0001
    116  CD2       75.0320   55.4560   46.3520 C.3    50  LEU50       0.0001
    117  N         76.2290   67.3510   39.1020 N.3    96  ASP96      -0.1225
    118  CA        75.6610   67.1720   37.7560 C.3    96  ASP96       0.1805
    119  C         74.3540   67.8820   37.4540 C.2    96  ASP96       0.2597
    120  O         73.7670   67.6570   36.3880 O.2    96  ASP96      -0.2718
    121  CB        75.5390   65.6930   37.4300 C.3    96  ASP96       0.1424
    122  CG        74.3330   65.0730   38.0580 C.2    96  ASP96       0.3668
    123  OD1       73.6820   64.2610   37.3690 O.co2  96  ASP96      -0.2456
    124  OD2       74.0050   65.4380   39.2060 O.co2  96  ASP96      -0.2456
    125  N         73.9120   68.7400   38.3630 N.am   97  GLU97      -0.1979
    126  CA        72.7090   69.5400   38.1430 C.3    97  GLU97       0.1602
    127  C         72.9900   71.0430   38.2230 C.2    97  GLU97       0.2287
    128  O         73.8040   71.4880   39.0530 O.2    97  GLU97      -0.2864
    129  CB        71.6190   69.1320   39.1380 C.3    97  GLU97       0.0415
    130  CG        71.1380   67.6700   38.8950 C.3    97  GLU97       0.1163
    131  CD        70.1600   67.1440   39.9310 C.2    97  GLU97       0.3649
    132  OE1       69.4070   67.9470   40.5180 O.co2  97  GLU97      -0.2457
    133  OE2       70.1540   65.9090   40.1360 O.co2  97  GLU97      -0.2457
    134  N         63.7570   60.4690   30.1410 N.3   181  LYS181     -0.1245
    135  CA        65.1820   60.2150   30.4110 C.3   181  LYS181      0.1561
    136  C         65.6270   59.0220   29.5680 C.2   181  LYS181      0.2260
    137  O         64.8270   58.1240   29.3460 O.2   181  LYS181     -0.2867
    138  CB        65.4050   59.7910   31.8740 C.3   181  LYS181      0.0271
    139  CG        65.0960   60.8040   32.9440 C.3   181  LYS181      0.0035
    140  CD        66.0890   60.7210   34.1160 C.3   181  LYS181      0.0206
    141  CE        66.0910   59.3770   34.8450 C.3   181  LYS181      0.1093
    142  NZ        66.8580   59.4610   36.1400 N.3   181  LYS181     -0.1314
@<TRIPOS>BOND
     1    24    22   ar
     2   137   136    2
     3   136   135    1
     4    81    82    1
     5    81    78    1
     6    22    23   ar
     7    22    21    1
     8   134   135    1
     9    79    80    2
    10    79    78    1
    11   135   138    1
    12    82    83   ar
    13    82    84   ar
    14    78    77    1
    15    21    18    1
    16    83    85   ar
    17    84    86   ar
    18   138   139    1
    19    15    14    1
    20    85    87   ar
    21    86    87   ar
    22    30    29    1
    23    17    18    1
    24    17    11   am
    25    18    19    1
    26    87    88    1
    27    20    19    2
    28    14    13    1
    29    14    16    1
    30    19    25   am
    31   139   140    1
    32     4     3    2
    33    10    11    1
    34    10    13    1
    35    10     9    1
    36    11    12    2
    37    91    90    1
    38    91    92    2
    39    89    90    1
    40    25    26    1
    41    29    26    1
    42     3     9   am
    43     3     2    1
    44    28    27    2
    45     1     2    1
    46   140   141    1
    47    34    33    2
    48    93    90    1
    49    93    94    1
    50    39    37   ar
    51    39    41   ar
    52    26    27    1
    53    27    31   am
    54    37    36   ar
    55    45    44    2
    56     2     5    1
    57   141   142    1
    58    95    94    1
    59    95    96    1
    60    32    33    1
    61    32    31    1
    62    32    35    1
    63    33    42   am
    64    44    43    1
    65     5     6    1
    66    96    97    2
    67    41    40   ar
    68    98    97    1
    69    97    99    1
    70    36    35    1
    71    36    38   ar
    72    42    43    1
    73     7     6   ar
    74   120   119    2
    75     6     8   ar
    76    43    46    1
    77    40    38   ar
    78   123   122   ar
    79   121   118    1
    80   121   122    1
    81   119   118    1
    82   119   125   am
    83   118   117    1
    84    46    47    1
    85    75    74    1
    86   122   124   ar
    87   126   127    1
    88   126   125    1
    89   126   129    1
    90   127   128    2
    91    72    73    2
    92    72    71    1
    93    76    74    1
    94    49    47   ar
    95    49    51   ar
    96    74    71    1
    97   130   129    1
    98   130   131    1
    99    47    48   ar
   100   108   107    1
   101   107   106    1
   102    71    70    1
   103   131   133   ar
   104   131   132   ar
   105    51    52   ar
   106    48    50   ar
   107   105   106    1
   108   105   104    1
   109    70    65   am
   110   100   101    1
   111    52    50   ar
   112    52    53    1
   113   104   101    1
   114   101   102    1
   115    65    66    2
   116    65    64    1
   117    69    67    1
   118    63    64    1
   119    64    67    1
   120   102   109   am
   121   102   103    2
   122    67    68    1
   123   109   110    1
   124    54    55    1
   125    62    60   am
   126    59    60    1
   127    59    58    1
   128    60    61    2
   129   110   111    1
   130   110   113    1
   131    55    58    1
   132    55    56    1
   133   111   112    2
   134   114   113    1
   135   114   116    1
   136   114   115    1
   137    56    57    2
