@<TRIPOS>MOLECULE
tmp/3gv9A03.pdb
 87 82 0 0 0
SMALL
GASTEIGER

@<TRIPOS>ATOM
      1  N        -12.0340    6.7920    2.6800 N.3    89  TYR89      -0.1227
      2  CA       -12.8640    5.7190    2.1180 C.3    89  TYR89       0.1736
      3  C        -13.9950    6.1980    1.2190 C.2    89  TYR89       0.2595
      4  O        -14.6290    5.3890    0.5390 O.2    89  TYR89      -0.2718
      5  CB       -13.3880    4.8110    3.2330 C.3    89  TYR89       0.0548
      6  CG       -12.2530    4.2800    4.0630 C.ar   89  TYR89      -0.0200
      7  CD1      -11.9120    4.8790    5.2750 C.ar   89  TYR89      -0.0009
      8  CD2      -11.4750    3.2190    3.6050 C.ar   89  TYR89      -0.0009
      9  CE1      -10.8420    4.4070    6.0270 C.ar   89  TYR89       0.0417
     10  CE2      -10.4050    2.7410    4.3520 C.ar   89  TYR89       0.0417
     11  CZ       -10.0990    3.3400    5.5590 C.ar   89  TYR89       0.1957
     12  OH        -9.0400    2.8670    6.2980 O.3    89  TYR89      -0.2866
     13  N        -14.2490    7.5050    1.2350 N.am   90  TRP90      -0.1976
     14  CA       -15.1850    8.1230    0.3030 C.3    90  TRP90       0.1640
     15  C        -14.5220    9.3720   -0.2790 C.2    90  TRP90       0.2290
     16  O        -14.8350   10.4980    0.1280 O.2    90  TRP90      -0.2864
     17  CB       -16.5210    8.4790    0.9700 C.3    90  TRP90       0.0576
     18  CG       -17.6710    8.5340   -0.0170 C.ar   90  TRP90       0.0006
     19  CD1      -17.5890    8.3980   -1.3770 C.ar   90  TRP90       0.0946
     20  CD2      -19.0610    8.7510    0.2780 C.ar   90  TRP90       0.0152
     21  NE1      -18.8360    8.5040   -1.9430 N.ar   90  TRP90      -0.2442
     22  CE2      -19.7580    8.7240   -0.9520 C.ar   90  TRP90       0.0810
     23  CE3      -19.7860    8.9650    1.4600 C.ar   90  TRP90       0.0012
     24  CZ2      -21.1470    8.8950   -1.0340 C.ar   90  TRP90       0.0191
     25  CZ3      -21.1670    9.1420    1.3780 C.ar   90  TRP90       0.0001
     26  CH2      -21.8320    9.1050    0.1370 C.ar   90  TRP90       0.0015
     27  N        -27.7580    6.3680   -5.0180 N.3   125  SER125     -0.1217
     28  CA       -26.4230    6.6110   -4.4780 C.3   125  SER125      0.1889
     29  C        -25.9030    8.0090   -4.8340 C.2   125  SER125      0.2288
     30  O        -25.1250    8.5870   -4.0770 O.2   125  SER125     -0.2866
     31  CB       -25.4370    5.5180   -4.9010 C.3   125  SER125      0.2089
     32  OG       -25.7810    4.9590   -6.1550 O.3   125  SER125     -0.2183
     33  N        -27.4060   10.2460   -2.3090 N.3   128  LEU128     -0.1245
     34  CA       -26.7170   10.0930   -1.0270 C.3   128  LEU128      0.1561
     35  C        -25.4360   10.9190   -0.9790 C.2   128  LEU128      0.2260
     36  O        -25.2050   11.6340   -0.0020 O.2   128  LEU128     -0.2867
     37  CB       -26.4390    8.6180   -0.7100 C.3   128  LEU128      0.0270
     38  CG       -26.0330    8.2930    0.7360 C.3   128  LEU128      0.0019
     39  CD1      -27.2110    8.4330    1.6930 C.3   128  LEU128      0.0001
     40  CD2      -25.4280    6.8960    0.8400 C.3   128  LEU128      0.0001
     41  N        -23.3560    5.6310    7.9170 N.3   154  LEU154     -0.1245
     42  CA       -22.2380    5.8740    7.0060 C.3   154  LEU154      0.1561
     43  C        -20.9750    5.1520    7.4940 C.2   154  LEU154      0.2260
     44  O        -20.2460    4.5590    6.6910 O.2   154  LEU154     -0.2867
     45  CB       -21.9920    7.3750    6.7890 C.3   154  LEU154      0.0270
     46  CG       -20.8560    7.7280    5.8090 C.3   154  LEU154      0.0019
     47  CD1      -21.0910    7.0840    4.4300 C.3   154  LEU154      0.0001
     48  CD2      -20.6740    9.2340    5.6790 C.3   154  LEU154      0.0001
     49  N        -21.1620    1.5040    6.4080 N.3   157  ALA157     -0.1231
     50  CA       -20.9440    1.3600    4.9730 C.3   157  ALA157      0.1694
     51  C        -19.4810    1.5290    4.5750 C.2   157  ALA157      0.2591
     52  O        -18.9860    0.8220    3.6880 O.2   157  ALA157     -0.2718
     53  CB       -21.8340    2.3360    4.1890 C.3   157  ALA157      0.0304
     54  N        -18.7920    2.4630    5.2230 N.am  158  LEU158     -0.1980
     55  CA       -17.4010    2.7480    4.8820 C.3   158  LEU158      0.1596
     56  C        -16.4330    1.7620    5.5270 C.2   158  LEU158      0.2287
     57  O        -15.4070    1.4200    4.9340 O.2   158  LEU158     -0.2864
     58  CB       -17.0210    4.1840    5.2380 C.3   158  LEU158      0.0297
     59  CG       -17.7700    5.3470    4.5840 C.3   158  LEU158      0.0022
     60  CD1      -17.1840    6.6300    5.1540 C.3   158  LEU158      0.0001
     61  CD2      -17.7170    5.3400    3.0380 C.3   158  LEU158      0.0001
     62  N        -15.4950   -1.1630    3.2970 N.3   161  LYS161     -0.1245
     63  CA       -14.9300   -0.9060    1.9600 C.3   161  LYS161      0.1561
     64  C        -13.6290   -1.6810    1.6610 C.2   161  LYS161      0.2260
     65  O        -13.5600   -2.3570    0.6340 O.2   161  LYS161     -0.2867
     66  CB       -14.7700    0.5930    1.6710 C.3   161  LYS161      0.0271
     67  CG       -16.0660    1.3850    1.6500 C.3   161  LYS161      0.0035
     68  CD       -17.0050    0.9720    0.5280 C.3   161  LYS161      0.0206
     69  CE       -18.2010    1.9190    0.4660 C.3   161  LYS161      0.1093
     70  NZ       -19.4060    1.3340   -0.1970 N.3   161  LYS161     -0.1314
     71  N        -29.1730    3.2990    3.9650 N.3   213  LEU213     -0.1245
     72  CA       -28.3720    2.8770    5.1200 C.3   213  LEU213      0.1561
     73  C        -29.2000    2.1630    6.1850 C.2   213  LEU213      0.2260
     74  O        -28.8480    2.1780    7.3710 O.2   213  LEU213     -0.2867
     75  CB       -27.5850    4.0590    5.7130 C.3   213  LEU213      0.0270
     76  CG       -26.6450    4.8110    4.7630 C.3   213  LEU213      0.0019
     77  CD1      -26.0720    6.0440    5.4520 C.3   213  LEU213      0.0001
     78  CD2      -25.5270    3.9130    4.2280 C.3   213  LEU213      0.0001
     79  N        -27.2620   -0.8380    7.9080 N.3   216  GLU216     -0.1245
     80  CA       -26.2100   -0.3500    8.7950 C.3   216  GLU216      0.1567
     81  C        -26.7580    0.2670   10.0780 C.2   216  GLU216      0.2260
     82  O        -26.1250    0.1820   11.1310 O.2   216  GLU216     -0.2867
     83  CB       -25.3350    0.6760    8.0590 C.3   216  GLU216      0.0388
     84  CG       -24.5320    0.1210    6.8640 C.3   216  GLU216      0.1160
     85  CD       -25.3150    0.0190    5.5510 C.2   216  GLU216      0.3649
     86  OE1      -26.5280    0.3210    5.5050 O.co2 216  GLU216     -0.2457
     87  OE2      -24.6990   -0.3820    4.5410 O.co2 216  GLU216     -0.2457
@<TRIPOS>BOND
     1    32    31    1
     2    27    28    1
     3    31    28    1
     4    29    28    1
     5    29    30    2
     6    33    34    1
     7    21    19   ar
     8    21    22   ar
     9    19    18   ar
    10    24    22   ar
    11    24    26   ar
    12    34    35    1
    13    34    37    1
    14    35    36    2
    15    22    20   ar
    16    37    38    1
    17    15    16    2
    18    15    14    1
    19    70    69    1
    20    18    20   ar
    21    18    17    1
    22    26    25   ar
    23    20    23   ar
    24    14    17    1
    25    14    13    1
    26    69    68    1
    27    68    67    1
    28     4     3    2
    29    65    64    2
    30    38    40    1
    31    38    39    1
    32     3    13   am
    33     3     2    1
    34    25    23   ar
    35    67    66    1
    36    64    63    1
    37    66    63    1
    38    63    62    1
    39     2     1    1
    40     2     5    1
    41    61    59    1
    42     5     6    1
    43     8     6   ar
    44     8    10   ar
    45    52    51    2
    46    71    72    1
    47     6     7   ar
    48    53    50    1
    49    78    76    1
    50    10    11   ar
    51    47    46    1
    52    87    85   ar
    53    51    50    1
    54    51    54   am
    55    59    60    1
    56    59    58    1
    57    76    77    1
    58    76    75    1
    59    55    54    1
    60    55    58    1
    61    55    56    1
    62    57    56    2
    63    50    49    1
    64    72    75    1
    65    72    73    1
    66     7     9   ar
    67    86    85   ar
    68    85    84    1
    69    11     9   ar
    70    11    12    1
    71    48    46    1
    72    46    45    1
    73    73    74    2
    74    44    43    2
    75    45    42    1
    76    84    83    1
    77    42    43    1
    78    42    41    1
    79    79    80    1
    80    83    80    1
    81    80    81    1
    82    81    82    2
