@<TRIPOS>MOLECULE
tmp/3gv9B00.pdb
 111 104 0 0 0
SMALL
GASTEIGER

@<TRIPOS>ATOM
      1  N         16.8980    0.0360   29.4200 N.3    61  SER61      -0.1217
      2  CA        15.6130    0.5770   28.9650 C.3    61  SER61       0.1889
      3  C         14.6380   -0.4190   28.3120 C.2    61  SER61       0.2288
      4  O         13.4590   -0.0980   28.1200 O.2    61  SER61      -0.2866
      5  CB        15.8380    1.7830   28.0590 C.3    61  SER61       0.2089
      6  OG        16.3040    2.8900   28.8140 O.3    61  SER61      -0.2183
      7  N         15.4350   13.4630   30.7580 N.3   116  LEU116     -0.1231
      8  CA        15.9770   12.1280   30.5110 C.3   116  LEU116      0.1693
      9  C         16.2210   11.3200   31.7880 C.2   116  LEU116      0.2591
     10  O         15.7910   10.1680   31.8840 O.2   116  LEU116     -0.2718
     11  CB        17.2730   12.2240   29.6950 C.3   116  LEU116      0.0284
     12  CG        17.9330   10.8910   29.3250 C.3   116  LEU116      0.0019
     13  CD1       17.0200   10.0510   28.4420 C.3   116  LEU116      0.0001
     14  CD2       19.2420   11.1510   28.6400 C.3   116  LEU116      0.0001
     15  N         16.9150   11.9250   32.7540 N.am  117  GLN117     -0.1979
     16  CA        17.2190   11.2680   34.0240 C.3   117  GLN117      0.1601
     17  C         16.5550   11.9900   35.1810 C.2   117  GLN117      0.2287
     18  O         16.4200   13.2140   35.1600 O.2   117  GLN117     -0.2864
     19  CB        18.7340   11.2580   34.3030 C.3   117  GLN117      0.0394
     20  CG        19.6320   10.7060   33.2000 C.3   117  GLN117      0.0908
     21  CD        19.4830    9.2120   32.9870 C.2   117  GLN117      0.2608
     22  OE1       18.9700    8.4860   33.8470 O.2   117  GLN117     -0.2717
     23  NE2       19.9330    8.7420   31.8270 N.am  117  GLN117     -0.0878
     24  N         12.1910   11.3590   24.9940 N.3   147  TYR147     -0.1241
     25  CA        12.5090   10.1270   25.7110 C.3   147  TYR147      0.1605
     26  C         13.0150   10.4510   27.1180 C.2   147  TYR147      0.2264
     27  O         13.9230   11.2680   27.2810 O.2   147  TYR147     -0.2867
     28  CB        13.5550    9.3320   24.9350 C.3   147  TYR147      0.0534
     29  CG        13.7940    7.9460   25.4680 C.ar  147  TYR147     -0.0201
     30  CD1       14.8310    7.6930   26.3640 C.ar  147  TYR147     -0.0009
     31  CD2       12.9920    6.8790   25.0640 C.ar  147  TYR147     -0.0009
     32  CE1       15.0630    6.4040   26.8500 C.ar  147  TYR147      0.0417
     33  CE2       13.2120    5.5920   25.5420 C.ar  147  TYR147      0.0417
     34  CZ        14.2490    5.3670   26.4380 C.ar  147  TYR147      0.1957
     35  OH        14.4740    4.1040   26.9050 O.3   147  TYR147     -0.2866
     36  N         13.3780    8.8810   31.3970 N.3   149  ASN149     -0.1240
     37  CA        13.2150    7.9670   32.5330 C.3   149  ASN149      0.1653
     38  C         12.2760    8.5330   33.5840 C.2   149  ASN149      0.2266
     39  O         11.5440    7.7860   34.2370 O.2   149  ASN149     -0.2867
     40  CB        14.5660    7.6530   33.1860 C.3   149  ASN149      0.1155
     41  CG        15.4220    6.7310   32.3480 C.2   149  ASN149      0.2627
     42  OD1       14.9200    5.9970   31.4960 O.2   149  ASN149     -0.2716
     43  ND2       16.7350    6.7620   32.5880 N.am  149  ASN149     -0.0877
     44  N         14.4450    1.2320   34.1780 N.3   218  TYR218     -0.1241
     45  CA        15.6270    0.5330   33.6620 C.3   218  TYR218      0.1605
     46  C         16.1490   -0.6150   34.5420 C.2   218  TYR218      0.2264
     47  O         17.3070   -1.0250   34.4070 O.2   218  TYR218     -0.2867
     48  CB        16.7600    1.5450   33.3860 C.3   218  TYR218      0.0534
     49  CG        17.1950    2.3680   34.5930 C.ar  218  TYR218     -0.0201
     50  CD1       18.1170    1.8650   35.5160 C.ar  218  TYR218     -0.0009
     51  CD2       16.7030    3.6600   34.7970 C.ar  218  TYR218     -0.0009
     52  CE1       18.5220    2.6200   36.6180 C.ar  218  TYR218      0.0417
     53  CE2       17.1050    4.4250   35.8890 C.ar  218  TYR218      0.0417
     54  CZ        18.0140    3.8990   36.7980 C.ar  218  TYR218      0.1957
     55  OH        18.4150    4.6520   37.8870 O.3   218  TYR218     -0.2866
     56  N         21.5300    7.7190   19.4750 N.3   286  ASN286     -0.1240
     57  CA        21.0910    8.5680   20.5860 C.3   286  ASN286      0.1653
     58  C         20.9260   10.0440   20.2560 C.2   286  ASN286      0.2266
     59  O         20.0770   10.7090   20.8490 O.2   286  ASN286     -0.2867
     60  CB        21.9940    8.3840   21.8070 C.3   286  ASN286      0.1155
     61  CG        21.6100    7.1730   22.6380 C.2   286  ASN286      0.2627
     62  OD1       20.5110    6.6240   22.5020 O.2   286  ASN286     -0.2716
     63  ND2       22.5120    6.7530   23.5110 N.am  286  ASN286     -0.0877
     64  N         17.1380   10.4190   21.5210 N.3   290  LEU290     -0.1245
     65  CA        16.9890   11.1670   22.7730 C.3   290  LEU290      0.1561
     66  C         16.6340   12.6350   22.5640 C.2   290  LEU290      0.2260
     67  O         16.4430   13.3820   23.5330 O.2   290  LEU290     -0.2867
     68  CB        18.2500   11.0330   23.6280 C.3   290  LEU290      0.0270
     69  CG        18.7480    9.6130   23.9170 C.3   290  LEU290      0.0019
     70  CD1       19.9790    9.6810   24.7970 C.3   290  LEU290      0.0001
     71  CD2       17.6720    8.7060   24.5410 C.3   290  LEU290      0.0001
     72  N         12.6860   -2.2920   20.9440 N.3   312  LYS312     -0.1231
     73  CA        13.1770   -1.4170   22.0040 C.3   312  LYS312      0.1693
     74  C         14.6690   -1.6530   22.2350 C.2   312  LYS312      0.2593
     75  O         15.1060   -2.7990   22.3990 O.2   312  LYS312     -0.2718
     76  CB        12.4050   -1.6560   23.3090 C.3   312  LYS312      0.0285
     77  CG        12.7060   -0.6540   24.4300 C.3   312  LYS312      0.0035
     78  CD        12.1760    0.7460   24.1350 C.3   312  LYS312      0.0206
     79  CE        12.5560    1.7340   25.2310 C.3   312  LYS312      0.1093
     80  NZ        13.9810    2.1730   25.1530 N.3   312  LYS312     -0.1314
     81  N         15.4350   -0.5630   22.2420 N.am  313  THR313     -0.1939
     82  CA        16.8370   -0.5820   22.6620 C.3   313  THR313      0.2028
     83  C         16.9230   -0.3150   24.1570 C.2   313  THR313      0.2643
     84  O         16.0770    0.3850   24.7240 O.2   313  THR313     -0.2714
     85  CB        17.6810    0.5040   21.9510 C.3   313  THR313      0.1808
     86  OG1       17.0870    1.7920   22.1600 O.3   313  THR313     -0.2208
     87  CG2       17.7890    0.2360   20.4620 C.3   313  THR313      0.0379
     88  N         17.9590   -0.8460   24.7900 N.am  314  GLY314     -0.1939
     89  CA        18.1670   -0.5850   26.2060 C.3   314  GLY314      0.2014
     90  C         19.6290   -0.6660   26.5660 C.2   314  GLY314      0.2639
     91  O         20.3610   -1.4870   26.0210 O.2   314  GLY314     -0.2714
     92  N         20.0490    0.1900   27.4890 N.am  315  ALA315     -0.1963
     93  CA        21.4150    0.1680   27.9870 C.3   315  ALA315      0.1728
     94  C         21.4750    0.5600   29.4550 C.2   315  ALA315      0.2616
     95  O         20.5730    1.2270   29.9740 O.2   315  ALA315     -0.2715
     96  CB        22.2980    1.0900   27.1610 C.3   315  ALA315      0.0334
     97  N         22.5240    0.0920   30.1200 N.am  316  THR316     -0.1951
     98  CA        22.9690    0.6480   31.3940 C.3   316  THR316      0.1897
     99  C         24.4280    1.0170   31.1740 C.2   316  THR316      0.2313
    100  O         24.9360    0.8650   30.0610 O.2   316  THR316     -0.2863
    101  CB        22.8680   -0.3610   32.5570 C.3   316  THR316      0.1794
    102  OG1       23.6900   -1.5030   32.2830 O.3   316  THR316     -0.2208
    103  CG2       21.4250   -0.7980   32.7900 C.3   316  THR316      0.0378
    104  N         23.8260    1.8310   19.6140 N.3   343  ASN343     -0.1240
    105  CA        22.5090    1.3730   19.1470 C.3   343  ASN343      0.1653
    106  C         22.4160    0.9520   17.6670 C.2   343  ASN343      0.2266
    107  O         21.8570   -0.1090   17.3780 O.2   343  ASN343     -0.2867
    108  CB        21.4200    2.4080   19.4640 C.3   343  ASN343      0.1155
    109  CG        21.0930    2.4840   20.9420 C.2   343  ASN343      0.2627
    110  OD1       21.1420    1.4830   21.6580 O.2   343  ASN343     -0.2716
    111  ND2       20.7510    3.6770   21.4060 N.am  343  ASN343     -0.0877
@<TRIPOS>BOND
     1   107   106    2
     2   106   105    1
     3   105   108    1
     4   105   104    1
     5   108   109    1
     6    56    57    1
     7    58    57    1
     8    58    59    2
     9    87    85    1
    10    57    60    1
    11   109   111   am
    12   109   110    2
    13    72    73    1
    14    64    65    1
    15    60    61    1
    16    85    86    1
    17    85    82    1
    18    73    74    1
    19    73    76    1
    20    74    81   am
    21    74    75    2
    22    81    82    1
    23    62    61    2
    24    66    65    1
    25    66    67    2
    26    61    63   am
    27    82    83    1
    28    65    68    1
    29    76    77    1
    30    68    69    1
    31    69    71    1
    32    69    70    1
    33    78    77    1
    34    78    79    1
    35    83    84    2
    36    83    88   am
    37    88    89    1
    38    28    29    1
    39    28    25    1
    40    24    25    1
    41    31    29   ar
    42    31    33   ar
    43    80    79    1
    44    29    30   ar
    45    33    34   ar
    46    25    26    1
    47    91    90    2
    48    89    90    1
    49    30    32   ar
    50    34    32   ar
    51    34    35    1
    52    90    92   am
    53    26    27    2
    54    96    93    1
    55    92    93    1
    56    93    94    1
    57     5     6    1
    58     5     2    1
    59     4     3    2
    60     3     2    1
    61    13    12    1
    62    14    12    1
    63     2     1    1
    64    12    11    1
    65    94    95    2
    66    94    97   am
    67    11     8    1
    68   100    99    2
    69    97    98    1
    70     8     7    1
    71     8     9    1
    72    99    98    1
    73    98   101    1
    74    36    37    1
    75    42    41    2
    76     9    10    2
    77     9    15   am
    78    23    21   am
    79   102   101    1
    80    41    43   am
    81    41    40    1
    82    37    40    1
    83    37    38    1
    84   101   103    1
    85    15    16    1
    86    21    20    1
    87    21    22    2
    88    20    19    1
    89    48    45    1
    90    48    49    1
    91    38    39    2
    92    45    44    1
    93    45    46    1
    94    16    19    1
    95    16    17    1
    96    47    46    2
    97    49    51   ar
    98    49    50   ar
    99    51    53   ar
   100    18    17    2
   101    50    52   ar
   102    53    54   ar
   103    52    54   ar
   104    54    55    1
