@<TRIPOS>MOLECULE
tmp/3gv9A02.pdb
 77 74 0 0 0
SMALL
GASTEIGER

@<TRIPOS>ATOM
      1  N        -33.8350   10.9400   -0.5440 N.3   122  VAL122     -0.1231
      2  CA       -32.6290   10.2850   -1.0260 C.3   122  VAL122      0.1692
      3  C        -33.0270    8.8900   -1.5100 C.2   122  VAL122      0.2592
      4  O        -33.4160    8.0340   -0.7100 O.2   122  VAL122     -0.2718
      5  CB       -31.5300   10.2230    0.0770 C.3   122  VAL122      0.0266
      6  CG1      -30.3540    9.3740   -0.3680 C.3   122  VAL122      0.0020
      7  CG2      -31.0550   11.6300    0.4490 C.3   122  VAL122      0.0020
      8  N        -32.9570    8.6870   -2.8240 N.am  123  LYS123     -0.1966
      9  CA       -33.3790    7.4300   -3.4440 C.3   123  LYS123      0.1728
     10  C        -32.1950    6.6700   -4.0270 C.2   123  LYS123      0.2617
     11  O        -32.1430    5.4400   -3.9600 O.2   123  LYS123     -0.2715
     12  CB       -34.4150    7.6800   -4.5510 C.3   123  LYS123      0.0311
     13  CG       -35.5110    8.7130   -4.2350 C.3   123  LYS123      0.0038
     14  CD       -36.3700    8.3310   -3.0280 C.3   123  LYS123      0.0206
     15  CE       -37.1900    7.0730   -3.2770 C.3   123  LYS123      0.1093
     16  NZ       -37.7850    6.5680   -2.0110 N.3   123  LYS123     -0.1314
     17  N        -31.2470    7.4110   -4.5950 N.am  124  SER124     -0.1936
     18  CA       -30.1230    6.8230   -5.3150 C.3   124  SER124      0.2055
     19  C        -28.8020    7.0740   -4.5990 C.2   124  SER124      0.2643
     20  O        -28.7310    7.8900   -3.6780 O.2   124  SER124     -0.2714
     21  CB       -30.0630    7.3900   -6.7360 C.3   124  SER124      0.2130
     22  OG       -29.8520    8.7920   -6.7100 O.3   124  SER124     -0.2179
     23  N        -27.7580    6.3680   -5.0180 N.am  125  SER125     -0.1949
     24  CA       -26.4230    6.6110   -4.4780 C.3   125  SER125      0.1924
     25  C        -25.9030    8.0090   -4.8340 C.2   125  SER125      0.2314
     26  O        -25.1250    8.5870   -4.0770 O.2   125  SER125     -0.2863
     27  CB       -25.4370    5.5180   -4.9010 C.3   125  SER125      0.2116
     28  OG       -25.7810    4.9590   -6.1550 O.3   125  SER125     -0.2180
     29  N        -27.4060   10.2460   -2.3090 N.3   128  LEU128     -0.1245
     30  CA       -26.7170   10.0930   -1.0270 C.3   128  LEU128      0.1561
     31  C        -25.4360   10.9190   -0.9790 C.2   128  LEU128      0.2260
     32  O        -25.2050   11.6340   -0.0020 O.2   128  LEU128     -0.2867
     33  CB       -26.4390    8.6180   -0.7100 C.3   128  LEU128      0.0270
     34  CG       -26.0330    8.2930    0.7360 C.3   128  LEU128      0.0019
     35  CD1      -27.2110    8.4330    1.6930 C.3   128  LEU128      0.0001
     36  CD2      -25.4280    6.8960    0.8400 C.3   128  LEU128      0.0001
     37  N        -37.8960   -0.2130    3.1770 N.3   210  PRO210     -0.2102
     38  CA       -36.5460    0.0710    2.6880 C.3   210  PRO210      0.1504
     39  C        -36.1730    1.5390    2.8650 C.2   210  PRO210      0.2576
     40  O        -37.0230    2.4170    2.7030 O.2   210  PRO210     -0.2718
     41  CB       -36.6400   -0.2700    1.1950 C.3   210  PRO210      0.0282
     42  CG       -37.7170   -1.2870    1.1210 C.3   210  PRO210      0.0208
     43  CD       -38.7250   -0.8510    2.1350 C.3   210  PRO210      0.0893
     44  N        -34.9160    1.7950    3.2200 N.am  211  GLY211     -0.1943
     45  CA       -34.3960    3.1650    3.3190 C.3   211  GLY211      0.2014
     46  C        -32.8950    3.1590    3.1470 C.2   211  GLY211      0.2639
     47  O        -32.2520    2.1180    3.3120 O.2   211  GLY211     -0.2714
     48  N        -32.3300    4.3110    2.7990 N.am  212  ALA212     -0.1963
     49  CA       -30.8760    4.4590    2.7090 C.3   212  ALA212      0.1728
     50  C        -30.2100    4.1300    4.0430 C.2   212  ALA212      0.2616
     51  O        -30.6420    4.6000    5.1050 O.2   212  ALA212     -0.2715
     52  CB       -30.5030    5.8700    2.2630 C.3   212  ALA212      0.0334
     53  N        -29.1730    3.2990    3.9650 N.am  213  LEU213     -0.1963
     54  CA       -28.3720    2.8770    5.1200 C.3   213  LEU213      0.1728
     55  C        -29.2000    2.1630    6.1850 C.2   213  LEU213      0.2616
     56  O        -28.8480    2.1780    7.3710 O.2   213  LEU213     -0.2715
     57  CB       -27.5850    4.0590    5.7130 C.3   213  LEU213      0.0311
     58  CG       -26.6450    4.8110    4.7630 C.3   213  LEU213      0.0022
     59  CD1      -26.0720    6.0440    5.4520 C.3   213  LEU213      0.0001
     60  CD2      -25.5270    3.9130    4.2280 C.3   213  LEU213      0.0001
     61  N        -30.2900    1.5260    5.7540 N.am  214  ASP214     -0.1971
     62  CA       -31.1330    0.7630    6.6750 C.3   214  ASP214      0.1709
     63  C        -30.4030   -0.4050    7.3300 C.2   214  ASP214      0.2293
     64  O        -30.4960   -0.5850    8.5440 O.2   214  ASP214     -0.2864
     65  CB       -32.4690    0.3170    6.0500 C.3   214  ASP214      0.1436
     66  CG       -32.3230   -0.4330    4.7260 C.2   214  ASP214      0.3671
     67  OD1      -31.2090   -0.7850    4.2840 O.co2 214  ASP214     -0.2456
     68  OD2      -33.3800   -0.6670    4.1090 O.co2 214  ASP214     -0.2456
     69  N        -27.2620   -0.8380    7.9080 N.3   216  GLU216     -0.1245
     70  CA       -26.2100   -0.3500    8.7950 C.3   216  GLU216      0.1567
     71  C        -26.7580    0.2670   10.0780 C.2   216  GLU216      0.2260
     72  O        -26.1250    0.1820   11.1310 O.2   216  GLU216     -0.2867
     73  CB       -25.3350    0.6760    8.0590 C.3   216  GLU216      0.0388
     74  CG       -24.5320    0.1210    6.8640 C.3   216  GLU216      0.1160
     75  CD       -25.3150    0.0190    5.5510 C.2   216  GLU216      0.3649
     76  OE1      -26.5280    0.3210    5.5050 O.co2 216  GLU216     -0.2457
     77  OE2      -24.6990   -0.3820    4.5410 O.co2 216  GLU216     -0.2457
@<TRIPOS>BOND
     1    21    22    1
     2    21    18    1
     3    28    27    1
     4    18    19    1
     5    18    17    1
     6    23    19   am
     7    23    24    1
     8    27    24    1
     9    25    24    1
    10    25    26    2
    11    19    20    2
    12    17    10   am
    13    12    13    1
    14    12     9    1
    15    13    14    1
    16    10    11    2
    17    10     9    1
    18     9     8    1
    19    15    14    1
    20    15    16    1
    21     8     3   am
    22    29    30    1
    23     3     2    1
    24     3     4    2
    25    30    31    1
    26    30    33    1
    27     2     1    1
    28     2     5    1
    29    31    32    2
    30    33    34    1
    31     6     5    1
    32     5     7    1
    33    34    36    1
    34    34    35    1
    35    42    41    1
    36    42    43    1
    37    41    38    1
    38    43    37    1
    39    52    49    1
    40    38    39    1
    41    38    37    1
    42    40    39    2
    43    49    48    1
    44    49    50    1
    45    48    46   am
    46    39    44   am
    47    46    47    2
    48    46    45    1
    49    44    45    1
    50    53    50   am
    51    53    54    1
    52    50    51    2
    53    68    66   ar
    54    60    58    1
    55    67    66   ar
    56    77    75   ar
    57    66    65    1
    58    58    59    1
    59    58    57    1
    60    54    57    1
    61    54    55    1
    62    76    75   ar
    63    75    74    1
    64    61    55   am
    65    61    62    1
    66    65    62    1
    67    55    56    2
    68    62    63    1
    69    74    73    1
    70    63    64    2
    71    69    70    1
    72    73    70    1
    73    70    71    1
    74    71    72    2
