@<TRIPOS>MOLECULE
tmp/3gvbA00.pdb
 142 134 0 0 0
SMALL
GASTEIGER

@<TRIPOS>ATOM
      1  N         12.6760   37.5780   28.6350 N.3    60  GLY60      -0.1210
      2  CA        12.4460   39.0060   28.8100 C.3    60  GLY60       0.1956
      3  C         11.0010   39.3320   28.4910 C.2    60  GLY60       0.2612
      4  O         10.0920   38.6440   28.9500 O.2    60  GLY60      -0.2717
      5  N         10.7970   40.3500   27.6600 N.am   61  SER61      -0.1952
      6  CA         9.4570   40.8480   27.3400 C.3    61  SER61       0.1924
      7  C          8.5840   39.9330   26.4760 C.2    61  SER61       0.2314
      8  O          7.4030   40.2260   26.2690 O.2    61  SER61      -0.2863
      9  CB         9.5450   42.2330   26.7090 C.3    61  SER61       0.2116
     10  OG         9.8160   43.2090   27.6990 O.3    61  SER61      -0.2180
     11  N          9.6960   51.4500   33.1660 N.3   117  GLN117     -0.1245
     12  CA        10.2270   50.5810   34.2070 C.3   117  GLN117      0.1566
     13  C          9.6940   51.0000   35.5700 C.2   117  GLN117      0.2260
     14  O          9.4720   52.1880   35.8250 O.2   117  GLN117     -0.2867
     15  CB        11.7570   50.6560   34.2190 C.3   117  GLN117      0.0367
     16  CG        12.4250   50.2380   32.9100 C.3   117  GLN117      0.0905
     17  CD        13.3850   51.2920   32.3820 C.2   117  GLN117      0.2608
     18  OE1       13.0690   52.4830   32.3580 O.2   117  GLN117     -0.2717
     19  NE2       14.5600   50.8550   31.9410 N.am  117  GLN117     -0.0878
     20  N          4.7720   51.8850   25.3520 N.3   147  TYR147     -0.1241
     21  CA         5.2350   50.5710   25.7830 C.3   147  TYR147      0.1605
     22  C          5.8640   50.6520   27.1700 C.2   147  TYR147      0.2264
     23  O          6.7740   51.4520   27.3920 O.2   147  TYR147     -0.2867
     24  CB         6.2410   50.0310   24.7670 C.3   147  TYR147      0.0534
     25  CG         6.7680   48.6590   25.0830 C.ar  147  TYR147     -0.0201
     26  CD1        8.0470   48.4920   25.6020 C.ar  147  TYR147     -0.0009
     27  CD2        5.9900   47.5250   24.8580 C.ar  147  TYR147     -0.0009
     28  CE1        8.5350   47.2350   25.8910 C.ar  147  TYR147      0.0417
     29  CE2        6.4700   46.2600   25.1440 C.ar  147  TYR147      0.0417
     30  CZ         7.7440   46.1220   25.6590 C.ar  147  TYR147      0.1957
     31  OH         8.2240   44.8700   25.9410 O.3   147  TYR147     -0.2866
     32  N          6.6150   48.3280   31.0980 N.3   149  ASN149     -0.1240
     33  CA         6.5370   47.2180   32.0530 C.3   149  ASN149      0.1653
     34  C          5.5070   47.4750   33.1470 C.2   149  ASN149      0.2266
     35  O          4.7670   46.5700   33.5300 O.2   149  ASN149     -0.2867
     36  CB         7.8960   46.9480   32.7140 C.3   149  ASN149      0.1155
     37  CG         8.9220   46.3700   31.7560 C.2   149  ASN149      0.2627
     38  OD1        8.5820   45.7980   30.7200 O.2   149  ASN149     -0.2716
     39  ND2       10.1950   46.5090   32.1120 N.am  149  ASN149     -0.0877
     40  N         18.9130   37.8600   34.9600 N.3   208  VAL208     -0.1245
     41  CA        17.9730   38.9310   35.2960 C.3   208  VAL208      0.1561
     42  C         17.8980   39.1400   36.8130 C.2   208  VAL208      0.2260
     43  O         17.8530   38.1760   37.5800 O.2   208  VAL208     -0.2867
     44  CB        16.5580   38.6740   34.6810 C.3   208  VAL208      0.0252
     45  CG1       15.8900   37.4350   35.2910 C.3   208  VAL208      0.0019
     46  CG2       15.6640   39.9060   34.8150 C.3   208  VAL208      0.0019
     47  N          8.4720   40.5420   32.5130 N.3   218  TYR218     -0.1241
     48  CA         9.6890   40.0600   31.8460 C.3   218  TYR218      0.1605
     49  C         10.3600   38.8320   32.4820 C.2   218  TYR218      0.2264
     50  O         11.5320   38.5560   32.2120 O.2   218  TYR218     -0.2867
     51  CB        10.7130   41.2030   31.7340 C.3   218  TYR218      0.0534
     52  CG        11.1050   41.8460   33.0550 C.ar  218  TYR218     -0.0201
     53  CD1       12.1020   41.2910   33.8610 C.ar  218  TYR218     -0.0009
     54  CD2       10.4900   43.0220   33.4890 C.ar  218  TYR218     -0.0009
     55  CE1       12.4650   41.8810   35.0680 C.ar  218  TYR218      0.0417
     56  CE2       10.8450   43.6190   34.6950 C.ar  218  TYR218      0.0417
     57  CZ        11.8330   43.0450   35.4790 C.ar  218  TYR218      0.1957
     58  OH        12.1890   43.6330   36.6720 O.3   218  TYR218     -0.2866
     59  N          9.0290   48.4690   18.9980 N.3   285  ASP285     -0.1225
     60  CA         9.8150   49.1180   20.0440 C.3   285  ASP285      0.1805
     61  C         11.1390   48.3690   20.1320 C.2   285  ASP285      0.2598
     62  O         11.2260   47.3240   20.7850 O.2   285  ASP285     -0.2718
     63  CB         9.0980   49.0570   21.3990 C.3   285  ASP285      0.1424
     64  CG         7.6900   49.6190   21.3500 C.2   285  ASP285      0.3668
     65  OD1        7.5360   50.8390   21.1200 O.co2 285  ASP285     -0.2456
     66  OD2        6.7360   48.8390   21.5590 O.co2 285  ASP285     -0.2456
     67  N         12.1630   48.8930   19.4660 N.am  286  ASN286     -0.1960
     68  CA        13.4470   48.1990   19.3650 C.3   286  ASN286      0.1819
     69  C         14.2380   48.1540   20.6760 C.2   286  ASN286      0.2621
     70  O         15.0440   47.2450   20.8920 O.2   286  ASN286     -0.2715
     71  CB        14.2890   48.7770   18.2230 C.3   286  ASN286      0.1195
     72  CG        13.6240   48.6060   16.8610 C.2   286  ASN286      0.2630
     73  OD1       13.0100   47.5760   16.5760 O.2   286  ASN286     -0.2716
     74  ND2       13.7510   49.6210   16.0140 N.am  286  ASN286     -0.0877
     75  N         13.9930   49.1350   21.5420 N.am  287  LYS287     -0.1963
     76  CA        14.6130   49.2100   22.8640 C.3   287  LYS287      0.1728
     77  C         13.5760   49.7250   23.8550 C.2   287  LYS287      0.2616
     78  O         12.6090   50.3820   23.4580 O.2   287  LYS287     -0.2715
     79  CB        15.8090   50.1720   22.8550 C.3   287  LYS287      0.0311
     80  CG        16.6820   50.1330   21.6000 C.3   287  LYS287      0.0038
     81  CD        17.9440   49.3030   21.7870 C.3   287  LYS287      0.0206
     82  CE        19.0870   50.1540   22.3220 C.3   287  LYS287      0.1093
     83  NZ        20.4140   49.4940   22.1230 N.3   287  LYS287     -0.1314
     84  N         13.7780   49.4350   25.1400 N.am  288  ILE288     -0.1977
     85  CA        12.9660   50.0420   26.1960 C.3   288  ILE288      0.1596
     86  C         13.3500   51.5240   26.3430 C.2   288  ILE288      0.2287
     87  O         14.0320   51.9310   27.2890 O.2   288  ILE288     -0.2864
     88  CB        13.0420   49.2430   27.5430 C.3   288  ILE288      0.0276
     89  CG1       12.0210   49.7610   28.5660 C.3   288  ILE288      0.0022
     90  CG2       14.4720   49.1610   28.0950 C.3   288  ILE288      0.0022
     91  CD1       10.6050   49.2450   28.3500 C.3   288  ILE288      0.0001
     92  N          6.6310   39.2550   19.0620 N.3   312  LYS312     -0.1231
     93  CA         7.0900   39.9500   20.2620 C.3   312  LYS312      0.1693
     94  C          8.6010   39.7880   20.4220 C.2   312  LYS312      0.2593
     95  O          9.1400   38.6900   20.2370 O.2   312  LYS312     -0.2718
     96  CB         6.3700   39.4340   21.5170 C.3   312  LYS312      0.0285
     97  CG         6.6320   40.2490   22.7890 C.3   312  LYS312      0.0035
     98  CD         5.9620   41.6210   22.7390 C.3   312  LYS312      0.0206
     99  CE         6.4270   42.5210   23.8770 C.3   312  LYS312      0.1093
    100  NZ         7.7920   43.0730   23.6420 N.3   312  LYS312     -0.1314
    101  N          9.2660   40.8960   20.7470 N.am  313  THR313     -0.1939
    102  CA        10.7010   40.9080   21.0540 C.3   313  THR313      0.2028
    103  C         10.8990   40.9190   22.5590 C.2   313  THR313      0.2643
    104  O         10.0300   41.3820   23.3020 O.2   313  THR313     -0.2714
    105  CB        11.4260   42.1630   20.5070 C.3   313  THR313      0.1808
    106  OG1       10.7530   43.3480   20.9550 O.3   313  THR313     -0.2208
    107  CG2       11.4890   42.1610   18.9980 C.3   313  THR313      0.0379
    108  N         12.0450   40.4150   23.0090 N.am  314  GLY314     -0.1939
    109  CA        12.3990   40.4270   24.4270 C.3   314  GLY314      0.2014
    110  C         13.9010   40.5100   24.5950 C.2   314  GLY314      0.2639
    111  O         14.6470   39.9220   23.8120 O.2   314  GLY314     -0.2714
    112  N         14.3460   41.2390   25.6160 N.am  315  ALA315     -0.1963
    113  CA        15.7730   41.4410   25.8440 C.3   315  ALA315      0.1728
    114  C         16.0980   41.8820   27.2670 C.2   315  ALA315      0.2616
    115  O         16.1010   43.0810   27.5720 O.2   315  ALA315     -0.2715
    116  CB        16.3340   42.4390   24.8370 C.3   315  ALA315      0.0334
    117  N         16.3700   40.9060   28.1340 N.am  316  THR316     -0.1951
    118  CA        16.9670   41.1830   29.4390 C.3   316  THR316      0.1897
    119  C         18.4070   41.6560   29.2230 C.2   316  THR316      0.2313
    120  O         18.8810   41.7120   28.0840 O.2   316  THR316     -0.2863
    121  CB        16.9680   39.9380   30.3550 C.3   316  THR316      0.1794
    122  OG1       17.6230   38.8510   29.6920 O.3   316  THR316     -0.2208
    123  CG2       15.5500   39.5270   30.7240 C.3   316  THR316      0.0378
    124  N         17.3710   44.5260   17.8850 N.3   343  ASN343     -0.1240
    125  CA        16.0990   43.9780   17.4200 C.3   343  ASN343      0.1653
    126  C         15.9450   43.9410   15.8930 C.2   343  ASN343      0.2266
    127  O         15.4290   42.9570   15.3580 O.2   343  ASN343     -0.2867
    128  CB        14.9150   44.7090   18.0640 C.3   343  ASN343      0.1155
    129  CG        13.6230   43.9130   17.9830 C.2   343  ASN343      0.2627
    130  OD1       13.6030   42.7070   18.2350 O.2   343  ASN343     -0.2716
    131  ND2       12.5340   44.5890   17.6390 N.am  343  ASN343     -0.0877
    132  N         17.1820   40.7460   14.5570 N.3   346  ARG346     -0.1245
    133  CA        16.2800   39.6320   14.8640 C.3   346  ARG346      0.1563
    134  C         15.1560   39.5660   13.8400 C.2   346  ARG346      0.2260
    135  O         14.8900   38.5090   13.2660 O.2   346  ARG346     -0.2867
    136  CB        15.6690   39.7720   16.2620 C.3   346  ARG346      0.0307
    137  CG        16.6490   40.1510   17.3430 C.3   346  ARG346      0.0489
    138  CD        16.0010   40.1560   18.7040 C.3   346  ARG346      0.2205
    139  NE        16.8270   40.8840   19.6600 N.pl3 346  ARG346     -0.0865
    140  CZ        16.5290   41.0580   20.9430 C.cat 346  ARG346      0.5346
    141  NH1       15.4150   40.5520   21.4540 N.pl3 346  ARG346      0.1354
    142  NH2       17.3550   41.7420   21.7210 N.pl3 346  ARG346      0.1354
@<TRIPOS>BOND
     1   135   134    2
     2   134   133    1
     3   132   133    1
     4   133   136    1
     5   127   126    2
     6   126   125    1
     7    74    72   am
     8   136   137    1
     9    73    72    2
    10    72    71    1
    11   137   138    1
    12   125   124    1
    13   125   128    1
    14   131   129   am
    15   129   128    1
    16   129   130    2
    17    71    68    1
    18   138   139    1
    19    59    60    1
    20   107   105    1
    21    92    93    1
    22    68    67    1
    23    68    69    1
    24    67    61   am
    25   139   140    2
    26    60    61    1
    27    60    63    1
    28    61    62    2
    29    95    94    2
    30    93    94    1
    31    93    96    1
    32    94   101   am
    33   105   106    1
    34   105   102    1
    35    69    70    2
    36    69    75   am
    37   101   102    1
    38   140   141    1
    39   140   142    1
    40   102   103    1
    41    65    64   ar
    42    64    63    1
    43    64    66   ar
    44    96    97    1
    45    75    76    1
    46    80    81    1
    47    80    79    1
    48    81    82    1
    49    83    82    1
    50   103   108   am
    51   103   104    2
    52    98    97    1
    53    98    99    1
    54    79    76    1
    55    76    77    1
    56   108   109    1
    57    78    77    2
    58   100    99    1
    59   111   110    2
    60    77    84   am
    61   109   110    1
    62   110   112   am
    63    24    25    1
    64    24    21    1
    65   116   113    1
    66    27    25   ar
    67    27    29   ar
    68    25    26   ar
    69    84    85    1
    70    29    30   ar
    71    20    21    1
    72    26    28   ar
    73   112   113    1
    74    30    28   ar
    75    30    31    1
    76    21    22    1
    77   113   114    1
    78    85    86    1
    79    85    88    1
    80     8     7    2
    81    86    87    2
    82     7     6    1
    83     9     6    1
    84     9    10    1
    85    22    23    2
    86   114   115    2
    87   114   117   am
    88     6     5    1
    89    88    90    1
    90    88    89    1
    91     5     3   am
    92   120   119    2
    93   117   118    1
    94    91    89    1
    95     3     2    1
    96     3     4    2
    97     1     2    1
    98   119   118    1
    99   118   121    1
   100   122   121    1
   101   121   123    1
   102    38    37    2
   103    32    33    1
   104    51    48    1
   105    51    52    1
   106    37    39   am
   107    37    36    1
   108    48    49    1
   109    48    47    1
   110    19    17   am
   111    33    36    1
   112    33    34    1
   113    50    49    2
   114    18    17    2
   115    17    16    1
   116    16    15    1
   117    52    54   ar
   118    52    53   ar
   119    34    35    2
   120    11    12    1
   121    54    56   ar
   122    53    55   ar
   123    12    15    1
   124    12    13    1
   125    44    46    1
   126    44    45    1
   127    44    41    1
   128    56    57   ar
   129    40    41    1
   130    55    57   ar
   131    41    42    1
   132    57    58    1
   133    13    14    2
   134    42    43    2
