@<TRIPOS>MOLECULE
tmp/3gvdC02.pdb
 103 95 0 0 0
SMALL
GASTEIGER

@<TRIPOS>ATOM
      1  N         23.1490  -20.4060    8.2470 N.3     1  ALA1       -0.1245
      2  CA        24.4580  -21.0300    8.3330 C.3     1  ALA1        0.1562
      3  C         25.4140  -20.3270    7.3830 C.2     1  ALA1        0.2260
      4  O         25.5440  -20.7040    6.2160 O.2     1  ALA1       -0.2867
      5  CB        24.3690  -22.5150    8.0130 C.3     1  ALA1        0.0290
      6  N         22.1990  -14.8670   15.0650 N.3    77  HIS77      -0.1241
      7  CA        21.8110  -15.4140   13.7700 C.3    77  HIS77       0.1621
      8  C         20.8320  -14.5010   13.0040 C.2    77  HIS77       0.2264
      9  O         20.6400  -14.6430   11.7940 O.2    77  HIS77      -0.2867
     10  CB        21.2660  -16.8410   13.9010 C.3    77  HIS77       0.0745
     11  CG        21.0030  -17.4910   12.5810 C.ar   77  HIS77       0.0817
     12  ND1       19.7430  -17.8690   12.1690 N.ar   77  HIS77      -0.2268
     13  CD2       21.8340  -17.7730   11.5490 C.ar   77  HIS77       0.1154
     14  CE1       19.8120  -18.3780   10.9530 C.ar   77  HIS77       0.1986
     15  NE2       21.0690  -18.3320   10.5540 N.ar   77  HIS77      -0.2212
     16  N         22.8460  -13.0030   10.3820 N.3    80  VAL80      -0.1245
     17  CA        23.1480  -13.9260    9.2990 C.3    80  VAL80       0.1561
     18  C         21.9490  -14.0030    8.3600 C.2    80  VAL80       0.2260
     19  O         22.0910  -13.8330    7.1440 O.2    80  VAL80      -0.2867
     20  CB        23.5040  -15.3430    9.8250 C.3    80  VAL80       0.0252
     21  CG1       23.4770  -16.3480    8.6960 C.3    80  VAL80       0.0019
     22  CG2       24.8610  -15.3340   10.4760 C.3    80  VAL80       0.0019
     23  N         21.9040  -13.5170    4.2660 N.3    84  ARG84      -0.1245
     24  CA        21.2400  -14.3850    3.2880 C.3    84  ARG84       0.1563
     25  C         20.1460  -13.6090    2.5260 C.2    84  ARG84       0.2260
     26  O         20.0160  -13.7260    1.3020 O.2    84  ARG84      -0.2867
     27  CB        20.6520  -15.6310    3.9650 C.3    84  ARG84       0.0307
     28  CG        21.6740  -16.6190    4.5240 C.3    84  ARG84       0.0489
     29  CD        22.5550  -17.2020    3.4410 C.3    84  ARG84       0.2205
     30  NE        23.2410  -18.4150    3.8850 N.pl3  84  ARG84      -0.0865
     31  CZ        24.2890  -18.9580    3.2610 C.cat  84  ARG84       0.5346
     32  NH1       24.8490  -20.0710    3.7310 N.pl3  84  ARG84       0.1354
     33  NH2       24.7810  -18.3890    2.1660 N.pl3  84  ARG84       0.1354
     34  N         21.6970  -11.3260   -0.0920 N.3    87  LEU87      -0.1231
     35  CA        22.1880  -12.1290   -1.1960 C.3    87  LEU87       0.1693
     36  C         21.0230  -12.5550   -2.0880 C.2    87  LEU87       0.2591
     37  O         21.0480  -12.3610   -3.3030 O.2    87  LEU87      -0.2718
     38  CB        22.9410  -13.3550   -0.6710 C.3    87  LEU87       0.0284
     39  CG        24.4590  -13.2720   -0.4760 C.3    87  LEU87       0.0019
     40  CD1       24.8800  -12.0300    0.3050 C.3    87  LEU87       0.0001
     41  CD2       24.9630  -14.5390    0.2070 C.3    87  LEU87       0.0001
     42  N         19.9950  -13.1360   -1.4890 N.am   88  ALA88      -0.1980
     43  CA        18.8470  -13.5550   -2.2860 C.3    88  ALA88       0.1597
     44  C         18.3310  -12.3810   -3.1310 C.2    88  ALA88       0.2287
     45  O         18.1080  -12.5260   -4.3270 O.2    88  ALA88      -0.2864
     46  CB        17.7540  -14.1340   -1.4100 C.3    88  ALA88       0.0319
     47  N         20.7180  -11.7500   -6.0900 N.3    91  LEU91      -0.1231
     48  CA        20.7340  -12.8520   -7.0480 C.3    91  LEU91       0.1693
     49  C         19.4510  -12.9530   -7.8610 C.2    91  LEU91       0.2591
     50  O         19.4980  -13.2040   -9.0680 O.2    91  LEU91      -0.2718
     51  CB        20.9680  -14.1870   -6.3340 C.3    91  LEU91       0.0284
     52  CG        22.3340  -14.8670   -6.3510 C.3    91  LEU91       0.0019
     53  CD1       23.4150  -13.8870   -6.7420 C.3    91  LEU91       0.0001
     54  CD2       22.6040  -15.4870   -4.9790 C.3    91  LEU91       0.0001
     55  N         18.3080  -12.7840   -7.1950 N.am   92  ARG92      -0.1980
     56  CA        16.9960  -13.0490   -7.8150 C.3    92  ARG92       0.1597
     57  C         16.3990  -11.8780   -8.6100 C.2    92  ARG92       0.2287
     58  O         15.7070  -12.0850   -9.5820 O.2    92  ARG92      -0.2864
     59  CB        16.0000  -13.5750   -6.7660 C.3    92  ARG92       0.0334
     60  CG        16.5090  -14.8370   -6.0700 C.3    92  ARG92       0.0492
     61  CD        15.7050  -15.2020   -4.8320 C.3    92  ARG92       0.2205
     62  NE        16.4150  -16.1780   -4.0020 N.pl3  92  ARG92      -0.0865
     63  CZ        16.0180  -16.5460   -2.7870 C.cat  92  ARG92       0.5346
     64  NH1       14.9030  -16.0370   -2.2750 N.pl3  92  ARG92       0.1354
     65  NH2       16.7240  -17.4230   -2.0800 N.pl3  92  ARG92       0.1354
     66  N         11.9310  -17.8910    7.7620 N.3   152  GLY152     -0.1210
     67  CA        13.3340  -18.1780    7.5440 C.3   152  GLY152      0.1956
     68  C         14.0870  -17.0310    6.8840 C.2   152  GLY152      0.2612
     69  O         13.6890  -15.8500    6.9790 O.2   152  GLY152     -0.2717
     70  N         15.1810  -17.3850    6.2080 N.am  153  CYS153     -0.1956
     71  CA        16.0330  -16.4110    5.5280 C.3   153  CYS153      0.1843
     72  C         16.3360  -16.8350    4.0860 C.2   153  CYS153      0.2626
     73  O         15.9220  -17.9090    3.6470 O.2   153  CYS153     -0.2714
     74  CB        17.3310  -16.1830    6.3100 C.3   153  CYS153      0.0997
     75  SG        18.3920  -17.6620    6.4840 S.3   153  CYS153     -0.0797
     76  N         17.0700  -15.9960    3.3600 N.am  154  GLY154     -0.1954
     77  CA        17.1410  -16.1310    1.9190 C.3   154  GLY154      0.1869
     78  C         15.7420  -15.8820    1.3810 C.2   154  GLY154      0.2309
     79  O         15.2740  -16.5340    0.4460 O.2   154  GLY154     -0.2863
     80  N         13.0320  -21.1890    4.2800 N.3   173  ASN173     -0.1225
     81  CA        14.1290  -20.5510    3.5640 C.3   173  ASN173      0.1785
     82  C         13.9090  -20.5280    2.0570 C.2   173  ASN173      0.2597
     83  O         13.2520  -21.4070    1.5090 O.2   173  ASN173     -0.2718
     84  CB        15.4500  -21.2690    3.8700 C.3   173  ASN173      0.1169
     85  CG        15.8830  -21.1160    5.3200 C.2   173  ASN173      0.2627
     86  OD1       15.4350  -20.2070    6.0290 O.2   173  ASN173     -0.2716
     87  ND2       16.7720  -22.0040    5.7670 N.am  173  ASN173     -0.0877
     88  N         14.4560  -19.5040    1.4060 N.am  174  ASP174     -0.1974
     89  CA        14.6100  -19.4740   -0.0500 C.3   174  ASP174      0.1709
     90  C         13.2690  -19.4010   -0.7400 C.2   174  ASP174      0.2293
     91  O         12.9770  -20.1500   -1.6670 O.2   174  ASP174     -0.2864
     92  CB        15.4260  -20.6720   -0.5280 C.3   174  ASP174      0.1436
     93  CG        16.8670  -20.6360   -0.0160 C.2   174  ASP174      0.3671
     94  OD1       17.2930  -19.5540    0.4460 O.co2 174  ASP174     -0.2456
     95  OD2       17.5670  -21.6800   -0.0800 O.co2 174  ASP174     -0.2456
     96  N         14.2970  -19.1190   -6.8650 N.3   255  LEU255     -0.1245
     97  CA        15.5910  -18.6360   -7.3410 C.3   255  LEU255      0.1561
     98  C         15.5400  -18.1690   -8.7930 C.2   255  LEU255      0.2260
     99  O         16.4270  -17.4430   -9.2500 O.2   255  LEU255     -0.2867
    100  CB        16.6510  -19.7240   -7.1950 C.3   255  LEU255      0.0270
    101  CG        16.6970  -20.4530   -5.8550 C.3   255  LEU255      0.0019
    102  CD1       17.7190  -21.5860   -5.9010 C.3   255  LEU255      0.0001
    103  CD2       17.0090  -19.4730   -4.7670 C.3   255  LEU255      0.0001
@<TRIPOS>BOND
     1    58    57    2
     2    99    98    2
     3    50    49    2
     4    98    97    1
     5    57    56    1
     6    49    55   am
     7    49    48    1
     8    56    55    1
     9    56    59    1
    10    97   100    1
    11    97    96    1
    12   100   101    1
    13    48    51    1
    14    48    47    1
    15    59    60    1
    16    53    52    1
    17    52    51    1
    18    52    54    1
    19    60    61    1
    20   102   101    1
    21   101   103    1
    22    61    62    1
    23    45    44    2
    24    62    63    2
    25    37    36    2
    26    44    43    1
    27    63    64    1
    28    63    65    1
    29    43    42    1
    30    43    46    1
    31    36    42   am
    32    36    35    1
    33    91    90    2
    34    35    38    1
    35    35    34    1
    36    90    89    1
    37    38    39    1
    38    92    89    1
    39    92    93    1
    40    39    41    1
    41    39    40    1
    42    95    93   ar
    43    89    88    1
    44    93    94   ar
    45    79    78    2
    46    26    25    2
    47    78    77    1
    48    88    82   am
    49    83    82    2
    50    77    76    1
    51    82    81    1
    52    33    31    1
    53    25    24    1
    54    31    32    1
    55    31    30    2
    56    24    27    1
    57    24    23    1
    58    76    72   am
    59    29    30    1
    60    29    28    1
    61    81    84    1
    62    81    80    1
    63    73    72    2
    64    84    85    1
    65    27    28    1
    66    72    71    1
    67    85    87   am
    68    85    86    2
    69    71    70    1
    70    71    74    1
    71    70    68   am
    72     4     3    2
    73    74    75    1
    74    68    69    2
    75    68    67    1
    76    19    18    2
    77     3     2    1
    78    67    66    1
    79     5     2    1
    80     1     2    1
    81    18    17    1
    82    21    20    1
    83    17    20    1
    84    17    16    1
    85    20    22    1
    86    15    14   ar
    87    15    13   ar
    88    14    12   ar
    89    13    11   ar
    90     9     8    2
    91    12    11   ar
    92    11    10    1
    93     8     7    1
    94     7    10    1
    95     7     6    1
