@<TRIPOS>MOLECULE
tmp/3gviB00.pdb
 165 159 0 0 0
SMALL
GASTEIGER

@<TRIPOS>ATOM
      1  N         14.8980   67.0670   49.5440 N.3     8  ILE8       -0.1231
      2  CA        14.2570   68.2590   50.0720 C.3     8  ILE8        0.1692
      3  C         14.1240   69.2840   48.9440 C.2     8  ILE8        0.2593
      4  O         15.0510   70.0580   48.6120 O.2     8  ILE8       -0.2718
      5  CB        14.9470   68.8590   51.3070 C.3     8  ILE8        0.0266
      6  CG1       15.2410   67.8020   52.3700 C.3     8  ILE8        0.0019
      7  CG2       14.0680   69.9810   51.8800 C.3     8  ILE8        0.0020
      8  CD1       14.1340   66.8900   52.7560 C.3     8  ILE8        0.0001
      9  N         12.9250   69.2530   48.3650 N.am    9  GLY9       -0.1942
     10  CA        12.6070   70.0270   47.1790 C.3     9  GLY9        0.2014
     11  C         12.3210   69.0900   46.0190 C.2     9  GLY9        0.2640
     12  O         13.1480   68.2310   45.6780 O.2     9  GLY9       -0.2714
     13  N         11.1530   69.2770   45.4140 N.am   10  SER10      -0.1935
     14  CA        10.6280   68.3680   44.3740 C.3    10  SER10       0.2055
     15  C         10.3780   69.0880   43.0700 C.2    10  SER10       0.2644
     16  O          9.4190   68.8200   42.3380 O.2    10  SER10      -0.2714
     17  CB         9.3740   67.7160   44.8950 C.3    10  SER10       0.2130
     18  OG         9.6600   67.0520   46.1240 O.3    10  SER10      -0.2179
     19  N         11.2490   70.0270   42.7850 N.am   11  GLY11      -0.1939
     20  CA        11.1820   70.7870   41.5510 C.3    11  GLY11       0.2014
     21  C         11.7790   70.0040   40.3970 C.2    11  GLY11       0.2639
     22  O         11.6930   68.7880   40.3650 O.2    11  GLY11      -0.2714
     23  N         12.4060   70.7080   39.4650 N.am   12  MET12      -0.1963
     24  CA        12.9930   70.0710   38.2740 C.3    12  MET12       0.1736
     25  C         14.1680   69.1530   38.5990 C.2    12  MET12       0.2616
     26  O         14.2520   68.0460   38.0730 O.2    12  MET12      -0.2715
     27  CB        13.4630   71.1230   37.2490 C.3    12  MET12       0.0427
     28  CG        12.4080   72.1060   36.7850 C.3    12  MET12       0.0599
     29  SD        11.0900   71.3580   35.7720 S.3    12  MET12      -0.1393
     30  CE        11.1090   69.5550   35.9030 C.3    12  MET12       0.0692
     31  N         15.0810   69.6270   39.4360 N.am   13  ILE13      -0.1963
     32  CA        16.2260   68.8240   39.8710 C.3    13  ILE13       0.1727
     33  C         15.7260   67.7310   40.8090 C.2    13  ILE13       0.2616
     34  O         16.0600   66.5570   40.6580 O.2    13  ILE13      -0.2715
     35  CB        17.3270   69.6820   40.5570 C.3    13  ILE13       0.0290
     36  CG1       17.9580   70.6270   39.5330 C.3    13  ILE13       0.0022
     37  CG2       18.4120   68.7980   41.1690 C.3    13  ILE13       0.0023
     38  CD1       19.0430   71.6060   40.0880 C.3    13  ILE13       0.0001
     39  N         14.9380   68.1120   41.7980 N.am   14  GLY14      -0.1955
     40  CA        14.3370   67.1130   42.7170 C.3    14  GLY14       0.1869
     41  C         13.7250   65.9030   42.0040 C.2    14  GLY14       0.2309
     42  O         13.9780   64.7590   42.3610 O.2    14  GLY14      -0.2863
     43  N         10.1890   65.5510   49.2950 N.3    32  PHE32      -0.1227
     44  CA         9.5820   66.4790   50.2160 C.3    32  PHE32       0.1736
     45  C          9.5190   67.8390   49.5500 C.2    32  PHE32       0.2595
     46  O         10.3960   68.1970   48.7820 O.2    32  PHE32      -0.2718
     47  CB        10.3730   66.5770   51.5270 C.3    32  PHE32       0.0547
     48  CG         9.9570   67.7360   52.4150 C.ar   32  PHE32      -0.0202
     49  CD1        9.0990   67.5300   53.4900 C.ar   32  PHE32      -0.0042
     50  CD2       10.4360   69.0150   52.1860 C.ar   32  PHE32      -0.0042
     51  CE1        8.7100   68.5960   54.2880 C.ar   32  PHE32      -0.0003
     52  CE2       10.0660   70.0920   52.9930 C.ar   32  PHE32      -0.0003
     53  CZ         9.1990   69.9000   54.0320 C.ar   32  PHE32      -0.0000
     54  N          8.4700   68.5960   49.8740 N.am   33  ASP33      -0.1960
     55  CA         8.2910   69.9390   49.3660 C.3    33  ASP33       0.1840
     56  C          7.2720   70.6770   50.2270 C.2    33  ASP33       0.2622
     57  O          6.5520   70.0790   51.0310 O.2    33  ASP33      -0.2715
     58  CB         7.8240   69.9050   47.9030 C.3    33  ASP33       0.1450
     59  CG         8.1950   71.1580   47.1350 C.2    33  ASP33       0.3671
     60  OD1        9.2650   71.1580   46.4840 O.co2  33  ASP33      -0.2456
     61  OD2        7.4360   72.1620   47.2090 O.co2  33  ASP33      -0.2456
     62  N          7.2510   71.9880   50.0600 N.am   34  ILE34      -0.1963
     63  CA         6.3110   72.8620   50.7250 C.3    34  ILE34       0.1727
     64  C          5.0320   72.8330   49.9010 C.2    34  ILE34       0.2616
     65  O          3.9480   73.0500   50.4270 O.2    34  ILE34      -0.2715
     66  CB         6.9220   74.2850   50.8070 C.3    34  ILE34       0.0290
     67  CG1        6.1520   75.2030   51.7390 C.3    34  ILE34       0.0022
     68  CG2        6.9490   74.9700   49.4580 C.3    34  ILE34       0.0023
     69  CD1        6.8450   76.6210   51.8600 C.3    34  ILE34       0.0001
     70  N          5.1500   72.5400   48.6090 N.am   35  ALA35      -0.1977
     71  CA         3.9990   72.5340   47.7230 C.3    35  ALA35       0.1597
     72  C          3.2340   71.2160   47.8460 C.2    35  ALA35       0.2287
     73  O          3.7850   70.1430   47.6340 O.2    35  ALA35      -0.2864
     74  CB         4.4270   72.8130   46.2540 C.3    35  ALA35       0.0319
     75  N          2.7130   68.2820   44.5040 N.3    38  THR38      -0.1218
     76  CA         3.8800   68.1410   43.6460 C.3    38  THR38       0.1862
     77  C          4.7230   66.8940   43.9750 C.2    38  THR38       0.2287
     78  O          4.8900   66.0200   43.1020 O.2    38  THR38      -0.2866
     79  CB         4.6690   69.4400   43.6320 C.3    38  THR38       0.1770
     80  OG1        3.7980   70.4580   43.1310 O.3    38  THR38      -0.2211
     81  CG2        5.8750   69.3730   42.7390 C.3    38  THR38       0.0375
     82  N          8.2810   67.1040   57.4220 N.3    65  TYR65      -0.1241
     83  CA         9.6520   66.6650   57.6380 C.3    65  TYR65       0.1605
     84  C          9.7820   65.3220   58.3030 C.2    65  TYR65       0.2264
     85  O         10.7960   64.6480   58.1530 O.2    65  TYR65      -0.2867
     86  CB        10.4230   67.7170   58.4410 C.3    65  TYR65       0.0534
     87  CG        10.9650   68.8080   57.5780 C.ar   65  TYR65      -0.0201
     88  CD1       12.0200   68.5560   56.6960 C.ar   65  TYR65      -0.0009
     89  CD2       10.4310   70.0890   57.6190 C.ar   65  TYR65      -0.0009
     90  CE1       12.5300   69.5660   55.8570 C.ar   65  TYR65       0.0417
     91  CE2       10.9340   71.1160   56.7910 C.ar   65  TYR65       0.0417
     92  CZ        11.9840   70.8440   55.9090 C.ar   65  TYR65       0.1957
     93  OH        12.4770   71.8370   55.0730 O.3    65  TYR65      -0.2866
     94  N         17.4630   70.8840   47.2900 N.3    77  THR77      -0.1203
     95  CA        17.2890   71.8230   46.1810 C.3    77  THR77       0.1994
     96  C         16.2670   72.8830   46.5580 C.2    77  THR77       0.2618
     97  O         15.9970   73.7650   45.7890 O.2    77  THR77      -0.2717
     98  CB        16.7050   71.1320   44.9500 C.3    77  THR77       0.1784
     99  OG1       15.5190   70.3820   45.3250 O.3    77  THR77      -0.2211
    100  CG2       17.7200   70.2610   44.3360 C.3    77  THR77       0.0376
    101  N         15.6850   72.7530   47.7440 N.am   78  ALA78      -0.1965
    102  CA        14.6820   73.6780   48.2560 C.3    78  ALA78       0.1728
    103  C         15.1880   75.1300   48.2000 C.2    78  ALA78       0.2617
    104  O         16.2600   75.4450   48.6970 O.2    78  ALA78      -0.2715
    105  CB        14.2740   73.2940   49.6970 C.3    78  ALA78       0.0334
    106  N         14.3760   75.9940   47.5980 N.am   79  GLY79      -0.1940
    107  CA        14.6710   77.4230   47.5110 C.3    79  GLY79       0.2014
    108  C         13.8370   78.0640   46.4220 C.2    79  GLY79       0.2639
    109  O         12.9670   77.4210   45.8540 O.2    79  GLY79      -0.2714
    110  N         14.1080   79.3340   46.1310 N.am   80  VAL80      -0.1963
    111  CA        13.3830   80.0490   45.0890 C.3    80  VAL80       0.1712
    112  C         14.3780   80.4140   44.0190 C.2    80  VAL80       0.2458
    113  O         15.5660   80.5360   44.3110 O.2    80  VAL80      -0.2730
    114  CB        12.6740   81.3160   45.6040 C.3    80  VAL80       0.0289
    115  CG1       11.8150   80.9940   46.8350 C.3    80  VAL80       0.0023
    116  CG2       13.6810   82.3890   45.8840 C.3    80  VAL80       0.0023
    117  N         13.9050   80.5600   42.7710 N.am   81  PRO81      -0.2727
    118  CA        14.8090   80.8700   41.6560 C.3    81  PRO81       0.1402
    119  C         15.2020   82.3400   41.5670 C.2    81  PRO81       0.2269
    120  O         14.5340   83.2170   42.1390 O.2    81  PRO81      -0.2865
    121  CB        14.0140   80.4360   40.4090 C.3    81  PRO81       0.0296
    122  CG        12.5620   80.4660   40.8200 C.3    81  PRO81       0.0237
    123  CD        12.4940   80.4620   42.3450 C.3    81  PRO81       0.0939
    124  N         14.9790   79.5200   53.9360 N.3    93  VAL93      -0.1245
    125  CA        14.7250   78.1380   53.5870 C.3    93  VAL93       0.1561
    126  C         15.7660   77.1970   54.2140 C.2    93  VAL93       0.2260
    127  O         15.4090   76.1940   54.8080 O.2    93  VAL93      -0.2867
    128  CB        14.6760   77.9650   52.0480 C.3    93  VAL93       0.0252
    129  CG1       14.5660   76.4910   51.6680 C.3    93  VAL93       0.0019
    130  CG2       13.5380   78.7790   51.4790 C.3    93  VAL93       0.0019
    131  N         14.9150   76.3840   57.7850 N.3    96  GLN96      -0.1231
    132  CA        13.8380   75.3830   57.9290 C.3    96  GLN96       0.1698
    133  C         14.3520   74.0000   57.6830 C.2    96  GLN96       0.2592
    134  O         14.0670   73.0940   58.4650 O.2    96  GLN96      -0.2718
    135  CB        12.6860   75.6050   56.9430 C.3    96  GLN96       0.0381
    136  CG        11.7720   76.7350   57.2570 C.3    96  GLN96       0.0905
    137  CD        10.7660   76.9430   56.1320 C.2    96  GLN96       0.2608
    138  OE1       10.6050   78.0610   55.6340 O.2    96  GLN96      -0.2717
    139  NE2       10.1020   75.8580   55.7090 N.am   96  GLN96      -0.0878
    140  N         15.0910   73.8550   56.5810 N.am   97  VAL97      -0.1980
    141  CA        15.6110   72.5660   56.1380 C.3    97  VAL97       0.1595
    142  C         16.5800   72.0180   57.1630 C.2    97  VAL97       0.2287
    143  O         16.4410   70.8620   57.5910 O.2    97  VAL97      -0.2864
    144  CB        16.2700   72.6480   54.7190 C.3    97  VAL97       0.0276
    145  CG1       16.9250   71.3250   54.3820 C.3    97  VAL97       0.0022
    146  CG2       15.2070   73.0170   53.6070 C.3    97  VAL97       0.0022
    147  N         22.2550   71.7770   47.1160 N.3   113  ILE113     -0.1245
    148  CA        22.3400   72.2820   45.7360 C.3   113  ILE113      0.1561
    149  C         21.8350   73.7150   45.6810 C.2   113  ILE113      0.2260
    150  O         22.2560   74.4780   44.8240 O.2   113  ILE113     -0.2867
    151  CB        21.5830   71.3650   44.7200 C.3   113  ILE113      0.0252
    152  CG1       22.1270   69.9290   44.7530 C.3   113  ILE113      0.0019
    153  CG2       21.6640   71.9410   43.2640 C.3   113  ILE113      0.0019
    154  CD1       21.3430   68.9250   43.9500 C.3   113  ILE113      0.0001
    155  N         16.5010   76.8520   34.5710 N.3   224  SER224     -0.1202
    156  CA        17.9350   76.5440   34.5460 C.3   224  SER224      0.2020
    157  C         18.1970   75.0590   34.3450 C.2   224  SER224      0.2618
    158  O         17.2590   74.2720   34.2670 O.2   224  SER224     -0.2717
    159  CB        18.5610   77.0610   35.8270 C.3   224  SER224      0.2103
    160  OG        17.6740   76.8000   36.8800 O.3   224  SER224     -0.2182
    161  N         19.4640   74.6930   34.2050 N.am  225  ALA225     -0.1979
    162  CA        19.8690   73.3130   34.0160 C.3   225  ALA225      0.1597
    163  C         19.2970   72.3790   35.1120 C.2   225  ALA225      0.2287
    164  O         19.2410   72.7390   36.2780 O.2   225  ALA225     -0.2864
    165  CB        21.3960   73.2230   33.9930 C.3   225  ALA225      0.0319
@<TRIPOS>BOND
     1   165   162    1
     2   162   161    1
     3   162   163    1
     4   161   157   am
     5   158   157    2
     6   157   156    1
     7   156   155    1
     8   156   159    1
     9   163   164    2
    10    29    30    1
    11    29    28    1
    12   159   160    1
    13    28    27    1
    14    27    24    1
    15    26    25    2
    16    24    25    1
    17    24    23    1
    18    25    31   am
    19    31    32    1
    20    23    21   am
    21    36    38    1
    22    36    35    1
    23    32    35    1
    24    32    33    1
    25    22    21    2
    26    21    20    1
    27   121   122    1
    28   121   118    1
    29    35    37    1
    30    34    33    2
    31    33    39   am
    32   122   123    1
    33    20    19    1
    34   119   118    1
    35   119   120    2
    36   118   117    1
    37    39    40    1
    38    41    42    2
    39    41    40    1
    40    16    15    2
    41   123   117    1
    42    81    79    1
    43   117   112   am
    44    19    15   am
    45    15    14    1
    46    78    77    2
    47    80    79    1
    48   153   151    1
    49    79    76    1
    50    76    77    1
    51    76    75    1
    52   154   152    1
    53   112   113    2
    54   112   111    1
    55   100    98    1
    56    14    17    1
    57    14    13    1
    58   151   152    1
    59   151   148    1
    60   150   149    2
    61    17    18    1
    62    98    99    1
    63    98    95    1
    64   111   114    1
    65   111   110    1
    66    13    11   am
    67   114   116    1
    68   114   115    1
    69    12    11    2
    70   149   148    1
    71   148   147    1
    72    97    96    2
    73   109   108    2
    74    11    10    1
    75   110   108   am
    76    95    96    1
    77    95    94    1
    78    74    71    1
    79   108   107    1
    80    60    59   ar
    81    96   101   am
    82    59    61   ar
    83    59    58    1
    84    10     9    1
    85   107   106    1
    86   106   103   am
    87    73    72    2
    88    71    72    1
    89    71    70    1
    90   101   102    1
    91    58    55    1
    92   103   102    1
    93   103   104    2
    94   102   105    1
    95     9     3   am
    96    70    64   am
    97     4     3    2
    98    46    45    2
    99     3     2    1
   100    43    44    1
   101    55    54    1
   102    55    56    1
   103    68    66    1
   104     1     2    1
   105    45    54   am
   106    45    44    1
   107    64    65    2
   108    64    63    1
   109    62    56   am
   110    62    63    1
   111     2     5    1
   112    44    47    1
   113    56    57    2
   114    63    66    1
   115    66    67    1
   116     5     7    1
   117     5     6    1
   118   130   128    1
   119    47    48    1
   120   129   128    1
   121    67    69    1
   122   128   125    1
   123    50    48   ar
   124    50    52   ar
   125     6     8    1
   126    48    49   ar
   127    52    53   ar
   128    49    51   ar
   129   125   124    1
   130   125   126    1
   131   146   144    1
   132    53    51   ar
   133   126   127    2
   134   145   144    1
   135   144   141    1
   136    93    92    1
   137   138   137    2
   138   139   137   am
   139    90    92   ar
   140    90    88   ar
   141    92    91   ar
   142   137   136    1
   143   141   140    1
   144   141   142    1
   145   140   133   am
   146    88    87   ar
   147    91    89   ar
   148   135   136    1
   149   135   132    1
   150   142   143    2
   151    82    83    1
   152    87    89   ar
   153    87    86    1
   154    83    84    1
   155    83    86    1
   156   133   132    1
   157   133   134    2
   158   131   132    1
   159    85    84    2
