@<TRIPOS>MOLECULE
tmp/3gvjA00.pdb
 77 70 0 0 0
SMALL
GASTEIGER

@<TRIPOS>ATOM
      1  N         64.7970   46.5420  -43.4630 N.3   597  ARG597     -0.1245
      2  CA        64.5950   45.2900  -44.1520 C.3   597  ARG597      0.1563
      3  C         64.5940   44.0970  -43.1680 C.2   597  ARG597      0.2260
      4  O         65.0010   44.2100  -42.0830 O.2   597  ARG597     -0.2867
      5  CB        65.6770   45.0610  -45.2210 C.3   597  ARG597      0.0307
      6  CG        67.0820   44.8850  -44.6670 C.3   597  ARG597      0.0489
      7  CD        68.1460   45.2120  -45.6890 C.3   597  ARG597      0.2205
      8  NE        69.5020   44.8380  -45.2860 N.pl3 597  ARG597     -0.0865
      9  CZ        70.2800   45.5110  -44.4460 C.cat 597  ARG597      0.5346
     10  NH1       69.8620   46.6050  -43.8780 N.pl3 597  ARG597      0.1354
     11  NH2       71.4770   45.0910  -44.1870 N.pl3 597  ARG597      0.1354
     12  N         65.9880   40.0820  -43.5000 N.3   599  ILE599     -0.1245
     13  CA        66.6660   39.0060  -44.1990 C.3   599  ILE599      0.1561
     14  C         66.2030   37.6480  -43.6560 C.2   599  ILE599      0.2260
     15  O         66.3810   37.3510  -42.5540 O.2   599  ILE599     -0.2867
     16  CB        68.1740   39.0780  -44.0010 C.3   599  ILE599      0.0252
     17  CG1       68.7110   40.4340  -44.4800 C.3   599  ILE599      0.0019
     18  CG2       68.8630   37.8900  -44.7420 C.3   599  ILE599      0.0019
     19  CD1       70.1060   40.6090  -44.1450 C.3   599  ILE599      0.0001
     20  N         74.0130   36.0880  -41.8170 N.3   606  THR606     -0.1203
     21  CA        73.5710   37.0700  -42.7730 C.3   606  THR606      0.1994
     22  C         74.2690   36.9550  -44.1190 C.2   606  THR606      0.2619
     23  O         73.7660   37.3770  -45.0470 O.2   606  THR606     -0.2717
     24  CB        73.7640   38.4950  -42.2550 C.3   606  THR606      0.1784
     25  OG1       75.1420   38.7630  -42.0120 O.3   606  THR606     -0.2211
     26  CG2       73.0370   38.7270  -40.9980 C.3   606  THR606      0.0376
     27  N         75.4570   36.3910  -44.1700 N.am  607  SER607     -0.1937
     28  CA        76.0560   36.1090  -45.4540 C.3   607  SER607      0.2055
     29  C         75.2580   35.0450  -46.2100 C.2   607  SER607      0.2644
     30  O         74.9610   34.0230  -45.7330 O.2   607  SER607     -0.2714
     31  CB        77.5010   35.6670  -45.3370 C.3   607  SER607      0.2130
     32  OG        78.0120   35.2010  -46.5490 O.3   607  SER607     -0.2179
     33  N         74.9530   35.3520  -47.4460 N.am  608  SER608     -0.1935
     34  CA        74.1710   34.4530  -48.2670 C.3   608  SER608      0.2055
     35  C         74.9930   33.2360  -48.7160 C.2   608  SER608      0.2643
     36  O         74.4710   32.3150  -49.2380 O.2   608  SER608     -0.2714
     37  CB        73.5700   35.2150  -49.4340 C.3   608  SER608      0.2130
     38  OG        74.5190   35.5850  -50.3500 O.3   608  SER608     -0.2179
     39  N         76.2610   33.2700  -48.3960 N.am  609  THR609     -0.1950
     40  CA        77.0800   32.0820  -48.5650 C.3   609  THR609      0.1897
     41  C         76.5690   30.9630  -47.6480 C.2   609  THR609      0.2313
     42  O         76.7510   29.7890  -47.9450 O.2   609  THR609     -0.2863
     43  CB        78.5820   32.3970  -48.3090 C.3   609  THR609      0.1794
     44  OG1       78.9980   33.4560  -49.1840 O.3   609  THR609     -0.2208
     45  CG2       79.4620   31.1850  -48.5590 C.3   609  THR609      0.0378
     46  N         68.5170   33.0570  -49.3780 N.3   613  GLN613     -0.1245
     47  CA        67.9160   34.1920  -48.7190 C.3   613  GLN613      0.1566
     48  C         66.7940   34.8160  -49.5480 C.2   613  GLN613      0.2260
     49  O         66.8300   34.8150  -50.7180 O.2   613  GLN613     -0.2867
     50  CB        68.9790   35.2790  -48.4200 C.3   613  GLN613      0.0367
     51  CG        70.0020   34.8650  -47.4370 C.3   613  GLN613      0.0905
     52  CD        70.9530   35.9100  -47.0300 C.2   613  GLN613      0.2608
     53  OE1       71.0720   36.9070  -47.6310 O.2   613  GLN613     -0.2717
     54  NE2       71.6360   35.6450  -45.9940 N.am  613  GLN613     -0.0878
     55  N         65.1440   38.6630  -49.0350 N.3   615  THR615     -0.1218
     56  CA        65.2190   39.8920  -48.3070 C.3   615  THR615      0.1862
     57  C         64.1100   40.8660  -48.7100 C.2   615  THR615      0.2287
     58  O         64.0510   41.2840  -49.8200 O.2   615  THR615     -0.2866
     59  CB        66.6130   40.5530  -48.4170 C.3   615  THR615      0.1770
     60  OG1       67.6050   39.6210  -48.0760 O.3   615  THR615     -0.2211
     61  CG2       66.7090   41.7400  -47.5180 C.3   615  THR615      0.0375
     62  N         67.5970   35.2110  -53.3910 N.3   630  ASN630     -0.1240
     63  CA        68.9620   34.7690  -53.6860 C.3   630  ASN630      0.1653
     64  C         69.2210   33.3290  -53.2870 C.2   630  ASN630      0.2266
     65  O         69.4590   33.0600  -52.1660 O.2   630  ASN630     -0.2867
     66  CB        69.9660   35.6300  -52.9650 C.3   630  ASN630      0.1155
     67  CG        71.3930   35.2050  -53.2430 C.2   630  ASN630      0.2627
     68  OD1       71.6660   34.4710  -54.1310 O.2   630  ASN630     -0.2716
     69  ND2       72.2860   35.7020  -52.4580 N.am  630  ASN630     -0.0877
     70  N         70.7280   29.3180  -55.0970 N.3   632  ASP632     -0.1239
     71  CA        71.4490   28.6630  -56.1780 C.3   632  ASP632      0.1674
     72  C         70.4980   27.8720  -57.0650 C.2   632  ASP632      0.2266
     73  O         70.8760   27.4160  -58.0860 O.2   632  ASP632     -0.2867
     74  CB        72.6070   27.8290  -55.6590 C.3   632  ASP632      0.1410
     75  CG        73.7420   28.6750  -55.1090 C.2   632  ASP632      0.3668
     76  OD1       73.8540   29.8460  -55.3930 O.co2 632  ASP632     -0.2456
     77  OD2       74.5200   28.1590  -54.3650 O.co2 632  ASP632     -0.2456
@<TRIPOS>BOND
     1    73    72    2
     2    72    71    1
     3    71    74    1
     4    71    70    1
     5    74    75    1
     6    76    75   ar
     7    75    77   ar
     8    68    67    2
     9    63    62    1
    10    63    64    1
    11    63    66    1
    12    64    65    2
    13    67    66    1
    14    67    69   am
    15    49    48    2
    16    38    37    1
    17    58    57    2
    18    48    47    1
    19    37    34    1
    20    46    47    1
    21    36    35    2
    22    44    43    1
    23    55    56    1
    24    47    50    1
    25    35    39   am
    26    35    34    1
    27    57    56    1
    28    40    39    1
    29    40    43    1
    30    40    41    1
    31    45    43    1
    32    50    51    1
    33    59    56    1
    34    59    60    1
    35    59    61    1
    36    34    33    1
    37    42    41    2
    38    53    52    2
    39    33    29   am
    40    51    52    1
    41    52    54   am
    42    32    31    1
    43    29    30    2
    44    29    28    1
    45     7     8    1
    46     7     6    1
    47    28    31    1
    48    28    27    1
    49     8     9    2
    50     5     6    1
    51     5     2    1
    52    23    22    2
    53    18    16    1
    54    17    19    1
    55    17    16    1
    56     9    11    1
    57     9    10    1
    58    13    16    1
    59    13    14    1
    60    13    12    1
    61    27    22   am
    62     2     1    1
    63     2     3    1
    64    22    21    1
    65    14    15    2
    66     3     4    2
    67    21    24    1
    68    21    20    1
    69    24    25    1
    70    24    26    1
