@<TRIPOS>MOLECULE
tmp/3gvkC01.pdb
 201 190 0 0 0
SMALL
GASTEIGER

@<TRIPOS>ATOM
      1  N         16.0850    2.6580  -39.8040 N.3    84  TRP84      -0.1241
      2  CA        16.4290    1.7060  -40.8690 C.3    84  TRP84       0.1605
      3  C         15.6240    1.8640  -42.1750 C.2    84  TRP84       0.2264
      4  O         14.9410    0.9250  -42.5970 O.2    84  TRP84      -0.2867
      5  CB        16.3700    0.2500  -40.3570 C.3    84  TRP84       0.0550
      6  CG        16.9230    0.0760  -38.9640 C.ar   84  TRP84       0.0003
      7  CD1       18.2400   -0.0350  -38.6130 C.ar   84  TRP84       0.0946
      8  CD2       16.1740    0.0050  -37.7410 C.ar   84  TRP84       0.0152
      9  NE1       18.3580   -0.1660  -37.2470 N.ar   84  TRP84      -0.2442
     10  CE2       17.1050   -0.1500  -36.6890 C.ar   84  TRP84       0.0810
     11  CE3       14.8050    0.0500  -37.4320 C.ar   84  TRP84       0.0012
     12  CZ2       16.7130   -0.2540  -35.3490 C.ar   84  TRP84       0.0191
     13  CZ3       14.4160   -0.0540  -36.0980 C.ar   84  TRP84       0.0001
     14  CH2       15.3700   -0.2110  -35.0740 C.ar   84  TRP84       0.0015
     15  N         16.3320   -1.9130  -31.2160 N.3   106  ALA106     -0.1245
     16  CA        17.1570   -2.4750  -32.2810 C.3   106  ALA106      0.1562
     17  C         16.9640   -3.9920  -32.3200 C.2   106  ALA106      0.2260
     18  O         17.8180   -4.7610  -31.8730 O.2   106  ALA106     -0.2867
     19  CB        18.6310   -2.1070  -32.0740 C.3   106  ALA106      0.0290
     20  N         17.6320  -11.7720  -32.4150 N.3   167  ASN167     -0.1240
     21  CA        17.6160  -11.2050  -33.7720 C.3   167  ASN167      0.1653
     22  C         18.2720  -12.1480  -34.7930 C.2   167  ASN167      0.2266
     23  O         18.9000  -11.7140  -35.7650 O.2   167  ASN167     -0.2867
     24  CB        18.2420   -9.8020  -33.8000 C.3   167  ASN167      0.1155
     25  CG        17.8040   -8.9880  -35.0080 C.2   167  ASN167      0.2627
     26  OD1       16.6530   -9.0580  -35.4320 O.2   167  ASN167     -0.2716
     27  ND2       18.7280   -8.2140  -35.5690 N.am  167  ASN167     -0.0877
     28  N         23.2570  -13.4200  -43.2500 N.3   280  THR280     -0.1203
     29  CA        22.9260  -12.7050  -42.0140 C.3   280  THR280      0.1994
     30  C         21.8310  -11.6660  -42.2660 C.2   280  THR280      0.2617
     31  O         20.8780  -11.5710  -41.4930 O.2   280  THR280     -0.2717
     32  CB        24.1710  -12.0240  -41.3880 C.3   280  THR280      0.1784
     33  OG1       25.1930  -13.0040  -41.1760 O.3   280  THR280     -0.2211
     34  CG2       23.8300  -11.3750  -40.0500 C.3   280  THR280      0.0376
     35  N         21.9800  -10.8950  -43.3430 N.am  281  GLU281     -0.1979
     36  CA        20.9890   -9.8870  -43.7320 C.3   281  GLU281      0.1602
     37  C         20.8980   -9.7550  -45.2410 C.2   281  GLU281      0.2287
     38  O         21.9040   -9.8340  -45.9430 O.2   281  GLU281     -0.2864
     39  CB        21.3360   -8.5120  -43.1470 C.3   281  GLU281      0.0415
     40  CG        20.9090   -8.2790  -41.7060 C.3   281  GLU281      0.1163
     41  CD        21.2900   -6.8960  -41.2060 C.2   281  GLU281      0.3649
     42  OE1       22.1860   -6.2670  -41.8090 O.co2 281  GLU281     -0.2457
     43  OE2       20.6990   -6.4360  -40.2060 O.co2 281  GLU281     -0.2457
     44  N         24.9470   -9.9680  -46.8850 N.3   298  HIS298     -0.1241
     45  CA        26.2120  -10.2970  -46.2510 C.3   298  HIS298      0.1621
     46  C         26.0290  -11.4170  -45.2330 C.2   298  HIS298      0.2264
     47  O         24.9200  -11.6510  -44.7310 O.2   298  HIS298     -0.2867
     48  CB        26.8610   -9.0650  -45.6060 C.3   298  HIS298      0.0745
     49  CG        26.3560   -8.7650  -44.2300 C.ar  298  HIS298      0.0817
     50  ND1       25.2470   -7.9810  -44.0010 N.ar  298  HIS298     -0.2268
     51  CD2       26.8040   -9.1520  -43.0130 C.ar  298  HIS298      0.1154
     52  CE1       25.0340   -7.8960  -42.7000 C.ar  298  HIS298      0.1986
     53  NE2       25.9660   -8.5960  -42.0780 N.ar  298  HIS298     -0.2212
     54  N         27.8950  -12.4470  -41.7380 N.3   300  GLY300     -0.1210
     55  CA        28.8420  -12.0130  -40.7140 C.3   300  GLY300      0.1956
     56  C         28.7110  -12.7500  -39.3960 C.2   300  GLY300      0.2612
     57  O         28.9350  -12.1690  -38.3360 O.2   300  GLY300     -0.2717
     58  N         28.3560  -14.0300  -39.4620 N.am  301  ASP301     -0.1959
     59  CA        28.2160  -14.8560  -38.2620 C.3   301  ASP301      0.1840
     60  C         29.4090  -15.7850  -38.0490 C.2   301  ASP301      0.2622
     61  O         29.7880  -16.0560  -36.9110 O.2   301  ASP301     -0.2715
     62  CB        26.9110  -15.6620  -38.3120 C.3   301  ASP301      0.1450
     63  CG        25.6790  -14.7850  -38.1700 C.2   301  ASP301      0.3671
     64  OD1       25.5650  -14.0730  -37.1480 O.co2 301  ASP301     -0.2456
     65  OD2       24.8170  -14.8100  -39.0790 O.co2 301  ASP301     -0.2456
     66  N         29.9830  -16.2750  -39.1460 N.am  302  VAL302     -0.1963
     67  CA        31.1450  -17.1650  -39.1060 C.3   302  VAL302      0.1727
     68  C         32.1890  -16.7400  -40.1410 C.2   302  VAL302      0.2616
     69  O         31.8800  -16.0000  -41.0780 O.2   302  VAL302     -0.2715
     70  CB        30.7570  -18.6590  -39.3480 C.3   302  VAL302      0.0290
     71  CG1       29.8390  -19.1760  -38.2460 C.3   302  VAL302      0.0023
     72  CG2       30.1170  -18.8500  -40.7190 C.3   302  VAL302      0.0023
     73  N         33.4210  -17.2100  -39.9640 N.am  303  ALA303     -0.1977
     74  CA        34.4950  -16.9530  -40.9240 C.3   303  ALA303      0.1597
     75  C         34.4740  -18.0040  -42.0410 C.2   303  ALA303      0.2287
     76  O         34.2130  -19.1750  -41.7730 O.2   303  ALA303     -0.2864
     77  CB        35.8450  -16.9470  -40.2170 C.3   303  ALA303      0.0319
     78  N         33.7860  -14.1220  -43.7760 N.3   305  ARG305     -0.1245
     79  CA        32.6710  -13.2180  -44.0240 C.3   305  ARG305      0.1563
     80  C         32.3620  -13.1670  -45.5190 C.2   305  ARG305      0.2260
     81  O         33.2730  -13.2010  -46.3550 O.2   305  ARG305     -0.2867
     82  CB        33.0280  -11.8240  -43.4970 C.3   305  ARG305      0.0307
     83  CG        31.9030  -10.8030  -43.5120 C.3   305  ARG305      0.0489
     84  CD        32.3080   -9.5320  -42.7800 C.3   305  ARG305      0.2205
     85  NE        32.0930   -9.6090  -41.3360 N.pl3 305  ARG305     -0.0865
     86  CZ        30.9980   -9.1780  -40.7090 C.cat 305  ARG305      0.5346
     87  NH1       29.9920   -8.6370  -41.3920 N.pl3 305  ARG305      0.1354
     88  NH2       30.9070   -9.2870  -39.3920 N.pl3 305  ARG305      0.1354
     89  N         36.3110   -9.0550  -45.6550 N.3   333  PRO333     -0.2102
     90  CA        36.4660   -8.9290  -44.2060 C.3   333  PRO333      0.1504
     91  C         36.0080   -7.5640  -43.6950 C.2   333  PRO333      0.2575
     92  O         36.2010   -6.5500  -44.3730 O.2   333  PRO333     -0.2718
     93  CB        37.9810   -9.0830  -43.9940 C.3   333  PRO333      0.0282
     94  CG        38.4580   -9.8410  -45.1810 C.3   333  PRO333      0.0208
     95  CD        37.5970   -9.3590  -46.3130 C.3   333  PRO333      0.0893
     96  N         35.4030   -7.5610  -42.5090 N.am  334  ASP334     -0.1974
     97  CA        35.0060   -6.3360  -41.8120 C.3   334  ASP334      0.1708
     98  C         34.0180   -5.4790  -42.6170 C.2   334  ASP334      0.2293
     99  O         34.0440   -4.2450  -42.5410 O.2   334  ASP334     -0.2864
    100  CB        36.2490   -5.5300  -41.4060 C.3   334  ASP334      0.1436
    101  CG        37.3620   -6.4150  -40.8600 C.2   334  ASP334      0.3671
    102  OD1       37.1730   -7.0200  -39.7860 O.co2 334  ASP334     -0.2456
    103  OD2       38.4180   -6.5110  -41.5170 O.co2 334  ASP334     -0.2456
    104  N         29.7700   -5.2300  -44.3580 N.3   336  SER336     -0.1202
    105  CA        28.3840   -5.6820  -44.3120 C.3   336  SER336      0.2020
    106  C         27.4890   -4.8180  -45.1910 C.2   336  SER336      0.2618
    107  O         27.9500   -3.8520  -45.8100 O.2   336  SER336     -0.2717
    108  CB        27.8640   -5.6680  -42.8690 C.3   336  SER336      0.2103
    109  OG        27.5900   -4.3450  -42.4390 O.3   336  SER336     -0.2182
    110  N         26.2160   -5.2040  -45.2530 N.am  337  GLU337     -0.1979
    111  CA        25.1260   -4.3690  -45.7800 C.3   337  GLU337      0.1602
    112  C         25.4780   -3.5510  -47.0280 C.2   337  GLU337      0.2287
    113  O         25.5230   -2.3170  -46.9760 O.2   337  GLU337     -0.2864
    114  CB        24.5900   -3.4650  -44.6640 C.3   337  GLU337      0.0415
    115  CG        24.1010   -4.2330  -43.4370 C.3   337  GLU337      0.1163
    116  CD        23.6330   -3.3300  -42.3070 C.2   337  GLU337      0.3649
    117  OE1       23.9270   -2.1150  -42.3350 O.co2 337  GLU337     -0.2457
    118  OE2       22.9690   -3.8370  -41.3800 O.co2 337  GLU337     -0.2457
    119  N         29.4490   -1.3470  -46.1500 N.3   352  ARG352     -0.1245
    120  CA        29.5560   -0.7260  -44.8370 C.3   352  ARG352      0.1563
    121  C         30.7360   -1.3690  -44.1180 C.2   352  ARG352      0.2260
    122  O         30.9220   -2.5810  -44.2020 O.2   352  ARG352     -0.2867
    123  CB        28.2660   -0.9700  -44.0380 C.3   352  ARG352      0.0307
    124  CG        28.3540   -0.6580  -42.5460 C.3   352  ARG352      0.0489
    125  CD        27.0380   -0.9650  -41.8350 C.3   352  ARG352      0.2205
    126  NE        27.1920   -0.9580  -40.3810 N.pl3 352  ARG352     -0.0865
    127  CZ        26.1910   -0.9360  -39.5050 C.cat 352  ARG352      0.5346
    128  NH1       26.4610   -0.9300  -38.2070 N.pl3 352  ARG352      0.1354
    129  NH2       24.9250   -0.9120  -39.9130 N.pl3 352  ARG352      0.1354
    130  N         32.5940   -2.5230  -40.6320 N.3   354  THR354     -0.1203
    131  CA        32.1770   -2.9590  -39.2940 C.3   354  THR354      0.1994
    132  C         32.8900   -2.2240  -38.1550 C.2   354  THR354      0.2617
    133  O         32.3410   -2.1090  -37.0580 O.2   354  THR354     -0.2717
    134  CB        32.4010   -4.4710  -39.0880 C.3   354  THR354      0.1784
    135  OG1       33.7860   -4.7720  -39.2860 O.3   354  THR354     -0.2211
    136  CG2       31.5480   -5.2920  -40.0580 C.3   354  THR354      0.0376
    137  N         34.1070   -1.7440  -38.4080 N.am  355  ARG355     -0.1979
    138  CA        34.9170   -1.1130  -37.3560 C.3   355  ARG355      0.1597
    139  C         35.9600   -0.1130  -37.8590 C.2   355  ARG355      0.2287
    140  O         36.4800   -0.2320  -38.9700 O.2   355  ARG355     -0.2864
    141  CB        35.5670   -2.1730  -36.4450 C.3   355  ARG355      0.0334
    142  CG        36.1970   -3.3590  -37.1610 C.3   355  ARG355      0.0492
    143  CD        36.4460   -4.5200  -36.1920 C.3   355  ARG355      0.2205
    144  NE        37.4910   -4.2160  -35.2110 N.pl3 355  ARG355     -0.0865
    145  CZ        37.9110   -5.0480  -34.2590 C.cat 355  ARG355      0.5346
    146  NH1       38.8690   -4.6640  -33.4250 N.pl3 355  ARG355      0.1354
    147  NH2       37.3850   -6.2600  -34.1330 N.pl3 355  ARG355      0.1354
    148  N         39.8880   -1.0660  -38.7820 N.3   358  ARG358     -0.1245
    149  CA        40.1660   -1.9330  -39.9230 C.3   358  ARG358      0.1563
    150  C         39.6540   -1.3260  -41.2160 C.2   358  ARG358      0.2260
    151  O         38.7390   -0.5010  -41.1960 O.2   358  ARG358     -0.2867
    152  CB        39.5690   -3.3230  -39.7040 C.3   358  ARG358      0.0307
    153  CG        40.3090   -4.1100  -38.6440 C.3   358  ARG358      0.0489
    154  CD        39.8570   -5.5330  -38.5730 C.3   358  ARG358      0.2205
    155  NE        40.1620   -6.1100  -37.2710 N.pl3 358  ARG358     -0.0865
    156  CZ        39.6360   -7.2400  -36.8110 C.cat 358  ARG358      0.5346
    157  NH1       38.7710   -7.9290  -37.5480 N.pl3 358  ARG358      0.1354
    158  NH2       39.9780   -7.6800  -35.6080 N.pl3 358  ARG358      0.1354
    159  N         26.9180    7.4690  -36.2650 N.3   403  ARG403     -0.1245
    160  CA        25.8130    7.0750  -35.3940 C.3   403  ARG403      0.1563
    161  C         25.7770    7.9060  -34.1100 C.2   403  ARG403      0.2260
    162  O         24.7190    8.0790  -33.4950 O.2   403  ARG403     -0.2867
    163  CB        25.9050    5.5760  -35.0720 C.3   403  ARG403      0.0307
    164  CG        26.1930    4.6720  -36.2830 C.3   403  ARG403      0.0489
    165  CD        25.1070    4.7470  -37.3630 C.3   403  ARG403      0.2205
    166  NE        23.8510    4.1320  -36.9300 N.pl3 403  ARG403     -0.0865
    167  CZ        23.6140    2.8210  -36.9300 C.cat 403  ARG403      0.5346
    168  NH1       24.5480    1.9670  -37.3390 N.pl3 403  ARG403      0.1354
    169  NH2       22.4400    2.3580  -36.5210 N.pl3 403  ARG403      0.1354
    170  N         29.2470    6.4600  -26.8940 N.3   416  ARG416     -0.1245
    171  CA        27.8370    6.2210  -26.6040 C.3   416  ARG416      0.1563
    172  C         27.5100    6.5530  -25.1530 C.2   416  ARG416      0.2260
    173  O         28.3970    6.9310  -24.3830 O.2   416  ARG416     -0.2867
    174  CB        27.4590    4.7690  -26.9400 C.3   416  ARG416      0.0307
    175  CG        27.8100    4.3320  -28.3650 C.3   416  ARG416      0.0489
    176  CD        27.0400    5.1100  -29.4430 C.3   416  ARG416      0.2205
    177  NE        27.5770    4.8380  -30.7770 N.pl3 416  ARG416     -0.0865
    178  CZ        27.1890    3.8330  -31.5610 C.cat 416  ARG416      0.5346
    179  NH1       27.7510    3.6670  -32.7520 N.pl3 416  ARG416      0.1354
    180  NH2       26.2430    2.9920  -31.1610 N.pl3 416  ARG416      0.1354
    181  N         22.7280    2.3330  -25.6670 N.3   454  VAL454     -0.1231
    182  CA        23.9400    2.2400  -26.4800 C.3   454  VAL454      0.1692
    183  C         23.6430    2.3780  -27.9790 C.2   454  VAL454      0.2592
    184  O         24.4390    2.9550  -28.7210 O.2   454  VAL454     -0.2718
    185  CB        24.7520    0.9370  -26.1730 C.3   454  VAL454      0.0266
    186  CG1       24.1280   -0.2920  -26.8470 C.3   454  VAL454      0.0020
    187  CG2       26.2090    1.1010  -26.5840 C.3   454  VAL454      0.0020
    188  N         22.4880    1.8650  -28.4050 N.am  455  ASN455     -0.1960
    189  CA        22.1080    1.8510  -29.8180 C.3   455  ASN455      0.1819
    190  C         21.7610    3.2390  -30.3400 C.2   455  ASN455      0.2622
    191  O         21.3070    4.1000  -29.5800 O.2   455  ASN455     -0.2715
    192  CB        20.9120    0.9250  -30.0650 C.3   455  ASN455      0.1195
    193  CG        21.0820   -0.4420  -29.4370 C.2   455  ASN455      0.2630
    194  OD1       21.5540   -1.3800  -30.0820 O.2   455  ASN455     -0.2716
    195  ND2       20.6950   -0.5650  -28.1740 N.am  455  ASN455     -0.0877
    196  N         21.9670    3.4290  -31.6420 N.am  456  SER456     -0.1950
    197  CA        21.6160    4.6710  -32.3240 C.3   456  SER456      0.1924
    198  C         20.7500    4.4120  -33.5460 C.2   456  SER456      0.2314
    199  O         21.0470    3.5300  -34.3530 O.2   456  SER456     -0.2863
    200  CB        22.8710    5.4310  -32.7440 C.3   456  SER456      0.2116
    201  OG        22.5300    6.5600  -33.5300 O.3   456  SER456     -0.2180
@<TRIPOS>BOND
     1   112   113    2
     2   112   111    1
     3    44    45    1
     4    81    80    2
     5    95    89    1
     6    95    94    1
     7    45    48    1
     8    45    46    1
     9   119   120    1
    10    38    37    2
    11   107   106    2
    12   111   110    1
    13   111   114    1
    14    89    90    1
    15    48    49    1
    16    80    79    1
    17   110   106   am
    18    37    36    1
    19    46    47    2
    20   106   105    1
    21    94    93    1
    22   120   121    1
    23   120   123    1
    24   114   115    1
    25    92    91    2
    26   104   105    1
    27   105   108    1
    28    49    50   ar
    29    49    51   ar
    30    90    93    1
    31    90    91    1
    32   122   121    2
    33   123   124    1
    34    79    78    1
    35    79    82    1
    36    50    52   ar
    37    36    35    1
    38    36    39    1
    39    91    96   am
    40    83    82    1
    41    83    84    1
    42   115   116    1
    43    35    30   am
    44    28    29    1
    45    39    40    1
    46    51    53   ar
    47   108   109    1
    48    84    85    1
    49    52    53   ar
    50    98    99    2
    51    98    97    1
    52     4     3    2
    53   124   125    1
    54    96    97    1
    55   117   116   ar
    56   116   118   ar
    57    30    29    1
    58    30    31    2
    59     3     2    1
    60    75    76    2
    61    75    74    1
    62    29    32    1
    63   125   126    1
    64    97   100    1
    65    42    41   ar
    66    54    55    1
    67    40    41    1
    68   103   101   ar
    69   100   101    1
    70    87    86    1
    71    32    33    1
    72    32    34    1
    73    85    86    2
    74   150   151    2
    75   150   149    1
    76    41    43   ar
    77    69    68    2
    78    74    77    1
    79    74    73    1
    80     2     5    1
    81     2     1    1
    82   101   102   ar
    83    72    70    1
    84    55    56    1
    85    86    88    1
    86   130   131    1
    87   126   127    2
    88     5     6    1
    89    68    73   am
    90    68    67    1
    91   136   134    1
    92   149   152    1
    93   149   148    1
    94   129   127    1
    95   152   153    1
    96   127   128    1
    97    58    56   am
    98    58    59    1
    99    56    57    2
   100    70    67    1
   101    70    71    1
   102   131   134    1
   103   131   132    1
   104   135   134    1
   105    66    67    1
   106    66    60   am
   107    65    63   ar
   108   140   139    2
   109     6     7   ar
   110     6     8   ar
   111   153   154    1
   112     7     9   ar
   113   154   155    1
   114   137   132   am
   115   137   138    1
   116    62    59    1
   117    62    63    1
   118    59    60    1
   119    63    64   ar
   120   132   133    2
   121    60    61    2
   122   139   138    1
   123     8    11   ar
   124     8    10   ar
   125   157   156    1
   126    11    13   ar
   127   165   166    1
   128   165   164    1
   129   138   141    1
   130   168   167    1
   131   155   156    2
   132     9    10   ar
   133   142   141    1
   134   142   143    1
   135   167   166    2
   136   167   169    1
   137   156   158    1
   138    10    12   ar
   139   164   163    1
   140   159   160    1
   141   143   144    1
   142    13    14   ar
   143    23    22    2
   144    27    25   am
   145    26    25    2
   146   160   163    1
   147   160   161    1
   148    12    14   ar
   149   144   145    2
   150    25    24    1
   151    22    21    1
   152   199   198    2
   153   145   147    1
   154   145   146    1
   155   161   162    2
   156    24    21    1
   157    21    20    1
   158   198   197    1
   159   201   200    1
   160   179   178    1
   161   200   197    1
   162   197   196    1
   163    17    16    1
   164    17    18    2
   165    16    19    1
   166    16    15    1
   167   196   190   am
   168   178   180    1
   169   178   177    2
   170   177   176    1
   171   190   189    1
   172   190   191    2
   173   194   193    2
   174   192   189    1
   175   192   193    1
   176   189   188    1
   177   176   175    1
   178   193   195   am
   179   184   183    2
   180   188   183   am
   181   175   174    1
   182   183   182    1
   183   174   171    1
   184   170   171    1
   185   186   185    1
   186   171   172    1
   187   187   185    1
   188   182   185    1
   189   182   181    1
   190   172   173    2
