@<TRIPOS>MOLECULE
tmp/3gvkC02.pdb
 89 89 0 0 0
SMALL
GASTEIGER

@<TRIPOS>ATOM
      1  N         -9.6150   -2.9140  -62.5040 N.3   214  ASN214     -0.1225
      2  CA       -10.8370   -2.1180  -62.6610 C.3   214  ASN214      0.1785
      3  C        -10.9390   -1.5680  -64.0800 C.2   214  ASN214      0.2597
      4  O         -9.9540   -1.0740  -64.6240 O.2   214  ASN214     -0.2718
      5  CB       -10.8770   -0.9780  -61.6300 C.3   214  ASN214      0.1169
      6  CG       -12.0920   -0.0780  -61.7920 C.2   214  ASN214      0.2627
      7  OD1      -13.1770   -0.3600  -61.2610 O.2   214  ASN214     -0.2716
      8  ND2      -11.9140    1.0190  -62.5100 N.am  214  ASN214     -0.0877
      9  N        -12.1290   -1.6550  -64.6740 N.am  215  PHE215     -0.1962
     10  CA       -12.3320   -1.1900  -66.0460 C.3   215  PHE215      0.1771
     11  C        -13.3840   -0.0910  -66.1310 C.2   215  PHE215      0.2620
     12  O        -14.4120   -0.1540  -65.4580 O.2   215  PHE215     -0.2715
     13  CB       -12.7390   -2.3570  -66.9520 C.3   215  PHE215      0.0574
     14  CG       -11.7030   -3.4430  -67.0420 C.ar  215  PHE215     -0.0200
     15  CD1      -10.7170   -3.3960  -68.0150 C.ar  215  PHE215     -0.0042
     16  CD2      -11.7170   -4.5130  -66.1490 C.ar  215  PHE215     -0.0042
     17  CE1       -9.7520   -4.4020  -68.1050 C.ar  215  PHE215     -0.0003
     18  CE2      -10.7540   -5.5200  -66.2260 C.ar  215  PHE215     -0.0003
     19  CZ        -9.7740   -5.4640  -67.2100 C.ar  215  PHE215     -0.0000
     20  N        -13.1230    0.9060  -66.9730 N.am  216  SER216     -0.1936
     21  CA       -14.1050    1.9450  -67.2550 C.3   216  SER216      0.2055
     22  C        -14.1260    2.2910  -68.7420 C.2   216  SER216      0.2643
     23  O        -13.0760    2.4280  -69.3620 O.2   216  SER216     -0.2714
     24  CB       -13.8170    3.1970  -66.4300 C.3   216  SER216      0.2130
     25  OG       -14.8900    4.1120  -66.5400 O.3   216  SER216     -0.2179
     26  N        -15.3280    2.4330  -69.2990 N.am  217  ASN217     -0.1957
     27  CA       -15.5120    2.8070  -70.7080 C.3   217  ASN217      0.1819
     28  C        -14.7930    1.8720  -71.6870 C.2   217  ASN217      0.2622
     29  O        -14.2680    2.3190  -72.7080 O.2   217  ASN217     -0.2715
     30  CB       -15.0600    4.2600  -70.9470 C.3   217  ASN217      0.1195
     31  CG       -15.6440    5.2240  -69.9430 C.2   217  ASN217      0.2630
     32  OD1      -16.7720    5.7000  -70.1010 O.2   217  ASN217     -0.2716
     33  ND2      -14.8810    5.5200  -68.8980 N.am  217  ASN217     -0.0877
     34  N        -14.7780    0.5750  -71.3790 N.am  218  SER218     -0.1936
     35  CA       -14.0470   -0.3950  -72.1990 C.3   218  SER218      0.2055
     36  C        -14.6400   -0.5720  -73.5960 C.2   218  SER218      0.2643
     37  O        -13.9310   -0.9770  -74.5160 O.2   218  SER218     -0.2714
     38  CB       -13.9940   -1.7600  -71.5140 C.3   218  SER218      0.2130
     39  OG       -15.2460   -2.4130  -71.6060 O.3   218  SER218     -0.2179
     40  N        -15.9420   -0.2980  -73.7270 N.am  219  ALA219     -0.1963
     41  CA       -16.7060   -0.5560  -74.9610 C.3   219  ALA219      0.1728
     42  C        -16.7960   -2.0500  -75.3030 C.2   219  ALA219      0.2616
     43  O        -17.1240   -2.4220  -76.4340 O.2   219  ALA219     -0.2715
     44  CB       -16.1380    0.2460  -76.1380 C.3   219  ALA219      0.0334
     45  N        -16.5000   -2.9000  -74.3200 N.am  220  VAL220     -0.1963
     46  CA       -16.6110   -4.3500  -74.4830 C.3   220  VAL220      0.1727
     47  C        -17.4960   -4.8610  -73.3570 C.2   220  VAL220      0.2617
     48  O        -17.0770   -4.9000  -72.1960 O.2   220  VAL220     -0.2715
     49  CB       -15.2260   -5.0440  -74.4610 C.3   220  VAL220      0.0290
     50  CG1      -15.3740   -6.5580  -74.6060 C.3   220  VAL220      0.0023
     51  CG2      -14.3390   -4.4950  -75.5730 C.3   220  VAL220      0.0023
     52  N        -18.7270   -5.2210  -73.7110 N.am  221  THR221     -0.1937
     53  CA       -19.7600   -5.5840  -72.7410 C.3   221  THR221      0.2028
     54  C        -19.2660   -6.6290  -71.7490 C.2   221  THR221      0.2643
     55  O        -18.7140   -7.6570  -72.1450 O.2   221  THR221     -0.2714
     56  CB       -21.0350   -6.0830  -73.4560 C.3   221  THR221      0.1808
     57  OG1      -21.3750   -5.1640  -74.5040 O.3   221  THR221     -0.2208
     58  CG2      -22.2040   -6.1860  -72.4780 C.3   221  THR221      0.0379
     59  N        -19.4490   -6.3430  -70.4600 N.am  222  GLY222     -0.1939
     60  CA       -19.0400   -7.2590  -69.3990 C.3   222  GLY222      0.2014
     61  C        -17.6810   -6.9360  -68.8030 C.2   222  GLY222      0.2639
     62  O        -17.3910   -7.3080  -67.6590 O.2   222  GLY222     -0.2714
     63  N        -16.8460   -6.2510  -69.5800 N.am  223  VAL223     -0.1963
     64  CA       -15.5500   -5.7740  -69.0970 C.3   223  VAL223      0.1727
     65  C        -15.7850   -4.4020  -68.4810 C.2   223  VAL223      0.2617
     66  O        -15.7540   -3.3720  -69.1750 O.2   223  VAL223     -0.2715
     67  CB       -14.5050   -5.7160  -70.2300 C.3   223  VAL223      0.0290
     68  CG1      -13.1430   -5.3000  -69.6950 C.3   223  VAL223      0.0023
     69  CG2      -14.4050   -7.0680  -70.9250 C.3   223  VAL223      0.0023
     70  N        -16.0350   -4.3990  -67.1730 N.am  224  SER224     -0.1936
     71  CA       -16.5970   -3.2380  -66.4920 C.3   224  SER224      0.2055
     72  C        -16.4140   -3.3330  -64.9810 C.2   224  SER224      0.2643
     73  O        -16.6630   -4.3870  -64.3920 O.2   224  SER224     -0.2714
     74  CB       -18.0950   -3.1480  -66.8110 C.3   224  SER224      0.2130
     75  OG       -18.7380   -2.1560  -66.0230 O.3   224  SER224     -0.2179
     76  N        -15.9880   -2.2290  -64.3640 N.am  225  GLY225     -0.1954
     77  CA       -15.8960   -2.1310  -62.8990 C.3   225  GLY225      0.1869
     78  C        -14.8360   -3.0280  -62.2760 C.2   225  GLY225      0.2309
     79  O        -13.8590   -3.3920  -62.9360 O.2   225  GLY225     -0.2863
     80  N        -10.0950    3.0180  -69.7160 N.3   258  HIS258     -0.1241
     81  CA        -9.3570    3.1610  -68.4560 C.3   258  HIS258      0.1621
     82  C         -9.1950    1.8350  -67.7020 C.2   258  HIS258      0.2264
     83  O        -10.1300    1.0320  -67.6600 O.2   258  HIS258     -0.2867
     84  CB       -10.0740    4.1410  -67.5210 C.3   258  HIS258      0.0745
     85  CG       -10.4690    5.4350  -68.1620 C.ar  258  HIS258      0.0817
     86  ND1       -9.6010    6.4970  -68.2900 N.ar  258  HIS258     -0.2268
     87  CD2      -11.6500    5.8480  -68.6810 C.ar  258  HIS258      0.1154
     88  CE1      -10.2260    7.5040  -68.8770 C.ar  258  HIS258      0.1986
     89  NE2      -11.4700    7.1370  -69.1230 N.ar  258  HIS258     -0.2212
@<TRIPOS>BOND
     1    43    42    2
     2    44    41    1
     3    51    49    1
     4    42    41    1
     5    42    45   am
     6    41    40    1
     7    50    49    1
     8    37    36    2
     9    57    56    1
    10    46    49    1
    11    46    45    1
    12    46    47    1
    13    40    36   am
    14    52    47   am
    15    52    53    1
    16    36    35    1
    17    56    53    1
    18    56    58    1
    19    47    48    2
    20    53    54    1
    21    29    28    2
    22    35    38    1
    23    35    34    1
    24    55    54    2
    25    54    59   am
    26    28    34   am
    27    28    27    1
    28    39    38    1
    29    30    27    1
    30    30    31    1
    31    69    67    1
    32    27    26    1
    33    59    60    1
    34    67    68    1
    35    67    64    1
    36    32    31    2
    37    31    33   am
    38    80    81    1
    39    63    64    1
    40    63    61   am
    41    60    61    1
    42    23    22    2
    43    26    22   am
    44    66    65    2
    45    89    88   ar
    46    89    87   ar
    47    64    65    1
    48    88    86   ar
    49    61    62    2
    50    22    21    1
    51    87    85   ar
    52    65    70   am
    53    81    82    1
    54    81    84    1
    55    86    85   ar
    56    85    84    1
    57    17    15   ar
    58    17    19   ar
    59    15    14   ar
    60    82    83    2
    61    21    20    1
    62    21    24    1
    63    19    18   ar
    64    70    71    1
    65    14    13    1
    66    14    16   ar
    67    20    11   am
    68    13    10    1
    69    74    71    1
    70    74    75    1
    71    25    24    1
    72    71    72    1
    73    18    16   ar
    74    11    10    1
    75    11    12    2
    76    10     9    1
    77    72    73    2
    78    72    76   am
    79     9     3   am
    80     4     3    2
    81    76    77    1
    82     3     2    1
    83    79    78    2
    84    77    78    1
    85     2     1    1
    86     2     5    1
    87     8     6   am
    88     6     5    1
    89     6     7    2
