@<TRIPOS>MOLECULE
tmp/3gvkC03.pdb
 77 70 0 0 0
SMALL
GASTEIGER

@<TRIPOS>ATOM
      1  N        -25.0630   -2.7040  -10.0040 N.3   593  ARG593     -0.1245
      2  CA       -26.0880   -3.2180  -10.9200 C.3   593  ARG593      0.1563
      3  C        -25.9850   -2.5580  -12.2900 C.2   593  ARG593      0.2260
      4  O        -25.3150   -1.5360  -12.4420 O.2   593  ARG593     -0.2867
      5  CB       -27.5050   -3.0090  -10.3470 C.3   593  ARG593      0.0307
      6  CG       -27.9560   -1.5560  -10.2410 C.3   593  ARG593      0.0489
      7  CD       -29.0130   -1.3910   -9.1440 C.3   593  ARG593      0.2205
      8  NE       -29.6630   -0.0780   -9.1650 N.pl3 593  ARG593     -0.0865
      9  CZ       -29.1420    1.0420   -8.6630 C.cat 593  ARG593      0.5346
     10  NH1      -27.9320    1.0400   -8.1150 N.pl3 593  ARG593      0.1354
     11  NH2      -29.8320    2.1780   -8.7320 N.pl3 593  ARG593      0.1354
     12  N        -28.8460   -1.3770  -15.3020 N.3   595  ILE595     -0.1245
     13  CA       -30.2180   -1.2460  -15.7760 C.3   595  ILE595      0.1561
     14  C        -30.2240   -1.2110  -17.3030 C.2   595  ILE595      0.2260
     15  O        -29.5900   -0.3480  -17.9120 O.2   595  ILE595     -0.2867
     16  CB       -30.8870    0.0470  -15.2500 C.3   595  ILE595      0.0252
     17  CG1      -30.8250    0.1110  -13.7200 C.3   595  ILE595      0.0019
     18  CG2      -32.3450    0.1460  -15.7360 C.3   595  ILE595      0.0019
     19  CD1      -31.1140    1.5000  -13.1500 C.3   595  ILE595      0.0001
     20  N        -33.8360    6.3520  -16.6320 N.3   602  THR602     -0.1203
     21  CA       -33.7300    5.3410  -15.5840 C.3   602  THR602      0.1994
     22  C        -35.0820    4.9870  -14.9550 C.2   602  THR602      0.2619
     23  O        -35.2320    3.9010  -14.4040 O.2   602  THR602     -0.2717
     24  CB       -32.7280    5.7490  -14.4870 C.3   602  THR602      0.1784
     25  OG1      -33.1340    6.9930  -13.9080 O.3   602  THR602     -0.2211
     26  CG2      -31.3210    5.8880  -15.0710 C.3   602  THR602      0.0376
     27  N        -36.0550    5.8960  -15.0340 N.am  603  SER603     -0.1937
     28  CA       -37.4280    5.5920  -14.6100 C.3   603  SER603      0.2055
     29  C        -38.0380    4.5310  -15.5180 C.2   603  SER603      0.2644
     30  O        -37.9830    4.6530  -16.7470 O.2   603  SER603     -0.2714
     31  CB       -38.3070    6.8480  -14.6360 C.3   603  SER603      0.2130
     32  OG       -39.6700    6.5220  -14.4040 O.3   603  SER603     -0.2179
     33  N        -38.6280    3.4990  -14.9140 N.am  604  SER604     -0.1935
     34  CA       -39.2690    2.4300  -15.6860 C.3   604  SER604      0.2055
     35  C        -40.5400    2.8910  -16.4070 C.2   604  SER604      0.2643
     36  O        -41.1070    2.1430  -17.2070 O.2   604  SER604     -0.2714
     37  CB       -39.5260    1.1840  -14.8210 C.3   604  SER604      0.2130
     38  OG       -40.4220    1.4450  -13.7510 O.3   604  SER604     -0.2179
     39  N        -40.9750    4.1200  -16.1300 N.am  605  THR605     -0.1950
     40  CA       -42.1010    4.7290  -16.8360 C.3   605  THR605      0.1897
     41  C        -41.7380    4.9740  -18.3110 C.2   605  THR605      0.2313
     42  O        -42.6120    5.0170  -19.1720 O.2   605  THR605     -0.2863
     43  CB       -42.5570    6.0460  -16.1290 C.3   605  THR605      0.1794
     44  OG1      -42.9700    5.7560  -14.7830 O.3   605  THR605     -0.2208
     45  CG2      -43.7130    6.7080  -16.8560 C.3   605  THR605      0.0378
     46  N        -37.7720   -2.6220  -18.5900 N.3   609  GLN609     -0.1245
     47  CA       -36.4460   -2.7370  -17.9850 C.3   609  GLN609      0.1566
     48  C        -36.1280   -4.1480  -17.5180 C.2   609  GLN609      0.2260
     49  O        -37.0120   -4.8940  -17.0930 O.2   609  GLN609     -0.2867
     50  CB       -36.2910   -1.7620  -16.8040 C.3   609  GLN609      0.0367
     51  CG       -36.2880   -0.2890  -17.2040 C.3   609  GLN609      0.0905
     52  CD       -35.9650    0.6670  -16.0570 C.2   609  GLN609      0.2608
     53  OE1      -35.7000    1.8480  -16.2890 O.2   609  GLN609     -0.2717
     54  NE2      -35.9880    0.1680  -14.8270 N.am  609  GLN609     -0.0878
     55  N        -33.0550   -5.4320  -14.8560 N.3   611  THR611     -0.1218
     56  CA       -31.9460   -4.9820  -14.0220 C.3   611  THR611      0.1862
     57  C        -31.2090   -6.1840  -13.4410 C.2   611  THR611      0.2287
     58  O        -31.8100   -7.0350  -12.7800 O.2   611  THR611     -0.2866
     59  CB       -32.4300   -4.0150  -12.9160 C.3   611  THR611      0.1770
     60  OG1      -33.1390   -2.9330  -13.5290 O.3   611  THR611     -0.2211
     61  CG2      -31.2490   -3.4410  -12.1160 C.3   611  THR611      0.0375
     62  N        -39.1170   -5.9790  -15.6220 N.3   626  ASN626     -0.1240
     63  CA       -40.2200   -5.0400  -15.4520 C.3   626  ASN626      0.1653
     64  C        -40.7690   -4.5170  -16.7810 C.2   626  ASN626      0.2266
     65  O        -40.2250   -3.5840  -17.3760 O.2   626  ASN626     -0.2867
     66  CB       -39.7780   -3.8870  -14.5450 C.3   626  ASN626      0.1155
     67  CG       -40.8850   -2.8810  -14.2800 C.2   626  ASN626      0.2627
     68  OD1      -42.0630   -3.1500  -14.5130 O.2   626  ASN626     -0.2716
     69  ND2      -40.5040   -1.7120  -13.7880 N.am  626  ASN626     -0.0877
     70  N        -44.7950   -4.1940  -19.1530 N.3   628  ASP628     -0.1239
     71  CA       -46.2540   -4.2900  -19.0980 C.3   628  ASP628      0.1674
     72  C        -46.7560   -5.5470  -19.8020 C.2   628  ASP628      0.2266
     73  O        -47.9540   -5.8540  -19.7780 O.2   628  ASP628     -0.2867
     74  CB       -46.8910   -3.0260  -19.6740 C.3   628  ASP628      0.1410
     75  CG       -46.7330   -1.8230  -18.7520 C.2   628  ASP628      0.3668
     76  OD1      -46.3590   -2.0030  -17.5680 O.co2 628  ASP628     -0.2456
     77  OD2      -46.9850   -0.6930  -19.2180 O.co2 628  ASP628     -0.2456
@<TRIPOS>BOND
     1    72    73    2
     2    72    71    1
     3    74    71    1
     4    74    75    1
     5    77    75   ar
     6    42    41    2
     7    70    71    1
     8    75    76   ar
     9    46    47    1
    10    41    40    1
    11    47    48    1
    12    47    50    1
    13    15    14    2
    14    48    49    2
    15    65    64    2
    16    14    13    1
    17    36    35    2
    18    51    50    1
    19    51    52    1
    20    45    43    1
    21    40    39    1
    22    40    43    1
    23    64    63    1
    24    30    29    2
    25    20    21    1
    26    35    39   am
    27    35    34    1
    28    53    52    2
    29    43    44    1
    30    52    54   am
    31    13    12    1
    32    13    16    1
    33    18    16    1
    34    34    33    1
    35    34    37    1
    36    62    63    1
    37    21    22    1
    38    21    24    1
    39    29    33   am
    40    29    28    1
    41    63    66    1
    42    16    17    1
    43    26    24    1
    44    27    22   am
    45    27    28    1
    46    22    23    2
    47    55    56    1
    48    37    38    1
    49    31    28    1
    50    31    32    1
    51    66    67    1
    52    68    67    2
    53    24    25    1
    54    67    69   am
    55    56    57    1
    56    56    59    1
    57    17    19    1
    58    60    59    1
    59    57    58    2
    60    59    61    1
    61     4     3    2
    62     3     2    1
    63     2     5    1
    64     2     1    1
    65     5     6    1
    66     6     7    1
    67     8     7    1
    68     8     9    2
    69    11     9    1
    70     9    10    1
