@<TRIPOS>MOLECULE
tmp/3gvpD01.pdb
 184 176 0 0 0
SMALL
GASTEIGER

@<TRIPOS>ATOM
      1  N        -29.3850   43.8390  115.4810 N.3   193  ASP193     -0.1225
      2  CA       -29.4030   44.3960  116.8050 C.3   193  ASP193      0.1805
      3  C        -28.0050   44.3580  117.5100 C.2   193  ASP193      0.2597
      4  O        -27.6320   45.3270  118.1710 O.2   193  ASP193     -0.2718
      5  CB       -30.5030   43.7180  117.6400 C.3   193  ASP193      0.1424
      6  CG       -31.9220   43.8260  116.9870 C.2   193  ASP193      0.3668
      7  OD1      -32.1180   44.5990  116.0000 O.co2 193  ASP193     -0.2456
      8  OD2      -32.8470   43.1040  117.4700 O.co2 193  ASP193     -0.2456
      9  N        -27.2230   43.2950  117.3050 N.am  194  ASN194     -0.1974
     10  CA       -25.9510   43.1090  118.0230 C.3   194  ASN194      0.1688
     11  C        -24.7030   43.6720  117.3500 C.2   194  ASN194      0.2292
     12  O        -23.8370   44.2300  118.0440 O.2   194  ASN194     -0.2864
     13  CB       -25.6790   41.6200  118.2950 C.3   194  ASN194      0.1181
     14  CG       -26.7040   40.9920  119.2370 C.2   194  ASN194      0.2629
     15  OD1      -27.2830   41.6730  120.0750 O.2   194  ASN194     -0.2716
     16  ND2      -26.9310   39.6840  119.0920 N.am  194  ASN194     -0.0877
     17  N        -26.0770   47.3010  113.7980 N.3   197  CYS197     -0.1221
     18  CA       -26.5280   48.5220  114.4220 C.3   197  CYS197      0.1808
     19  C        -25.5070   49.1990  115.2910 C.2   197  CYS197      0.2601
     20  O        -25.3340   50.4110  115.2020 O.2   197  CYS197     -0.2717
     21  CB       -27.8030   48.2750  115.1950 C.3   197  CYS197      0.0970
     22  SG       -29.1260   48.1110  113.9770 S.3   197  CYS197     -0.0800
     23  N        -24.8370   48.4100  116.1200 N.am  198  CYS198     -0.1970
     24  CA       -23.8240   48.9160  117.0460 C.3   198  CYS198      0.1712
     25  C        -22.5880   49.5190  116.3620 C.2   198  CYS198      0.2296
     26  O        -22.0890   50.5150  116.8250 O.2   198  CYS198     -0.2864
     27  CB       -23.4060   47.8130  118.0190 C.3   198  CYS198      0.0983
     28  SG       -24.6740   47.5000  119.2790 S.3   198  CYS198     -0.0798
     29  N        -15.0450   44.0500  126.9770 N.3   223  GLY223     -0.1210
     30  CA       -15.8610   42.9690  126.4160 C.3   223  GLY223      0.1956
     31  C        -15.7250   42.8560  124.9090 C.2   223  GLY223      0.2612
     32  O        -15.8630   43.8470  124.1980 O.2   223  GLY223     -0.2717
     33  N        -15.4940   41.6210  124.4450 N.am  224  TYR224     -0.1962
     34  CA       -15.3920   41.2890  123.0470 C.3   224  TYR224      0.1771
     35  C        -16.3620   40.1840  122.5990 C.2   224  TYR224      0.2620
     36  O        -15.9660   39.2450  121.8890 O.2   224  TYR224     -0.2715
     37  CB       -13.9570   40.8850  122.7370 C.3   224  TYR224      0.0574
     38  CG       -13.5220   41.1140  121.3030 C.ar  224  TYR224     -0.0198
     39  CD1      -13.3140   42.3970  120.8110 C.ar  224  TYR224     -0.0009
     40  CD2      -13.2270   40.0460  120.4740 C.ar  224  TYR224     -0.0009
     41  CE1      -12.8820   42.6100  119.5130 C.ar  224  TYR224      0.0417
     42  CE2      -12.7850   40.2380  119.1890 C.ar  224  TYR224      0.0417
     43  CZ       -12.6050   41.5160  118.6980 C.ar  224  TYR224      0.1957
     44  OH       -12.1850   41.6810  117.3880 O.3   224  TYR224     -0.2866
     45  N        -17.6300   40.3190  122.9660 N.am  225  GLY225     -0.1940
     46  CA       -18.6980   39.5510  122.3220 C.3   225  GLY225      0.2014
     47  C        -19.1390   40.2720  121.0520 C.2   225  GLY225      0.2639
     48  O        -18.4240   41.1480  120.5180 O.2   225  GLY225     -0.2714
     49  N        -20.3420   39.9700  120.5810 N.am  226  GLU226     -0.1963
     50  CA       -20.7710   40.5650  119.3330 C.3   226  GLU226      0.1733
     51  C        -20.7350   42.0810  119.3830 C.2   226  GLU226      0.2616
     52  O        -20.3280   42.7060  118.4250 O.2   226  GLU226     -0.2715
     53  CB       -22.1920   40.1220  118.9380 C.3   226  GLU226      0.0429
     54  CG       -22.2760   38.7180  118.3740 C.3   226  GLU226      0.1163
     55  CD       -21.4340   38.5520  117.1170 C.2   226  GLU226      0.3649
     56  OE1      -21.8390   39.1230  116.0630 O.co2 226  GLU226     -0.2457
     57  OE2      -20.3750   37.8540  117.2000 O.co2 226  GLU226     -0.2457
     58  N        -21.2450   42.6620  120.4710 N.am  227  VAL227     -0.1963
     59  CA       -21.3370   44.1020  120.5740 C.3   227  VAL227      0.1727
     60  C        -19.9320   44.7230  120.6300 C.2   227  VAL227      0.2616
     61  O        -19.6820   45.6690  119.9270 O.2   227  VAL227     -0.2715
     62  CB       -22.2080   44.5610  121.8050 C.3   227  VAL227      0.0290
     63  CG1      -22.0530   46.0690  122.0590 C.3   227  VAL227      0.0023
     64  CG2      -23.6800   44.1820  121.5980 C.3   227  VAL227      0.0023
     65  N        -19.0440   44.2030  121.4720 N.am  228  GLY228     -0.1955
     66  CA       -17.6600   44.7070  121.5360 C.3   228  GLY228      0.1869
     67  C        -16.8970   44.5530  120.2190 C.2   228  GLY228      0.2309
     68  O        -16.2230   45.4660  119.7780 O.2   228  GLY228     -0.2863
     69  N        -10.5690   44.5510  126.6780 N.3   245  THR245     -0.1203
     70  CA       -10.5470   43.7590  127.9210 C.3   245  THR245      0.1994
     71  C        -11.5230   42.5840  127.7470 C.2   245  THR245      0.2618
     72  O        -12.5370   42.6970  127.0620 O.2   245  THR245     -0.2717
     73  CB       -10.9300   44.5850  129.1970 C.3   245  THR245      0.1784
     74  OG1      -12.3550   44.7040  129.2740 O.3   245  THR245     -0.2211
     75  CG2      -10.3200   45.9940  129.2050 C.3   245  THR245      0.0376
     76  N        -11.1930   41.4520  128.3610 N.am  246  GLU246     -0.1965
     77  CA       -12.0990   40.3020  128.3860 C.3   246  GLU246      0.1733
     78  C        -11.8260   39.4500  129.6020 C.2   246  GLU246      0.2616
     79  O        -10.7280   39.4840  130.1570 O.2   246  GLU246     -0.2715
     80  CB       -11.9220   39.4320  127.1350 C.3   246  GLU246      0.0429
     81  CG       -13.0090   39.5730  126.1370 C.3   246  GLU246      0.1163
     82  CD       -14.3170   38.9360  126.5700 C.2   246  GLU246      0.3649
     83  OE1      -15.3130   39.1710  125.8650 O.co2 246  GLU246     -0.2457
     84  OE2      -14.3570   38.2240  127.6040 O.co2 246  GLU246     -0.2457
     85  N        -12.8350   38.6730  129.9900 N.am  247  ILE247     -0.1963
     86  CA       -12.6540   37.6210  131.0040 C.3   247  ILE247      0.1727
     87  C        -12.6420   36.1770  130.4260 C.2   247  ILE247      0.2616
     88  O        -12.2980   35.2140  131.1270 O.2   247  ILE247     -0.2715
     89  CB       -13.7390   37.7490  132.0890 C.3   247  ILE247      0.0290
     90  CG1      -15.1210   37.4840  131.4740 C.3   247  ILE247      0.0022
     91  CG2      -13.6350   39.1420  132.7800 C.3   247  ILE247      0.0023
     92  CD1      -16.1620   37.0290  132.4280 C.3   247  ILE247      0.0001
     93  N        -13.0400   36.0390  129.1670 N.am  248  ASP248     -0.1971
     94  CA       -13.1910   34.7500  128.5190 C.3   248  ASP248      0.1709
     95  C        -12.0030   34.6070  127.5770 C.2   248  ASP248      0.2293
     96  O        -11.8470   35.4190  126.6590 O.2   248  ASP248     -0.2864
     97  CB       -14.4980   34.7140  127.7400 C.3   248  ASP248      0.1436
     98  CG       -14.6750   33.4360  126.9090 C.2   248  ASP248      0.3671
     99  OD1      -13.7680   32.5800  126.8360 O.co2 248  ASP248     -0.2456
    100  OD2      -15.7430   33.2970  126.2770 O.co2 248  ASP248     -0.2456
    101  N        -12.5930   34.5240  123.6880 N.3   251  CYS251     -0.1235
    102  CA       -12.8490   35.8810  123.1810 C.3   251  CYS251      0.1677
    103  C        -11.5790   36.7150  123.2000 C.2   251  CYS251      0.2270
    104  O        -11.3550   37.5160  122.3140 O.2   251  CYS251     -0.2867
    105  CB       -13.9200   36.5800  124.0070 C.3   251  CYS251      0.0956
    106  SG       -15.5740   35.8720  123.8140 S.3   251  CYS251     -0.0801
    107  N        -19.0770   47.0530  127.0700 N.3   278  CYS278     -0.1221
    108  CA       -19.9070   46.1490  126.2530 C.3   278  CYS278      0.1808
    109  C        -19.9870   44.7590  126.8610 C.2   278  CYS278      0.2602
    110  O        -19.9830   43.7580  126.1160 O.2   278  CYS278     -0.2717
    111  CB       -19.2810   45.9620  124.8540 C.3   278  CYS278      0.0970
    112  SG       -18.9070   47.4520  123.9890 S.3   278  CYS278     -0.0800
    113  N        -20.0640   44.7070  128.1900 N.am  279  THR279     -0.1939
    114  CA       -19.8960   43.4720  128.9180 C.3   279  THR279      0.2028
    115  C        -21.1780   42.7470  129.3610 C.2   279  THR279      0.2643
    116  O        -21.1310   41.5700  129.4930 O.2   279  THR279     -0.2714
    117  CB       -19.0280   43.6640  130.1570 C.3   279  THR279      0.1808
    118  OG1      -19.7250   44.4640  131.1230 O.3   279  THR279     -0.2208
    119  CG2      -17.7070   44.3080  129.7550 C.3   279  THR279      0.0379
    120  N        -22.3020   43.4180  129.6050 N.am  280  GLY280     -0.1939
    121  CA       -23.4120   42.7230  130.2990 C.3   280  GLY280      0.2014
    122  C        -23.1570   42.5270  131.7980 C.2   280  GLY280      0.2638
    123  O        -23.9020   41.8140  132.4810 O.2   280  GLY280     -0.2714
    124  N        -22.1180   43.1730  132.3180 N.am  281  ASN281     -0.1972
    125  CA       -21.6650   42.9710  133.6740 C.3   281  ASN281      0.1688
    126  C        -21.7600   44.3040  134.4340 C.2   281  ASN281      0.2292
    127  O        -21.9600   45.3700  133.8280 O.2   281  ASN281     -0.2864
    128  CB       -20.2220   42.4260  133.6420 C.3   281  ASN281      0.1181
    129  CG       -19.8360   41.6210  134.8970 C.2   281  ASN281      0.2629
    130  OD1      -20.4980   41.6820  135.9340 O.2   281  ASN281     -0.2716
    131  ND2      -18.7220   40.8990  134.8090 N.am  281  ASN281     -0.0877
    132  N        -17.7670   47.4840  135.9910 N.3   284  VAL284     -0.1245
    133  CA       -16.6120   47.2690  135.1440 C.3   284  VAL284      0.1561
    134  C        -15.7160   48.5170  135.1870 C.2   284  VAL284      0.2260
    135  O        -14.5050   48.4030  135.2170 O.2   284  VAL284     -0.2867
    136  CB       -17.0820   46.8880  133.7160 C.3   284  VAL284      0.0252
    137  CG1      -15.9230   46.8290  132.7460 C.3   284  VAL284      0.0019
    138  CG2      -17.8470   45.5300  133.8060 C.3   284  VAL284      0.0019
    139  N        -22.3470   50.6830  125.9980 N.3   302  MET302     -0.1230
    140  CA       -23.0390   50.0570  124.8670 C.3   302  MET302      0.1702
    141  C        -23.5690   48.6760  125.2460 C.2   302  MET302      0.2593
    142  O        -24.0440   47.9510  124.3830 O.2   302  MET302     -0.2718
    143  CB       -22.1200   49.9460  123.6580 C.3   302  MET302      0.0401
    144  CG       -21.8340   51.2630  122.9690 C.3   302  MET302      0.0596
    145  SD       -23.2650   51.9270  122.0900 S.3   302  MET302     -0.1393
    146  CE       -23.4700   50.6950  120.7730 C.3   302  MET302      0.0692
    147  N        -23.5400   48.3500  126.5410 N.am  303  GLY303     -0.1942
    148  CA       -23.9170   47.0350  127.0180 C.3   303  GLY303      0.2014
    149  C        -25.3230   47.0340  127.5590 C.2   303  GLY303      0.2638
    150  O        -26.2930   47.0790  126.7970 O.2   303  GLY303     -0.2714
    151  N        -25.4440   46.9780  128.8760 N.am  304  HIS304     -0.1973
    152  CA       -26.7560   46.9320  129.5110 C.3   304  HIS304      0.1656
    153  C        -26.9200   47.9000  130.6820 C.2   304  HIS304      0.2291
    154  O        -25.9520   48.3330  131.3440 O.2   304  HIS304     -0.2864
    155  CB       -27.0810   45.5020  129.9430 C.3   304  HIS304      0.0771
    156  CG       -26.6250   45.1670  131.3250 C.ar  304  HIS304      0.0820
    157  ND1      -25.3440   45.4140  131.7660 N.ar  304  HIS304     -0.2267
    158  CD2      -27.2860   44.6000  132.3700 C.ar  304  HIS304      0.1154
    159  CE1      -25.2350   45.0190  133.0280 C.ar  304  HIS304      0.1986
    160  NE2      -26.4020   44.5270  133.4190 N.ar  304  HIS304     -0.2212
    161  N        -27.4860   53.0860  127.7990 N.3   347  LEU347     -0.1245
    162  CA       -27.1130   52.7340  126.4130 C.3   347  LEU347      0.1561
    163  C        -27.0640   53.9570  125.5230 C.2   347  LEU347      0.2260
    164  O        -28.0710   54.6300  125.3030 O.2   347  LEU347     -0.2867
    165  CB       -28.0570   51.6860  125.8020 C.3   347  LEU347      0.0270
    166  CG       -27.6120   50.2480  126.0490 C.3   347  LEU347      0.0019
    167  CD1      -27.4930   49.9860  127.5070 C.3   347  LEU347      0.0001
    168  CD2      -28.6050   49.3150  125.4070 C.3   347  LEU347      0.0001
    169  N        -26.6820   54.4030  122.3700 N.3   349  ASN349     -0.1225
    170  CA       -27.4250   54.3570  121.1190 C.3   349  ASN349      0.1785
    171  C        -28.9120   54.6350  121.2930 C.2   349  ASN349      0.2597
    172  O        -29.5250   55.2170  120.4200 O.2   349  ASN349     -0.2718
    173  CB       -27.2280   53.0080  120.4020 C.3   349  ASN349      0.1169
    174  CG       -27.4850   51.8340  121.3030 C.2   349  ASN349      0.2627
    175  OD1      -26.8760   51.7130  122.3730 O.2   349  ASN349     -0.2716
    176  ND2      -28.3850   50.9650  120.8940 N.am  349  ASN349     -0.0877
    177  N        -29.4730   54.2590  122.4310 N.am  350  LEU350     -0.1980
    178  CA       -30.8880   54.4650  122.6770 C.3   350  LEU350      0.1596
    179  C        -31.2580   55.9430  122.6860 C.2   350  LEU350      0.2287
    180  O        -32.3470   56.3130  122.2530 O.2   350  LEU350     -0.2864
    181  CB       -31.3090   53.8190  124.0030 C.3   350  LEU350      0.0297
    182  CG       -31.2460   52.3010  123.9770 C.3   350  LEU350      0.0022
    183  CD1      -31.9410   51.7390  125.1890 C.3   350  LEU350      0.0001
    184  CD2      -31.8780   51.7600  122.6610 C.3   350  LEU350      0.0001
@<TRIPOS>BOND
     1    17    18    1
     2    22    21    1
     3    18    21    1
     4    18    19    1
     5    20    19    2
     6    19    23   am
     7     1     2    1
     8     7     6   ar
     9    56    55   ar
    10    23    24    1
    11    25    26    2
    12    25    24    1
    13     2     3    1
    14     2     5    1
    15     6     8   ar
    16     6     5    1
    17    24    27    1
    18    55    57   ar
    19    55    54    1
    20     9     3   am
    21     9    10    1
    22    11    10    1
    23    11    12    2
    24    44    43    1
    25     3     4    2
    26    27    28    1
    27    10    13    1
    28    13    14    1
    29    54    53    1
    30    52    51    2
    31    43    42   ar
    32    43    41   ar
    33    53    50    1
    34    16    14   am
    35    42    40   ar
    36    14    15    2
    37    50    51    1
    38    50    49    1
    39    51    58   am
    40    41    39   ar
    41    68    67    2
    42    61    60    2
    43    67    66    1
    44   173   170    1
    45   173   174    1
    46   172   171    2
    47    58    59    1
    48    40    38   ar
    49    48    47    2
    50    59    60    1
    51    59    62    1
    52    49    47   am
    53    60    65   am
    54   146   145    1
    55    39    38   ar
    56   176   174   am
    57    47    46    1
    58   170   171    1
    59   170   169    1
    60   171   177   am
    61    38    37    1
    62   174   175    2
    63    65    66    1
    64    64    62    1
    65    62    63    1
    66    36    35    2
    67   145   144    1
    68   180   179    2
    69   104   103    2
    70    46    45    1
    71   177   178    1
    72    35    45   am
    73    35    34    1
    74   184   182    1
    75   178   179    1
    76   178   181    1
    77    37    34    1
    78   144   143    1
    79    34    33    1
    80   102   103    1
    81   102   101    1
    82   102   105    1
    83   143   140    1
    84   106   105    1
    85   182   181    1
    86   182   183    1
    87   112   111    1
    88    32    31    2
    89   142   141    2
    90    33    31   am
    91   111   108    1
    92   140   141    1
    93   140   139    1
    94    31    30    1
    95   141   147   am
    96   164   163    2
    97   168   166    1
    98   163   162    1
    99   165   166    1
   100   165   162    1
   101    83    82   ar
   102   166   167    1
   103   110   109    2
   104    81    82    1
   105    81    80    1
   106   108   109    1
   107   108   107    1
   108   100    98   ar
   109   162   161    1
   110    30    29    1
   111   147   148    1
   112    82    84   ar
   113    96    95    2
   114    69    70    1
   115   150   149    2
   116    99    98   ar
   117   109   113   am
   118    98    97    1
   119   148   149    1
   120    72    71    2
   121    80    77    1
   122   149   151   am
   123    95    94    1
   124    97    94    1
   125    71    70    1
   126    71    76   am
   127    70    73    1
   128   113   114    1
   129    76    77    1
   130    77    78    1
   131    94    93    1
   132   151   152    1
   133   114   115    1
   134   114   117    1
   135    93    87   am
   136    73    75    1
   137    73    74    1
   138   115   116    2
   139   115   120   am
   140   152   155    1
   141   152   153    1
   142    78    85   am
   143    78    79    2
   144   120   121    1
   145   119   117    1
   146   155   156    1
   147    85    86    1
   148   117   118    1
   149   121   122    1
   150    87    86    1
   151    87    88    2
   152   153   154    2
   153    86    89    1
   154   156   157   ar
   155   156   158   ar
   156    90    89    1
   157    90    92    1
   158   157   159   ar
   159   122   124   am
   160   122   123    2
   161    89    91    1
   162   124   125    1
   163   158   160   ar
   164   137   136    1
   165   159   160   ar
   166   128   125    1
   167   128   129    1
   168   125   126    1
   169   136   138    1
   170   136   133    1
   171   127   126    2
   172   131   129   am
   173   129   130    2
   174   133   134    1
   175   133   132    1
   176   134   135    2
