@<TRIPOS>MOLECULE
tmp/3gvpA00.pdb
 188 177 0 0 0
SMALL
GASTEIGER

@<TRIPOS>ATOM
      1  N         16.6960   54.5930   91.6000 N.3   165  VAL165     -0.1245
      2  CA        16.9130   55.6080   92.6220 C.3   165  VAL165      0.1561
      3  C         18.3820   56.0340   92.5940 C.2   165  VAL165      0.2260
      4  O         18.7040   57.2000   92.4010 O.2   165  VAL165     -0.2867
      5  CB        16.5210   55.0460   94.0290 C.3   165  VAL165      0.0252
      6  CG1       16.7850   56.0510   95.1330 C.3   165  VAL165      0.0019
      7  CG2       15.0670   54.6270   94.0540 C.3   165  VAL165      0.0019
      8  N          5.4810   50.8700   92.3270 N.3   195  ASP195     -0.1225
      9  CA         6.7590   50.5640   92.9310 C.3   195  ASP195      0.1805
     10  C          6.7650   50.7510   94.4630 C.2   195  ASP195      0.2597
     11  O          7.3430   49.9730   95.1650 O.2   195  ASP195     -0.2718
     12  CB         7.8620   51.3830   92.2650 C.3   195  ASP195      0.1424
     13  CG         7.9900   51.0760   90.7590 C.2   195  ASP195      0.3668
     14  OD1        7.3320   50.1220   90.2500 O.co2 195  ASP195     -0.2456
     15  OD2        8.7390   51.8110   90.0820 O.co2 195  ASP195     -0.2456
     16  N          6.0970   51.7700   94.9750 N.am  196  ASN196     -0.1974
     17  CA         6.1190   52.0340   96.3920 C.3   196  ASN196      0.1688
     18  C          5.0110   51.2670   97.1220 C.2   196  ASN196      0.2292
     19  O          5.2430   50.1420   97.6130 O.2   196  ASN196     -0.2864
     20  CB         6.0460   53.5330   96.6340 C.3   196  ASN196      0.1181
     21  CG         7.2310   54.2660   96.0590 C.2   196  ASN196      0.2629
     22  OD1        8.2660   53.6690   95.7140 O.2   196  ASN196     -0.2716
     23  ND2        7.1000   55.5950   95.9670 N.am  196  ASN196     -0.0877
     24  N          3.2230   47.4670   95.4450 N.3   199  CYS199     -0.1221
     25  CA         4.1450   46.3470   95.5240 C.3   199  CYS199      0.1808
     26  C          4.5230   45.9050   96.9160 C.2   199  CYS199      0.2601
     27  O          4.5310   44.7030   97.2080 O.2   199  CYS199     -0.2717
     28  CB         5.3820   46.6540   94.7350 C.3   199  CYS199      0.0970
     29  SG         4.9750   46.3790   93.0030 S.3   199  CYS199     -0.0800
     30  N          4.8270   46.8710   97.7760 N.am  200  CYS200     -0.1970
     31  CA         5.2520   46.5510   99.1230 C.3   200  CYS200      0.1712
     32  C          4.1380   45.9360   99.9550 C.2   200  CYS200      0.2296
     33  O          4.3820   44.9990  100.6970 O.2   200  CYS200     -0.2864
     34  CB         5.8560   47.7710   99.7970 C.3   200  CYS200      0.0983
     35  SG         7.3810   48.2020   98.9710 S.3   200  CYS200     -0.0798
     36  N          9.5300   54.0610  109.7490 N.3   225  GLY225     -0.1225
     37  CA         9.3170   54.8930  108.5790 C.3   225  GLY225      0.1811
     38  C          7.8990   54.7470  108.0730 C.2   225  GLY225      0.2280
     39  O          7.3620   53.6640  108.0010 O.2   225  GLY225     -0.2866
     40  N          6.6540   56.5840  105.1600 N.3   227  GLY227     -0.1210
     41  CA         6.4320   57.0360  103.7720 C.3   227  GLY227      0.1956
     42  C          5.5700   56.0150  103.0500 C.2   227  GLY227      0.2612
     43  O          4.9580   55.1580  103.6850 O.2   227  GLY227     -0.2717
     44  N          5.5230   56.0680  101.7330 N.am  228  GLU228     -0.1965
     45  CA         4.6680   55.1390  101.0000 C.3   228  GLU228      0.1733
     46  C          4.9870   53.6910  101.2940 C.2   228  GLU228      0.2616
     47  O          4.0730   52.8900  101.4590 O.2   228  GLU228     -0.2715
     48  CB         4.7150   55.3910   99.4840 C.3   228  GLU228      0.0429
     49  CG         4.0560   56.7120   99.0420 C.3   228  GLU228      0.1163
     50  CD         2.5830   56.6910   99.3490 C.2   228  GLU228      0.3649
     51  OE1        1.8570   55.8890   98.7000 O.co2 228  GLU228     -0.2457
     52  OE2        2.1520   57.4430  100.2620 O.co2 228  GLU228     -0.2457
     53  N          6.2710   53.3360  101.3490 N.am  229  VAL229     -0.1963
     54  CA         6.6390   51.9360  101.6140 C.3   229  VAL229      0.1727
     55  C          6.1560   51.4760  103.0010 C.2   229  VAL229      0.2616
     56  O          5.4690   50.4580  103.1140 O.2   229  VAL229     -0.2715
     57  CB         8.1590   51.7050  101.4430 C.3   229  VAL229      0.0290
     58  CG1        8.5870   50.2900  101.9480 C.3   229  VAL229      0.0023
     59  CG2        8.5570   51.9610   99.9920 C.3   229  VAL229      0.0023
     60  N          6.5090   52.2300  104.0440 N.am  230  GLY230     -0.1955
     61  CA         6.0570   51.9090  105.3940 C.3   230  GLY230      0.1869
     62  C          4.5500   51.8650  105.5110 C.2   230  GLY230      0.2309
     63  O          3.9910   50.9270  106.0760 O.2   230  GLY230     -0.2863
     64  N          7.4440   54.0830  113.8500 N.3   247  THR247     -0.1203
     65  CA         8.4190   55.0810  114.2090 C.3   247  THR247      0.1994
     66  C          8.6110   56.0420  113.0240 C.2   247  THR247      0.2618
     67  O          8.5250   55.6560  111.8230 O.2   247  THR247     -0.2717
     68  CB         9.8220   54.5020  114.6280 C.3   247  THR247      0.1784
     69  OG1       10.5640   54.1470  113.4560 O.3   247  THR247     -0.2211
     70  CG2        9.7360   53.3130  115.6270 C.3   247  THR247      0.0376
     71  N          8.8380   57.3020  113.3800 N.am  248  GLU248     -0.1965
     72  CA         9.0940   58.3570  112.4040 C.3   248  GLU248      0.1733
     73  C          9.9420   59.4400  112.9890 C.2   248  GLU248      0.2616
     74  O          9.8440   59.7120  114.1870 O.2   248  GLU248     -0.2715
     75  CB         7.7830   58.9730  111.8920 C.3   248  GLU248      0.0429
     76  CG         7.3950   58.4790  110.4940 C.3   248  GLU248      0.1163
     77  CD         8.3210   58.9600  109.3790 C.2   248  GLU248      0.3649
     78  OE1        8.1290   58.4870  108.2150 O.co2 248  GLU248     -0.2457
     79  OE2        9.1990   59.8340  109.6230 O.co2 248  GLU248     -0.2457
     80  N         10.7850   60.0360  112.1370 N.am  249  ILE249     -0.1963
     81  CA        11.4950   61.2680  112.4670 C.3   249  ILE249      0.1727
     82  C         10.7530   62.5220  111.9380 C.2   249  ILE249      0.2616
     83  O         10.9890   63.6240  112.3940 O.2   249  ILE249     -0.2715
     84  CB        12.9780   61.2560  111.9900 C.3   249  ILE249      0.0290
     85  CG1       13.1000   61.1410  110.4600 C.3   249  ILE249      0.0022
     86  CG2       13.7450   60.1710  112.6870 C.3   249  ILE249      0.0023
     87  CD1       13.2660   62.4740  109.7240 C.3   249  ILE249      0.0001
     88  N          9.8430   62.3430  110.9980 N.am  250  ASP250     -0.1971
     89  CA         9.1430   63.4930  110.3810 C.3   250  ASP250      0.1709
     90  C          7.7790   63.6060  111.0410 C.2   250  ASP250      0.2293
     91  O          6.9730   62.6830  110.9580 O.2   250  ASP250     -0.2864
     92  CB         8.9960   63.2620  108.8710 C.3   250  ASP250      0.1436
     93  CG         8.3230   64.4320  108.1350 C.2   250  ASP250      0.3671
     94  OD1        7.5870   65.2300  108.7390 O.co2 250  ASP250     -0.2456
     95  OD2        8.5200   64.5260  106.9100 O.co2 250  ASP250     -0.2456
     96  N          4.5660   63.0690  108.7610 N.3   253  CYS253     -0.1235
     97  CA         4.3060   61.6510  108.5690 C.3   253  CYS253      0.1677
     98  C          3.8640   60.9250  109.8400 C.2   253  CYS253      0.2270
     99  O          3.0180   60.0680  109.7650 O.2   253  CYS253     -0.2867
    100  CB         5.5210   60.9350  108.0590 C.3   253  CYS253      0.0956
    101  SG         6.1580   61.5710  106.5150 S.3   253  CYS253     -0.0801
    102  N         11.8920   50.6500  106.8550 N.3   280  CYS280     -0.1221
    103  CA        11.3670   51.2570  105.6280 C.3   280  CYS280      0.1808
    104  C         11.7540   52.7260  105.5350 C.2   280  CYS280      0.2602
    105  O         10.9270   53.5330  105.1910 O.2   280  CYS280     -0.2717
    106  CB         9.8290   51.2150  105.6160 C.3   280  CYS280      0.0970
    107  SG         9.0590   49.6430  105.8620 S.3   280  CYS280     -0.0800
    108  N         12.9950   53.0680  105.8650 N.am  281  THR281     -0.1939
    109  CA        13.4080   54.4600  106.1250 C.3   281  THR281      0.2028
    110  C         14.2610   55.0850  105.0330 C.2   281  THR281      0.2643
    111  O         14.2210   56.3070  104.8560 O.2   281  THR281     -0.2714
    112  CB        14.2140   54.5720  107.4580 C.3   281  THR281      0.1808
    113  OG1       15.4970   53.9320  107.3200 O.3   281  THR281     -0.2208
    114  CG2       13.4290   53.9250  108.6500 C.3   281  THR281      0.0379
    115  N         15.0380   54.2730  104.2950 N.am  282  GLY282     -0.1939
    116  CA        16.0570   54.8220  103.3890 C.3   282  GLY282      0.2014
    117  C         17.2270   55.3970  104.1910 C.2   282  GLY282      0.2639
    118  O         18.0440   56.1500  103.6520 O.2   282  GLY282     -0.2714
    119  N         17.3170   55.0400  105.4780 N.am  283  ASN283     -0.1958
    120  CA        18.3180   55.6060  106.4080 C.3   283  ASN283      0.1819
    121  C         19.1970   54.4560  106.8850 C.2   283  ASN283      0.2621
    122  O         18.8580   53.2900  106.6640 O.2   283  ASN283     -0.2715
    123  CB        17.5990   56.2840  107.5960 C.3   283  ASN283      0.1195
    124  CG        18.4810   57.2860  108.3650 C.2   283  ASN283      0.2630
    125  OD1       19.6770   57.4040  108.1200 O.2   283  ASN283     -0.2716
    126  ND2       17.8750   58.0000  109.3160 N.am  283  ASN283     -0.0877
    127  N         20.3080   54.7540  107.5490 N.am  284  LYS284     -0.1977
    128  CA        21.1740   53.6620  108.0720 C.3   284  LYS284      0.1596
    129  C         21.1480   53.5790  109.5850 C.2   284  LYS284      0.2287
    130  O         20.8250   54.5590  110.2660 O.2   284  LYS284     -0.2864
    131  CB        22.6260   53.7960  107.5910 C.3   284  LYS284      0.0298
    132  CG        23.3580   55.0190  108.0510 C.3   284  LYS284      0.0038
    133  CD        24.8790   54.8500  107.7820 C.3   284  LYS284      0.0206
    134  CE        25.5940   56.1780  108.0270 C.3   284  LYS284      0.1093
    135  NZ        27.0910   56.0180  108.2330 N.3   284  LYS284     -0.1314
    136  N         19.2180   52.0760  111.7060 N.3   286  VAL286     -0.1245
    137  CA        17.9110   52.2780  112.3430 C.3   286  VAL286      0.1561
    138  C         17.7150   51.2150  113.3990 C.2   286  VAL286      0.2260
    139  O         17.1370   51.4720  114.4410 O.2   286  VAL286     -0.2867
    140  CB        16.7480   52.2030  111.3130 C.3   286  VAL286      0.0252
    141  CG1       15.3550   52.3880  112.0200 C.3   286  VAL286      0.0019
    142  CG2       16.9790   53.2340  110.2020 C.3   286  VAL286      0.0019
    143  N         12.7920   46.5020  104.3050 N.3   304  MET304     -0.1230
    144  CA        12.0100   46.8260  103.1110 C.3   304  MET304      0.1702
    145  C         12.4000   48.1640  102.5040 C.2   304  MET304      0.2593
    146  O         11.7080   48.6530  101.6190 O.2   304  MET304     -0.2718
    147  CB        10.5130   46.8350  103.4240 C.3   304  MET304      0.0401
    148  CG         9.9340   45.4300  103.6170 C.3   304  MET304      0.0596
    149  SD         9.8850   44.4670  102.0900 S.3   304  MET304     -0.1393
    150  CE         8.5700   45.3000  101.2240 C.3   304  MET304      0.0692
    151  N         13.5140   48.7310  102.9650 N.am  305  GLY305     -0.1942
    152  CA        13.9650   50.0380  102.5180 C.3   305  GLY305      0.2014
    153  C         15.0310   50.0010  101.4300 C.2   305  GLY305      0.2638
    154  O         14.7290   49.7790  100.2620 O.2   305  GLY305     -0.2714
    155  N         16.2710   50.2820  101.7950 N.am  306  HIS306     -0.1973
    156  CA        17.3500   50.3390  100.8210 C.3   306  HIS306      0.1656
    157  C         18.5380   49.5560  101.3380 C.2   306  HIS306      0.2291
    158  O         18.6800   49.3410  102.5660 O.2   306  HIS306     -0.2864
    159  CB        17.7350   51.7870  100.4860 C.3   306  HIS306      0.0771
    160  CG        18.7480   52.3820  101.4250 C.ar  306  HIS306      0.0820
    161  ND1       18.5980   52.3520  102.7970 N.ar  306  HIS306     -0.2267
    162  CD2       19.9150   53.0270  101.1870 C.ar  306  HIS306      0.1154
    163  CE1       19.6510   52.9220  103.3650 C.ar  306  HIS306      0.1986
    164  NE2       20.4620   53.3480  102.4110 N.ar  306  HIS306     -0.2212
    165  N         16.8640   43.9210  101.0280 N.3   349  LEU349     -0.1245
    166  CA        15.4330   44.0500  100.7310 C.3   349  LEU349      0.1561
    167  C         14.7760   42.6980  100.6520 C.2   349  LEU349      0.2260
    168  O         15.1160   41.8880   99.8120 O.2   349  LEU349     -0.2867
    169  CB        15.1950   44.8060   99.4070 C.3   349  LEU349      0.0270
    170  CG        15.1220   46.3360   99.4480 C.3   349  LEU349      0.0019
    171  CD1       16.3620   46.9230  100.1170 C.3   349  LEU349      0.0001
    172  CD2       14.9250   46.9300   98.0300 C.3   349  LEU349      0.0001
    173  N         11.8000   41.7480   99.6520 N.3   351  ASN351     -0.1225
    174  CA        10.9850   41.4330   98.4730 C.3   351  ASN351      0.1785
    175  C         11.8320   40.9890   97.2760 C.2   351  ASN351      0.2597
    176  O         11.4020   40.1410   96.5220 O.2   351  ASN351     -0.2718
    177  CB        10.0700   42.6020   98.1240 C.3   351  ASN351      0.1169
    178  CG        10.8180   43.8900   97.9300 C.2   351  ASN351      0.2627
    179  OD1       11.5280   44.3420   98.8110 O.2   351  ASN351     -0.2716
    180  ND2       10.6750   44.4800   96.7620 N.am  351  ASN351     -0.0877
    181  N         13.0580   41.4950   97.1550 N.am  352  LEU352     -0.1980
    182  CA        13.9180   41.1540   96.0220 C.3   352  LEU352      0.1596
    183  C         14.3710   39.7030   96.0430 C.2   352  LEU352      0.2287
    184  O         14.4730   39.0890   94.9810 O.2   352  LEU352     -0.2864
    185  CB        15.1480   42.0770   95.9410 C.3   352  LEU352      0.0297
    186  CG        14.8120   43.5590   95.7030 C.3   352  LEU352      0.0022
    187  CD1       16.0910   44.4040   95.4840 C.3   352  LEU352      0.0001
    188  CD2       13.8610   43.7340   94.5400 C.3   352  LEU352      0.0001
@<TRIPOS>BOND
     1    15    13   ar
     2    14    13   ar
     3    13    12    1
     4     1     2    1
     5    12     9    1
     6     8     9    1
     7     4     3    2
     8     3     2    1
     9     2     5    1
    10     9    10    1
    11    29    28    1
    12     5     7    1
    13     5     6    1
    14    10    16   am
    15    10    11    2
    16   188   186    1
    17    28    25    1
    18    16    17    1
    19   184   183    2
    20    24    25    1
    21   187   186    1
    22    25    26    1
    23   186   185    1
    24    22    21    2
    25   185   182    1
    26    23    21   am
    27   182   183    1
    28   182   181    1
    29    21    20    1
    30    17    20    1
    31    17    18    1
    32   176   175    2
    33   180   178   am
    34    26    27    2
    35    26    30   am
    36    18    19    2
    37   181   175   am
    38   175   174    1
    39    30    31    1
    40   178   177    1
    41   178   179    2
    42   172   170    1
    43   177   174    1
    44   174   173    1
    45    51    50   ar
    46    35    34    1
    47    49    50    1
    48    49    48    1
    49    31    34    1
    50    31    32    1
    51    50    52   ar
    52   169   170    1
    53   169   166    1
    54   170   171    1
    55    48    45    1
    56   168   167    2
    57    32    33    2
    58    59    57    1
    59   154   153    2
    60   159   156    1
    61   159   160    1
    62   167   166    1
    63   166   165    1
    64   156   157    1
    65   156   155    1
    66    45    46    1
    67    45    44    1
    68   162   160   ar
    69   162   164   ar
    70   150   149    1
    71    46    53   am
    72    46    47    2
    73   157   158    2
    74    53    54    1
    75   160   161   ar
    76   153   155   am
    77   153   152    1
    78    57    54    1
    79    57    58    1
    80    54    55    1
    81   146   145    2
    82    44    42   am
    83   149   148    1
    84   164   163   ar
    85   145   151   am
    86   145   144    1
    87   152   151    1
    88   161   163   ar
    89    55    56    2
    90    55    60   am
    91    42    43    2
    92    42    41    1
    93   144   147    1
    94   144   143    1
    95   116   117    1
    96   116   115    1
    97   147   148    1
    98   118   117    2
    99    41    40    1
   100    60    61    1
   101   117   119   am
   102   115   110   am
   103   111   110    2
   104   110   109    1
   105   105   104    2
   106    61    62    1
   107   119   120    1
   108    62    63    2
   109   104   103    1
   110   104   108   am
   111   106   103    1
   112   106   107    1
   113   103   102    1
   114   108   109    1
   115   109   112    1
   116   120   121    1
   117   120   123    1
   118   101   100    1
   119   122   121    2
   120   121   127   am
   121    95    93   ar
   122   113   112    1
   123   112   114    1
   124   127   128    1
   125   131   132    1
   126   131   128    1
   127   123   124    1
   128   133   134    1
   129   133   132    1
   130    39    38    2
   131   134   135    1
   132   100    97    1
   133   128   129    1
   134    38    37    1
   135   125   124    2
   136    93    94   ar
   137    93    92    1
   138    78    77   ar
   139   124   126   am
   140    97    96    1
   141    97    98    1
   142    37    36    1
   143    92    89    1
   144    77    79   ar
   145    77    76    1
   146   129   130    2
   147    87    85    1
   148    99    98    2
   149   142   140    1
   150    89    88    1
   151    89    90    1
   152    85    84    1
   153    76    75    1
   154    91    90    2
   155    88    82   am
   156   140   141    1
   157   140   137    1
   158   136   137    1
   159    67    66    2
   160    75    72    1
   161    82    83    2
   162    82    81    1
   163    84    81    1
   164    84    86    1
   165    80    81    1
   166    80    73   am
   167   137   138    1
   168    72    73    1
   169    72    71    1
   170    73    74    2
   171    66    71   am
   172    66    65    1
   173   138   139    2
   174    69    68    1
   175    64    65    1
   176    65    68    1
   177    68    70    1
