@<TRIPOS>MOLECULE
tmp/3gvuA01.pdb
 155 147 0 0 0
SMALL
GASTEIGER

@<TRIPOS>ATOM
      1  N          3.4840    7.7610   43.5100 N.3   110  ARG110     -0.1245
      2  CA         4.7120    7.8350   44.2910 C.3   110  ARG110      0.1563
      3  C          4.8800    6.7270   45.3360 C.2   110  ARG110      0.2260
      4  O          5.9370    6.6440   45.9570 O.2   110  ARG110     -0.2867
      5  CB         4.8000    9.1900   44.9580 C.3   110  ARG110      0.0307
      6  CG         4.7850   10.3160   43.9490 C.3   110  ARG110      0.0489
      7  CD         5.0360   11.6410   44.5930 C.3   110  ARG110      0.2205
      8  NE         4.7240   12.7410   43.6850 N.pl3 110  ARG110     -0.0865
      9  CZ         5.0360   14.0140   43.9150 C.cat 110  ARG110      0.5346
     10  NH1        5.6840   14.3630   45.0250 N.pl3 110  ARG110      0.1354
     11  NH2        4.7050   14.9420   43.0270 N.pl3 110  ARG110      0.1354
     12  N         12.0540    6.3340   46.5540 N.3   115  ALA115     -0.1231
     13  CA        13.4090    6.8860   46.4740 C.3   115  ALA115      0.1694
     14  C         14.3460    5.9810   45.6640 C.2   115  ALA115      0.2591
     15  O         15.0960    6.4620   44.8270 O.2   115  ALA115     -0.2718
     16  CB        13.9790    7.1270   47.9130 C.3   115  ALA115      0.0304
     17  N         14.2780    4.6660   45.8790 N.am  116  VAL116     -0.1980
     18  CA        15.1920    3.7410   45.1950 C.3   116  VAL116      0.1595
     19  C         14.9800    3.7650   43.6610 C.2   116  VAL116      0.2287
     20  O         15.9390    3.6990   42.8920 O.2   116  VAL116     -0.2864
     21  CB        15.1520    2.2850   45.7910 C.3   116  VAL116      0.0276
     22  CG1       13.8200    1.5720   45.5310 C.3   116  VAL116      0.0022
     23  CG2       16.2940    1.4670   45.2380 C.3   116  VAL116      0.0022
     24  N         13.8720    6.4140   41.9130 N.3   118  LEU118     -0.1231
     25  CA        14.4590    7.6920   41.4510 C.3   118  LEU118      0.1693
     26  C         15.9750    7.5940   41.2770 C.2   118  LEU118      0.2591
     27  O         16.5530    8.1540   40.3370 O.2   118  LEU118     -0.2718
     28  CB        14.1400    8.8220   42.4290 C.3   118  LEU118      0.0284
     29  CG        12.6620    9.1480   42.6740 C.3   118  LEU118      0.0019
     30  CD1       12.5290   10.1220   43.8190 C.3   118  LEU118      0.0001
     31  CD2       12.0010    9.7130   41.4250 C.3   118  LEU118      0.0001
     32  N         16.6130    6.8660   42.1810 N.am  119  LEU119     -0.1980
     33  CA        18.0540    6.6760   42.1320 C.3   119  LEU119      0.1596
     34  C         18.4130    5.8180   40.9300 C.2   119  LEU119      0.2287
     35  O         19.4000    6.0760   40.2280 O.2   119  LEU119     -0.2864
     36  CB        18.5450    5.9960   43.4180 C.3   119  LEU119      0.0297
     37  CG        20.0240    5.6070   43.3990 C.3   119  LEU119      0.0022
     38  CD1       20.8710    6.8770   43.1940 C.3   119  LEU119      0.0001
     39  CD2       20.4290    4.8030   44.6610 C.3   119  LEU119      0.0001
     40  N         18.0330    7.9240   37.7540 N.3   122  ALA122     -0.1245
     41  CA        19.1610    8.8350   37.6380 C.3   122  ALA122      0.1562
     42  C         20.4440    8.1340   37.2310 C.2   122  ALA122      0.2260
     43  O         21.1800    8.6420   36.3810 O.2   122  ALA122     -0.2867
     44  CB        19.3690    9.5800   38.9530 C.3   122  ALA122      0.0290
     45  N         18.4340   16.1080   37.1700 N.3   200  LEU200     -0.1245
     46  CA        18.4140   15.4670   38.4730 C.3   200  LEU200      0.1561
     47  C         17.4630   16.1830   39.4340 C.2   200  LEU200      0.2260
     48  O         16.7840   15.5420   40.2390 O.2   200  LEU200     -0.2867
     49  CB        19.8350   15.4220   39.0280 C.3   200  LEU200      0.0270
     50  CG        20.0550   14.7870   40.3810 C.3   200  LEU200      0.0019
     51  CD1       19.4470   13.3860   40.3800 C.3   200  LEU200      0.0001
     52  CD2       21.5780   14.8000   40.6470 C.3   200  LEU200      0.0001
     53  N         14.0650   15.0600   38.4590 N.3   203  ILE203     -0.1231
     54  CA        13.8430   13.7470   39.1050 C.3   203  ILE203      0.1692
     55  C         13.5090   13.9170   40.5930 C.2   203  ILE203      0.2591
     56  O         12.4800   13.4350   41.0400 O.2   203  ILE203     -0.2718
     57  CB        15.0430   12.7810   38.9260 C.3   203  ILE203      0.0266
     58  CG1       15.0710   12.2420   37.4940 C.3   203  ILE203      0.0019
     59  CG2       14.9600   11.5960   39.8880 C.3   203  ILE203      0.0020
     60  CD1       16.3720   11.5980   37.0960 C.3   203  ILE203      0.0001
     61  N         14.3410   14.6680   41.3190 N.am  204  ALA204     -0.1980
     62  CA        14.1490   14.9190   42.7550 C.3   204  ALA204      0.1597
     63  C         12.8430   15.6090   43.1370 C.2   204  ALA204      0.2287
     64  O         12.3660   15.4450   44.2730 O.2   204  ALA204     -0.2864
     65  CB        15.3280   15.7200   43.3070 C.3   204  ALA204      0.0319
     66  N          9.9870   15.2760   41.2250 N.3   206  TYR206     -0.1241
     67  CA         8.9370   14.6130   40.4450 C.3   206  TYR206      0.1605
     68  C          8.3840   15.4910   39.3110 C.2   206  TYR206      0.2264
     69  O          7.1740   15.5840   39.0980 O.2   206  TYR206     -0.2867
     70  CB         7.8040   14.1360   41.3590 C.3   206  TYR206      0.0534
     71  CG         8.1650   12.9700   42.2470 C.ar  206  TYR206     -0.0201
     72  CD1        8.6370   13.1690   43.5380 C.ar  206  TYR206     -0.0009
     73  CD2        8.0120   11.6620   41.8020 C.ar  206  TYR206     -0.0009
     74  CE1        8.9510   12.0830   44.3740 C.ar  206  TYR206      0.0417
     75  CE2        8.3240   10.5700   42.6270 C.ar  206  TYR206      0.0417
     76  CZ         8.7910   10.7890   43.9100 C.ar  206  TYR206      0.1957
     77  OH         9.1060    9.7140   44.7130 O.3   206  TYR206     -0.2866
     78  N         12.5950   19.5060   48.5880 N.3   233  GLU233     -0.1231
     79  CA        12.0450   18.7500   49.7060 C.3   233  GLU233      0.1699
     80  C         12.4040   17.2590   49.5790 C.2   233  GLU233      0.2593
     81  O         12.2300   16.6410   48.5090 O.2   233  GLU233     -0.2718
     82  CB        10.5210   18.9110   49.7820 C.3   233  GLU233      0.0402
     83  CG         9.9260   18.6020   51.1700 C.3   233  GLU233      0.1161
     84  CD         8.4020   18.4500   51.1650 C.2   233  GLU233      0.3649
     85  OE1        7.7640   18.7200   50.1270 O.co2 233  GLU233     -0.2457
     86  OE2        7.8410   18.0560   52.2060 O.co2 233  GLU233     -0.2457
     87  N         12.9250   16.7070   50.6750 N.am  234  GLY234     -0.1942
     88  CA        13.2580   15.2880   50.7800 C.3   234  GLY234      0.2014
     89  C         14.5070   14.8710   50.0160 C.2   234  GLY234      0.2639
     90  O         14.8150   13.6870   49.9530 O.2   234  GLY234     -0.2714
     91  N         15.2230   15.8180   49.4090 N.am  235  CYS235     -0.1954
     92  CA        16.3490   15.4430   48.5450 C.3   235  CYS235      0.1828
     93  C         17.5240   15.0850   49.4330 C.2   235  CYS235      0.2467
     94  O         17.9320   15.8960   50.2620 O.2   235  CYS235     -0.2730
     95  CB        16.7570   16.5690   47.6210 C.3   235  CYS235      0.0996
     96  SG        18.1300   16.1530   46.5190 S.3   235  CYS235     -0.0797
     97  N         18.0650   13.8690   49.2770 N.am  236  PRO236     -0.2726
     98  CA        19.1900   13.5150   50.1340 C.3   236  PRO236      0.1402
     99  C         20.3640   14.4450   49.9040 C.2   236  PRO236      0.2269
    100  O         20.5960   14.8470   48.7530 O.2   236  PRO236     -0.2865
    101  CB        19.5240   12.0750   49.7040 C.3   236  PRO236      0.0296
    102  CG        18.2320   11.5330   49.2340 C.3   236  PRO236      0.0237
    103  CD        17.5760   12.7020   48.5170 C.3   236  PRO236      0.0939
    104  N         23.4530   14.0980   49.7050 N.3   238  LYS238     -0.1231
    105  CA        24.4000   13.5900   48.7160 C.3   238  LYS238      0.1693
    106  C         23.9340   13.8540   47.2850 C.2   238  LYS238      0.2591
    107  O         24.7450   14.1450   46.4000 O.2   238  LYS238     -0.2718
    108  CB        24.6160   12.0910   48.9250 C.3   238  LYS238      0.0285
    109  CG        25.1590   11.7150   50.2970 C.3   238  LYS238      0.0035
    110  CD        26.4550   12.4520   50.6460 C.3   238  LYS238      0.0206
    111  CE        27.5410   12.2570   49.5850 C.3   238  LYS238      0.1093
    112  NZ        28.8420   12.8490   50.0020 N.3   238  LYS238     -0.1314
    113  N         22.6280   13.7500   47.0540 N.am  239  VAL239     -0.1980
    114  CA        22.0740   14.0020   45.7220 C.3   239  VAL239      0.1595
    115  C         22.2260   15.4820   45.4240 C.2   239  VAL239      0.2287
    116  O         22.7120   15.8310   44.3820 O.2   239  VAL239     -0.2864
    117  CB        20.6060   13.5730   45.6200 C.3   239  VAL239      0.0276
    118  CG1       20.0700   13.8420   44.2380 C.3   239  VAL239      0.0022
    119  CG2       20.4660   12.1050   45.9800 C.3   239  VAL239      0.0022
    120  N         26.5550    7.9350   42.0490 N.3   264  PHE264     -0.1241
    121  CA        25.2620    7.2750   42.2580 C.3   264  PHE264      0.1605
    122  C         25.4700    5.8350   42.7520 C.2   264  PHE264      0.2264
    123  O         24.7030    5.3380   43.5860 O.2   264  PHE264     -0.2867
    124  CB        24.4360    7.2630   40.9670 C.3   264  PHE264      0.0534
    125  CG        23.8920    8.6080   40.5590 C.ar  264  PHE264     -0.0203
    126  CD1       23.0530    9.3280   41.4070 C.ar  264  PHE264     -0.0042
    127  CD2       24.1790    9.1290   39.2970 C.ar  264  PHE264     -0.0042
    128  CE1       22.5400   10.5490   41.0140 C.ar  264  PHE264     -0.0003
    129  CE2       23.6690   10.3470   38.8990 C.ar  264  PHE264     -0.0003
    130  CZ        22.8440   11.0590   39.7450 C.ar  264  PHE264     -0.0000
    131  N         26.1820    5.8450   46.3650 N.3   267  MET267     -0.1230
    132  CA        24.9690    6.0910   47.1710 C.3   267  MET267      0.1702
    133  C         24.1530    4.8320   47.4360 C.2   267  MET267      0.2592
    134  O         23.3520    4.8060   48.3700 O.2   267  MET267     -0.2718
    135  CB        24.0410    7.0890   46.4900 C.3   267  MET267      0.0401
    136  CG        24.5790    8.4730   46.3870 C.3   267  MET267      0.0596
    137  SD        23.5650    9.4180   45.2710 S.3   267  MET267     -0.1393
    138  CE        24.6490   10.8250   44.9770 C.3   267  MET267      0.0692
    139  N         24.3240    3.8190   46.5910 N.am  268  PHE268     -0.1976
    140  CA        23.6800    2.5330   46.7980 C.3   268  PHE268      0.1639
    141  C         24.4930    1.6760   47.7850 C.2   268  PHE268      0.2290
    142  O         23.9130    0.9120   48.5560 O.2   268  PHE268     -0.2864
    143  CB        23.4550    1.8160   45.4700 C.3   268  PHE268      0.0560
    144  CG        22.5210    0.6320   45.5650 C.ar  268  PHE268     -0.0200
    145  CD1       23.0250   -0.6610   45.7280 C.ar  268  PHE268     -0.0042
    146  CD2       21.1430    0.8050   45.4750 C.ar  268  PHE268     -0.0042
    147  CE1       22.1690   -1.7740   45.7960 C.ar  268  PHE268     -0.0003
    148  CE2       20.2770   -0.3020   45.5490 C.ar  268  PHE268     -0.0003
    149  CZ        20.7970   -1.5930   45.7050 C.ar  268  PHE268     -0.0000
    150  N         23.9220    3.7830   51.6430 N.3   271  SER271     -0.1217
    151  CA        22.5880    3.6580   52.2670 C.3   271  SER271      0.1889
    152  C         21.9360    2.3000   51.9770 C.2   271  SER271      0.2288
    153  O         21.6160    1.5300   52.9000 O.2   271  SER271     -0.2866
    154  CB        21.6670    4.7920   51.7970 C.3   271  SER271      0.2089
    155  OG        21.4150    4.6780   50.4290 O.3   271  SER271     -0.2183
@<TRIPOS>BOND
     1    43    42    2
     2    60    58    1
     3    45    46    1
     4    42    41    1
     5    58    57    1
     6    41    40    1
     7    41    44    1
     8    53    54    1
     9    46    49    1
    10    46    47    1
    11   129   127   ar
    12   129   130   ar
    13    57    54    1
    14    57    59    1
    15    49    50    1
    16    69    68    2
    17    54    55    1
    18   127   125   ar
    19    68    67    1
    20    47    48    2
    21   130   128   ar
    22    35    34    2
    23    27    26    2
    24    51    50    1
    25    50    52    1
    26    67    66    1
    27    67    70    1
    28   125   124    1
    29   125   126   ar
    30    55    56    2
    31    55    61   am
    32    34    33    1
    33   124   121    1
    34   128   126   ar
    35    26    25    1
    36    26    32   am
    37    61    62    1
    38    70    71    1
    39    31    29    1
    40    25    24    1
    41    25    28    1
    42    73    71   ar
    43    73    75   ar
    44   120   121    1
    45    33    32    1
    46    33    36    1
    47    71    72   ar
    48   121   122    1
    49    28    29    1
    50    75    76   ar
    51    29    30    1
    52   122   123    2
    53    62    63    1
    54    62    65    1
    55    20    19    2
    56    11     9    1
    57    63    64    2
    58    38    37    1
    59    37    36    1
    60    37    39    1
    61     1     2    1
    62    72    74   ar
    63    19    18    1
    64     8     9    2
    65     8     7    1
    66    76    74   ar
    67    76    77    1
    68     9    10    1
    69     6     7    1
    70     6     5    1
    71   118   117    1
    72     2     5    1
    73     2     3    1
    74   116   115    2
    75    15    14    2
    76   138   137    1
    77    18    21    1
    78    18    17    1
    79    23    21    1
    80   137   136    1
    81     3     4    2
    82   115   114    1
    83   143   144    1
    84   143   140    1
    85   146   148   ar
    86   146   144   ar
    87    22    21    1
    88   148   149   ar
    89   144   145   ar
    90   117   114    1
    91   117   119    1
    92    14    17   am
    93    14    13    1
    94   149   147   ar
    95   114   113    1
    96   145   147   ar
    97   131   132    1
    98   136   135    1
    99   107   106    2
   100    13    12    1
   101    13    16    1
   102   135   132    1
   103    96    95    1
   104   139   140    1
   105   139   133   am
   106   140   141    1
   107   113   106   am
   108   132   133    1
   109   106   105    1
   110   133   134    2
   111    95    92    1
   112   141   142    2
   113    81    80    2
   114   103   102    1
   115   103    97    1
   116    92    91    1
   117    92    93    1
   118    78    79    1
   119   105   108    1
   120   105   104    1
   121   100    99    2
   122   108   109    1
   123   102   101    1
   124    97    93   am
   125    97    98    1
   126    91    89   am
   127    93    94    2
   128    80    79    1
   129    80    87   am
   130   111   112    1
   131   111   110    1
   132   101    98    1
   133    79    82    1
   134    82    83    1
   135    99    98    1
   136    90    89    2
   137    89    88    1
   138    85    84   ar
   139   109   110    1
   140   155   154    1
   141    87    88    1
   142    84    83    1
   143    84    86   ar
   144   150   151    1
   145   154   151    1
   146   152   151    1
   147   152   153    2
