@<TRIPOS>MOLECULE
tmp/3gvyC00.pdb
 101 95 0 0 0
SMALL
GASTEIGER

@<TRIPOS>ATOM
      1  N         -6.6520   36.4290   24.0090 N.3    19  LEU19      -0.1245
      2  CA        -5.1950   36.3620   23.8000 C.3    19  LEU19       0.1561
      3  C         -4.5470   37.6100   24.3140 C.2    19  LEU19       0.2260
      4  O         -3.5490   37.5530   25.0130 O.2    19  LEU19      -0.2867
      5  CB        -4.8350   36.2030   22.3440 C.3    19  LEU19       0.0270
      6  CG        -5.0500   34.7920   21.8510 C.3    19  LEU19       0.0019
      7  CD1       -5.0670   34.7290   20.3170 C.3    19  LEU19       0.0001
      8  CD2       -4.0100   33.8760   22.4710 C.3    19  LEU19       0.0001
      9  N         -4.6280   37.3860   28.1590 N.3    22  VAL22      -0.1231
     10  CA        -3.5440   36.5250   28.6220 C.3    22  VAL22       0.1692
     11  C         -2.2980   37.3630   28.8440 C.2    22  VAL22       0.2592
     12  O         -1.7390   37.3720   29.9360 O.2    22  VAL22      -0.2718
     13  CB        -3.2080   35.4180   27.5810 C.3    22  VAL22       0.0266
     14  CG1       -2.6290   34.2250   28.2670 C.3    22  VAL22       0.0020
     15  CG2       -4.4420   34.9580   26.8790 C.3    22  VAL22       0.0020
     16  N         -1.9210   38.0910   27.7970 N.am   23  SER23      -0.1952
     17  CA        -0.7090   38.8660   27.7340 C.3    23  SER23       0.1924
     18  C         -0.7110   39.9910   28.7290 C.2    23  SER23       0.2314
     19  O          0.2610   40.1910   29.4500 O.2    23  SER23      -0.2863
     20  CB        -0.5520   39.4460   26.3370 C.3    23  SER23       0.2116
     21  OG        -0.1080   38.4590   25.4310 O.3    23  SER23      -0.2180
     22  N         -0.5190   38.6700   32.1430 N.3    26  TRP26      -0.1241
     23  CA         0.7800   38.0780   32.4120 C.3    26  TRP26       0.1605
     24  C          1.8790   39.1100   32.6180 C.2    26  TRP26       0.2264
     25  O          2.8760   38.8130   33.3080 O.2    26  TRP26      -0.2867
     26  CB         1.2180   37.1010   31.3270 C.3    26  TRP26       0.0550
     27  CG         2.3580   36.2600   31.8330 C.ar   26  TRP26       0.0003
     28  CD1        3.7000   36.5400   31.7490 C.ar   26  TRP26       0.0946
     29  CD2        2.2560   35.0230   32.5470 C.ar   26  TRP26       0.0152
     30  NE1        4.4280   35.5380   32.3490 N.ar   26  TRP26      -0.2442
     31  CE2        3.5630   34.6030   32.8520 C.ar   26  TRP26       0.0810
     32  CE3        1.1870   34.2380   32.9670 C.ar   26  TRP26       0.0012
     33  CZ2        3.8210   33.4310   33.5530 C.ar   26  TRP26       0.0191
     34  CZ3        1.4540   33.0620   33.6620 C.ar   26  TRP26       0.0001
     35  CH2        2.7560   32.6720   33.9400 C.ar   26  TRP26       0.0015
     36  N         -0.9840   36.3190   37.7810 N.3    45  ARG45      -0.1245
     37  CA        -0.5100   35.0660   37.2180 C.3    45  ARG45       0.1563
     38  C         -1.6680   34.1000   36.9650 C.2    45  ARG45       0.2260
     39  O         -1.7610   33.4860   35.9000 O.2    45  ARG45      -0.2867
     40  CB         0.4960   34.4320   38.1660 C.3    45  ARG45       0.0307
     41  CG         1.3520   33.3940   37.5150 C.3    45  ARG45       0.0489
     42  CD         2.3000   32.6650   38.4860 C.3    45  ARG45       0.2205
     43  NE         2.4990   31.3170   37.9510 N.pl3  45  ARG45      -0.0865
     44  CZ         1.6430   30.3030   38.1340 C.cat  45  ARG45       0.5346
     45  NH1        1.8820   29.1180   37.5880 N.pl3  45  ARG45       0.1354
     46  NH2        0.5430   30.4710   38.8670 N.pl3  45  ARG45       0.1354
     47  N         -3.8160   32.7350   33.3850 N.3    49  ILE49      -0.1245
     48  CA        -4.0700   31.3470   33.0630 C.3    49  ILE49       0.1561
     49  C         -5.5690   31.0770   32.8940 C.2    49  ILE49       0.2260
     50  O         -5.9660   30.2430   32.0630 O.2    49  ILE49      -0.2867
     51  CB        -3.4790   30.4560   34.1260 C.3    49  ILE49       0.0252
     52  CG1       -1.9850   30.7600   34.2410 C.3    49  ILE49       0.0019
     53  CG2       -3.7690   29.0030   33.8040 C.3    49  ILE49       0.0019
     54  CD1       -1.2070   29.7370   34.9840 C.3    49  ILE49       0.0001
     55  N         -6.2190   31.7150   29.6020 N.3    52  MET52      -0.1230
     56  CA        -5.4800   30.7900   28.7610 C.3    52  MET52       0.1702
     57  C         -6.4070   29.6810   28.3550 C.2    52  MET52       0.2592
     58  O         -6.3550   29.2190   27.2190 O.2    52  MET52      -0.2718
     59  CB        -4.2390   30.2380   29.4540 C.3    52  MET52       0.0401
     60  CG        -3.1470   31.2360   29.5310 C.3    52  MET52       0.0596
     61  SD        -1.5310   30.5790   29.8580 S.3    52  MET52      -0.1393
     62  CE        -0.8100   32.0970   30.4860 C.3    52  MET52       0.0692
     63  N         -7.2780   29.2720   29.2800 N.am   53  HIS53      -0.1976
     64  CA        -8.2650   28.2500   29.0060 C.3    53  HIS53       0.1656
     65  C         -9.3720   28.7560   28.1120 C.2    53  HIS53       0.2291
     66  O         -9.9540   27.9730   27.3650 O.2    53  HIS53      -0.2864
     67  CB        -8.8860   27.7460   30.2990 C.3    53  HIS53       0.0771
     68  CG        -7.9510   26.9570   31.1440 C.ar   53  HIS53       0.0820
     69  ND1       -7.7150   25.6200   30.9260 N.ar   53  HIS53      -0.2267
     70  CD2       -7.1730   27.3110   32.1920 C.ar   53  HIS53       0.1154
     71  CE1       -6.8330   25.1770   31.8060 C.ar   53  HIS53       0.1986
     72  NE2       -6.4880   26.1840   32.5890 N.ar   53  HIS53      -0.2212
     73  N         -9.0640   31.3030   25.7530 N.3    55  ALA55      -0.1231
     74  CA        -8.4960   31.3880   24.4310 C.3    55  ALA55       0.1694
     75  C         -8.5180   30.0350   23.7960 C.2    55  ALA55       0.2592
     76  O         -8.7940   29.9140   22.6210 O.2    55  ALA55      -0.2718
     77  CB        -7.0960   31.9240   24.4670 C.3    55  ALA55       0.0304
     78  N         -8.2480   29.0100   24.5800 N.am   56  ASP56      -0.1974
     79  CA        -8.2070   27.6630   24.0390 C.3    56  ASP56       0.1709
     80  C         -9.6120   27.1800   23.6070 C.2    56  ASP56       0.2293
     81  O         -9.8090   26.6570   22.4830 O.2    56  ASP56      -0.2864
     82  CB        -7.5490   26.6820   25.0200 C.3    56  ASP56       0.1436
     83  CG        -7.4430   25.2650   24.4500 C.2    56  ASP56       0.3671
     84  OD1       -6.7040   25.0790   23.4700 O.co2  56  ASP56      -0.2456
     85  OD2       -8.1030   24.3330   24.9480 O.co2  56  ASP56      -0.2456
     86  N        -10.5240   28.4840   20.3300 N.3    59  ILE59      -0.1245
     87  CA        -9.8800   27.8160   19.2090 C.3    59  ILE59       0.1561
     88  C        -10.5800   26.4880   18.9140 C.2    59  ILE59       0.2260
     89  O        -10.9540   26.2040   17.7840 O.2    59  ILE59      -0.2867
     90  CB        -8.4040   27.5560   19.4710 C.3    59  ILE59       0.0252
     91  CG1       -7.6050   28.8910   19.5240 C.3    59  ILE59       0.0019
     92  CG2       -7.8670   26.5980   18.3990 C.3    59  ILE59       0.0019
     93  CD1       -6.2830   28.8520   20.3030 C.3    59  ILE59       0.0001
     94  N         -4.6860   33.8620   15.5600 N.3    71  LEU71      -0.1245
     95  CA        -3.9350   34.2770   16.7260 C.3    71  LEU71       0.1561
     96  C         -2.9140   35.3420   16.3230 C.2    71  LEU71       0.2260
     97  O         -2.1540   35.8300   17.1560 O.2    71  LEU71      -0.2867
     98  CB        -3.2470   33.0540   17.3640 C.3    71  LEU71       0.0270
     99  CG        -4.1240   31.8790   17.8390 C.3    71  LEU71       0.0019
    100  CD1       -4.3570   30.8450   16.7570 C.3    71  LEU71       0.0001
    101  CD2       -3.5530   31.2200   19.0590 C.3    71  LEU71       0.0001
@<TRIPOS>BOND
     1    94    95    1
     2    96    95    1
     3    96    97    2
     4    95    98    1
     5   100    99    1
     6    98    99    1
     7    89    88    2
     8    99   101    1
     9    92    90    1
    10    88    87    1
    11    87    90    1
    12    87    86    1
    13    90    91    1
    14    91    93    1
    15     7     6    1
    16     6     5    1
    17     6     8    1
    18     5     2    1
    19    81    80    2
    20    76    75    2
    21    84    83   ar
    22    80    79    1
    23    75    74    1
    24    75    78   am
    25     2     1    1
    26     2     3    1
    27    79    78    1
    28    79    82    1
    29     3     4    2
    30    74    77    1
    31    74    73    1
    32    83    85   ar
    33    83    82    1
    34    21    20    1
    35    20    17    1
    36    15    13    1
    37    58    57    2
    38    66    65    2
    39    13    14    1
    40    13    10    1
    41    17    16    1
    42    17    18    1
    43    16    11   am
    44    65    64    1
    45     9    10    1
    46    57    56    1
    47    57    63   am
    48    10    11    1
    49    18    19    2
    50    56    59    1
    51    56    55    1
    52    11    12    2
    53    64    63    1
    54    64    67    1
    55    59    60    1
    56    60    61    1
    57    61    62    1
    58    67    68    1
    59    69    68   ar
    60    69    71   ar
    61    68    70   ar
    62    26    27    1
    63    26    23    1
    64    28    27   ar
    65    28    30   ar
    66    71    72   ar
    67    27    29   ar
    68    50    49    2
    69    22    23    1
    70    70    72   ar
    71    30    31   ar
    72    23    24    1
    73    29    31   ar
    74    29    32   ar
    75    24    25    2
    76    31    33   ar
    77    49    48    1
    78    32    34   ar
    79    48    47    1
    80    48    51    1
    81    33    35   ar
    82    34    35   ar
    83    53    51    1
    84    51    52    1
    85    52    54    1
    86    39    38    2
    87    38    37    1
    88    37    36    1
    89    37    40    1
    90    41    40    1
    91    41    42    1
    92    45    44    1
    93    43    44    2
    94    43    42    1
    95    44    46    1
