@<TRIPOS>MOLECULE
tmp/3gw1B00.pdb
 114 112 0 0 0
SMALL
GASTEIGER

@<TRIPOS>ATOM
      1  N         -8.8540   18.0180  -11.1110 N.3     8  ILE8       -0.1231
      2  CA        -7.4260   18.1920  -10.8710 C.3     8  ILE8        0.1692
      3  C         -6.7120   16.8640  -11.0960 C.2     8  ILE8        0.2592
      4  O         -7.2640   15.7990  -10.8390 O.2     8  ILE8       -0.2718
      5  CB        -7.1220   18.6890   -9.4420 C.3     8  ILE8        0.0266
      6  CG1       -7.8730   17.8380   -8.4110 C.3     8  ILE8        0.0019
      7  CG2       -7.4510   20.1780   -9.3040 C.3     8  ILE8        0.0020
      8  CD1       -7.4720   18.1290   -6.9870 C.3     8  ILE8        0.0001
      9  N         -5.4830   16.9280  -11.5820 N.am    9  LEU9       -0.1966
     10  CA        -4.7230   15.7190  -11.8580 C.3     9  LEU9        0.1728
     11  C         -3.7080   15.4710  -10.7500 C.2     9  LEU9        0.2616
     12  O         -3.1820   16.4120  -10.1550 O.2     9  LEU9       -0.2715
     13  CB        -4.0250   15.8360  -13.2150 C.3     9  LEU9        0.0311
     14  CG        -4.9340   16.2620  -14.3730 C.3     9  LEU9        0.0022
     15  CD1       -4.1310   16.6000  -15.6160 C.3     9  LEU9        0.0001
     16  CD2       -5.9530   15.1750  -14.6730 C.3     9  LEU9        0.0001
     17  N         -3.4370   14.2010  -10.4700 N.am   10  ASN10      -0.1958
     18  CA        -2.4500   13.8540   -9.4590 C.3    10  ASN10       0.1819
     19  C         -1.0260   13.9910   -9.9740 C.2    10  ASN10       0.2621
     20  O         -0.7220   13.5870  -11.0990 O.2    10  ASN10      -0.2715
     21  CB        -2.6620   12.4290   -8.9550 C.3    10  ASN10       0.1195
     22  CG        -1.6780   12.0480   -7.8630 C.2    10  ASN10       0.2630
     23  OD1       -1.6290   12.6830   -6.8100 O.2    10  ASN10      -0.2716
     24  ND2       -0.8900   11.0080   -8.1100 N.am   10  ASN10      -0.0877
     25  N         -0.1610   14.5640   -9.1430 N.am   11  ASP11      -0.1957
     26  CA         1.2710   14.6110   -9.4210 C.3    11  ASP11       0.1840
     27  C          2.0230   14.1780   -8.1700 C.2    11  ASP11       0.2622
     28  O          1.4200   13.9930   -7.1200 O.2    11  ASP11      -0.2715
     29  CB         1.7040   16.0070   -9.8730 C.3    11  ASP11       0.1450
     30  CG         1.5290   17.0480   -8.7920 C.2    11  ASP11       0.3671
     31  OD1        2.3910   17.1180   -7.8880 O.co2  11  ASP11      -0.2456
     32  OD2        0.5310   17.7980   -8.8560 O.co2  11  ASP11      -0.2456
     33  N          3.3340   14.0130   -8.2760 N.am   12  ASP12      -0.1957
     34  CA         4.0970   13.4080   -7.1880 C.3    12  ASP12       0.1840
     35  C          4.8220   14.4190   -6.3020 C.2    12  ASP12       0.2622
     36  O          5.5030   14.0430   -5.3480 O.2    12  ASP12      -0.2715
     37  CB         5.1100   12.4150   -7.7600 C.3    12  ASP12       0.1450
     38  CG         4.4530   11.1670   -8.3110 C.2    12  ASP12       0.3671
     39  OD1        3.7640   10.4740   -7.5350 O.co2  12  ASP12      -0.2456
     40  OD2        4.6290   10.8740   -9.5130 O.co2  12  ASP12      -0.2456
     41  N          4.6780   15.7010   -6.6060 N.am   13  TYR13      -0.1960
     42  CA         5.5020   16.7040   -5.9430 C.3    13  TYR13       0.1771
     43  C          4.7140   17.7300   -5.1370 C.2    13  TYR13       0.2620
     44  O          5.2020   18.2400   -4.1330 O.2    13  TYR13      -0.2715
     45  CB         6.4190   17.3750   -6.9670 C.3    13  TYR13       0.0574
     46  CG         7.1620   16.3660   -7.8140 C.ar   13  TYR13      -0.0198
     47  CD1        8.3990   15.8690   -7.4190 C.ar   13  TYR13      -0.0009
     48  CD2        6.6120   15.8880   -8.9970 C.ar   13  TYR13      -0.0009
     49  CE1        9.0760   14.9420   -8.1900 C.ar   13  TYR13       0.0417
     50  CE2        7.2790   14.9580   -9.7760 C.ar   13  TYR13       0.0417
     51  CZ         8.5090   14.4870   -9.3670 C.ar   13  TYR13       0.1957
     52  OH         9.1730   13.5600  -10.1370 O.3    13  TYR13      -0.2866
     53  N          3.4930   18.0150   -5.5690 N.am   14  THR14      -0.1937
     54  CA         2.6320   18.9530   -4.8560 C.3    14  THR14       0.2013
     55  C          2.2690   18.4460   -3.4540 C.2    14  THR14       0.2484
     56  O          1.8100   17.3180   -3.2970 O.2    14  THR14      -0.2729
     57  CB         1.3440   19.2320   -5.6520 C.3    14  THR14       0.1807
     58  OG1        1.6860   19.6690   -6.9720 O.3    14  THR14      -0.2208
     59  CG2        0.5050   20.3010   -4.9670 C.3    14  THR14       0.0379
     60  N          2.4830   19.2840   -2.4280 N.am   15  PRO15      -0.2715
     61  CA         2.1700   18.9450   -1.0360 C.3    15  PRO15       0.1536
     62  C          0.6940   18.6420   -0.8300 C.2    15  PRO15       0.2598
     63  O         -0.1520   19.2450   -1.4920 O.2    15  PRO15      -0.2715
     64  CB         2.5480   20.2210   -0.2730 C.3    15  PRO15       0.0310
     65  CG         3.5730   20.8670   -1.1150 C.3    15  PRO15       0.0237
     66  CD         3.1640   20.5820   -2.5330 C.3    15  PRO15       0.0939
     67  N          0.3950   17.7180    0.0800 N.am   16  MET16      -0.1978
     68  CA        -0.9840   17.3720    0.4040 C.3    16  MET16       0.1605
     69  C         -1.7170   18.5740    0.9770 C.2    16  MET16       0.2287
     70  O         -2.9090   18.7730    0.7310 O.2    16  MET16      -0.2864
     71  CB        -1.0220   16.2390    1.4270 C.3    16  MET16       0.0413
     72  CG        -0.4560   14.9350    0.9180 C.3    16  MET16       0.0598
     73  SD        -0.8850   13.5470    1.9800 S.3    16  MET16      -0.1393
     74  CE        -0.9550   12.2370    0.7590 C.3    16  MET16       0.0692
     75  N         -3.0100   21.1120   -1.6500 N.3    19  VAL19      -0.1245
     76  CA        -4.1790   20.5900   -2.3420 C.3    19  VAL19       0.1561
     77  C         -5.4260   20.7730   -1.4760 C.2    19  VAL19       0.2260
     78  O         -6.4830   21.1600   -1.9710 O.2    19  VAL19      -0.2867
     79  CB        -4.0010   19.1060   -2.7120 C.3    19  VAL19       0.0252
     80  CG1       -5.0810   18.6670   -3.6970 C.3    19  VAL19       0.0019
     81  CG2       -2.6200   18.8700   -3.3030 C.3    19  VAL19       0.0019
     82  N         -8.8730   15.2370   -1.8150 N.3    38  MET38      -0.1245
     83  CA        -7.4170   15.1930   -1.9120 C.3    38  MET38       0.1570
     84  C         -6.8950   13.7550   -1.8620 C.2    38  MET38       0.2261
     85  O         -6.0690   13.3590   -2.6860 O.2    38  MET38      -0.2867
     86  CB        -6.7950   16.0270   -0.7900 C.3    38  MET38       0.0387
     87  CG        -5.2730   16.0480   -0.7690 C.3    38  MET38       0.0595
     88  SD        -4.5550   14.5970    0.0280 S.3    38  MET38      -0.1393
     89  CE        -5.1770   14.7640    1.6980 C.3    38  MET38       0.0692
     90  N         -7.9970   11.7750   -5.0810 N.3    41  VAL41      -0.1231
     91  CA        -7.1320   12.1020   -6.2110 C.3    41  VAL41       0.1692
     92  C         -5.7720   11.4280   -6.0820 C.2    41  VAL41       0.2592
     93  O         -5.2370   10.8900   -7.0520 O.2    41  VAL41      -0.2718
     94  CB        -6.9230   13.6230   -6.3330 C.3    41  VAL41       0.0266
     95  CG1       -5.7360   13.9290   -7.2310 C.3    41  VAL41       0.0020
     96  CG2       -8.1700   14.2860   -6.8620 C.3    41  VAL41       0.0020
     97  N         -5.2240   11.4600   -4.8720 N.am   42  HIS42      -0.1976
     98  CA        -3.9010   10.9100   -4.6070 C.3    42  HIS42       0.1656
     99  C         -3.8020    9.4580   -5.0330 C.2    42  HIS42       0.2291
    100  O         -2.7440    8.9990   -5.4490 O.2    42  HIS42      -0.2864
    101  CB        -3.5480   11.0420   -3.1210 C.3    42  HIS42       0.0771
    102  CG        -2.2230   10.4460   -2.7600 C.ar   42  HIS42       0.0820
    103  ND1       -1.0590   11.1840   -2.7220 N.ar   42  HIS42      -0.2267
    104  CD2       -1.8760    9.1820   -2.4220 C.ar   42  HIS42       0.1154
    105  CE1       -0.0540   10.3980   -2.3790 C.ar   42  HIS42       0.1986
    106  NE2       -0.5230    9.1800   -2.1890 N.ar   42  HIS42      -0.2212
    107  N          0.5230   21.6280   -9.8170 N.3    75  LEU75      -0.1245
    108  CA        -0.8350   21.0860   -9.8340 C.3    75  LEU75       0.1561
    109  C         -1.5640   21.3550  -11.1580 C.2    75  LEU75       0.2260
    110  O         -1.7900   22.5070  -11.5340 O.2    75  LEU75      -0.2867
    111  CB        -1.6460   21.6530   -8.6650 C.3    75  LEU75       0.0270
    112  CG        -3.0320   21.0340   -8.4380 C.3    75  LEU75       0.0019
    113  CD1       -2.9290   19.5430   -8.1100 C.3    75  LEU75       0.0001
    114  CD2       -3.8030   21.7830   -7.3480 C.3    75  LEU75       0.0001
@<TRIPOS>BOND
     1    15    14    1
     2    16    14    1
     3    14    13    1
     4    13    10    1
     5    10     9    1
     6    10    11    1
     7     9     3   am
     8   110   109    2
     9   109   108    1
    10     1     2    1
    11    20    19    2
    12     3     2    1
    13     3     4    2
    14     2     5    1
    15    11    17   am
    16    11    12    2
    17    17    18    1
    18    52    51    1
    19    19    18    1
    20    19    25   am
    21    29    26    1
    22    29    30    1
    23   108   107    1
    24   108   111    1
    25    50    51   ar
    26    50    48   ar
    27    40    38   ar
    28    18    21    1
    29     5     7    1
    30     5     6    1
    31    26    25    1
    32    26    27    1
    33    51    49   ar
    34    48    46   ar
    35    21    22    1
    36    32    30   ar
    37    30    31   ar
    38   111   112    1
    39   112   113    1
    40   112   114    1
    41     6     8    1
    42    38    37    1
    43    38    39   ar
    44    33    27   am
    45    33    34    1
    46    49    47   ar
    47    27    28    2
    48    24    22   am
    49    22    23    2
    50    46    47   ar
    51    46    45    1
    52    37    34    1
    53    95    94    1
    54    34    35    1
    55    93    92    2
    56    58    57    1
    57    45    42    1
    58    96    94    1
    59    41    35   am
    60    41    42    1
    61    94    91    1
    62    35    36    2
    63    91    92    1
    64    91    90    1
    65    92    97   am
    66    42    43    1
    67    57    59    1
    68    57    54    1
    69    53    43   am
    70    53    54    1
    71   100    99    2
    72    43    44    2
    73    99    98    1
    74    97    98    1
    75    54    55    1
    76    98   101    1
    77    80    79    1
    78    55    56    2
    79    55    60   am
    80    81    79    1
    81   101   102    1
    82   102   103   ar
    83   102   104   ar
    84   103   105   ar
    85    79    76    1
    86    85    84    2
    87    66    60    1
    88    66    65    1
    89    60    61    1
    90   104   106   ar
    91   105   106   ar
    92    76    75    1
    93    76    77    1
    94    78    77    2
    95    83    84    1
    96    83    82    1
    97    83    86    1
    98    63    62    2
    99    65    64    1
   100    61    62    1
   101    61    64    1
   102    62    67   am
   103    86    87    1
   104    87    88    1
   105    88    89    1
   106    67    68    1
   107    68    69    1
   108    68    71    1
   109    70    69    2
   110    74    73    1
   111    72    71    1
   112    72    73    1
