@<TRIPOS>MOLECULE
tmp/3gw5B00.pdb
 212 205 0 0 0
SMALL
GASTEIGER

@<TRIPOS>ATOM
      1  N         41.1360  -27.2750  -18.0340 N.3    15  THR15      -0.1203
      2  CA        40.1240  -26.7720  -18.9440 C.3    15  THR15       0.1994
      3  C         40.7340  -26.3160  -20.2660 C.2    15  THR15       0.2618
      4  O         40.1180  -26.4640  -21.3180 O.2    15  THR15      -0.2717
      5  CB        39.3390  -25.6020  -18.3150 C.3    15  THR15       0.1784
      6  OG1       40.2400  -24.5440  -18.0000 O.3    15  THR15      -0.2211
      7  CG2       38.6500  -26.0470  -17.0370 C.3    15  THR15       0.0376
      8  N         41.9430  -25.7670  -20.2220 N.am   16  GLN16      -0.1965
      9  CA        42.5800  -25.2860  -21.4440 C.3    16  GLN16       0.1733
     10  C         43.8290  -26.0890  -21.7790 C.2    16  GLN16       0.2616
     11  O         44.7930  -26.1070  -21.0060 O.2    16  GLN16      -0.2715
     12  CB        42.9190  -23.8040  -21.3060 C.3    16  GLN16       0.0408
     13  CG        41.7030  -22.9580  -20.9400 C.3    16  GLN16       0.0908
     14  CD        41.9320  -21.4800  -21.1650 C.2    16  GLN16       0.2608
     15  OE1       42.7990  -21.0870  -21.9480 O.2    16  GLN16      -0.2717
     16  NE2       41.1560  -20.6500  -20.4770 N.am   16  GLN16      -0.0878
     17  N         43.7890  -26.7730  -22.9230 N.am   17  TYR17      -0.1974
     18  CA        44.9200  -27.5700  -23.4000 C.3    17  TYR17       0.1639
     19  C         45.3830  -26.9880  -24.7310 C.2    17  TYR17       0.2290
     20  O         44.5880  -26.8600  -25.6600 O.2    17  TYR17      -0.2864
     21  CB        44.5070  -29.0390  -23.6100 C.3    17  TYR17       0.0560
     22  CG        44.1850  -29.8140  -22.3410 C.ar   17  TYR17      -0.0198
     23  CD1       45.1160  -30.6790  -21.7780 C.ar   17  TYR17      -0.0009
     24  CD2       42.9480  -29.6900  -21.7170 C.ar   17  TYR17      -0.0009
     25  CE1       44.8280  -31.3980  -20.6350 C.ar   17  TYR17       0.0417
     26  CE2       42.6460  -30.4070  -20.5680 C.ar   17  TYR17       0.0417
     27  CZ        43.5910  -31.2610  -20.0320 C.ar   17  TYR17       0.1957
     28  OH        43.2970  -31.9980  -18.9000 O.3    17  TYR17      -0.2866
     29  N         45.2760  -23.8510  -29.9340 N.3    33  VAL33      -0.1245
     30  CA        44.3960  -24.9770  -29.6350 C.3    33  VAL33       0.1561
     31  C         44.3240  -25.8800  -30.8590 C.2    33  VAL33       0.2260
     32  O         43.9900  -25.4340  -31.9620 O.2    33  VAL33      -0.2867
     33  CB        42.9460  -24.5160  -29.2990 C.3    33  VAL33       0.0252
     34  CG1       42.0440  -25.7290  -29.1390 C.3    33  VAL33       0.0019
     35  CG2       42.9280  -23.6930  -28.0210 C.3    33  VAL33       0.0019
     36  N         42.1950  -28.2570  -32.5010 N.3    35  ASP35      -0.1239
     37  CA        40.7540  -28.4310  -32.3610 C.3    35  ASP35       0.1674
     38  C         40.1650  -29.3120  -33.4630 C.2    35  ASP35       0.2266
     39  O         39.9910  -28.8550  -34.6000 O.2    35  ASP35      -0.2867
     40  CB        40.0890  -27.0450  -32.3860 C.3    35  ASP35       0.1410
     41  CG        38.5780  -27.1100  -32.3520 C.2    35  ASP35       0.3668
     42  OD1       38.0280  -28.1410  -31.9090 O.co2  35  ASP35      -0.2456
     43  OD2       37.9370  -26.1170  -32.7730 O.co2  35  ASP35      -0.2456
     44  N         37.2310  -30.0920  -33.6380 N.3    37  GLY37      -0.1210
     45  CA        35.9080  -29.5660  -33.9290 C.3    37  GLY37       0.1956
     46  C         35.8260  -28.4760  -34.9960 C.2    37  GLY37       0.2612
     47  O         34.7310  -28.0870  -35.3880 O.2    37  GLY37      -0.2717
     48  N         36.9660  -27.9730  -35.4640 N.am   38  SER38      -0.1952
     49  CA        36.9800  -27.0300  -36.5830 C.3    38  SER38       0.1924
     50  C         38.1860  -27.2680  -37.4860 C.2    38  SER38       0.2314
     51  O         39.0090  -28.1420  -37.2100 O.2    38  SER38      -0.2863
     52  CB        36.9930  -25.5840  -36.0730 C.3    38  SER38       0.2116
     53  OG        38.1770  -25.2910  -35.3560 O.3    38  SER38      -0.2180
     54  N         32.6160  -19.3200  -33.8340 N.3    80  TYR80      -0.1227
     55  CA        32.5270  -20.4400  -32.9070 C.3    80  TYR80       0.1736
     56  C         31.3810  -20.2230  -31.9300 C.2    80  TYR80       0.2596
     57  O         30.7670  -19.1530  -31.9000 O.2    80  TYR80      -0.2718
     58  CB        33.8270  -20.5950  -32.1230 C.3    80  TYR80       0.0548
     59  CG        35.0440  -20.7260  -32.9940 C.ar   80  TYR80      -0.0200
     60  CD1       35.3330  -21.9200  -33.6370 C.ar   80  TYR80      -0.0009
     61  CD2       35.9190  -19.6600  -33.1600 C.ar   80  TYR80      -0.0009
     62  CE1       36.4590  -22.0500  -34.4190 C.ar   80  TYR80       0.0417
     63  CE2       37.0490  -19.7800  -33.9400 C.ar   80  TYR80       0.0417
     64  CZ        37.3140  -20.9770  -34.5660 C.ar   80  TYR80       0.1957
     65  OH        38.4410  -21.1050  -35.3370 O.3    80  TYR80      -0.2866
     66  N         31.1020  -21.2460  -31.1300 N.am   81  SER81      -0.1938
     67  CA        30.0570  -21.1740  -30.1170 C.3    81  SER81       0.2055
     68  C         30.2480  -19.9610  -29.2120 C.2    81  SER81       0.2643
     69  O         29.2760  -19.3430  -28.7930 O.2    81  SER81      -0.2714
     70  CB        30.0690  -22.4410  -29.2650 C.3    81  SER81       0.2130
     71  OG        31.3060  -22.5550  -28.5840 O.3    81  SER81      -0.2179
     72  N         31.5000  -19.6270  -28.9110 N.am   82  THR82      -0.1950
     73  CA        31.7960  -18.4500  -28.0940 C.3    82  THR82       0.1897
     74  C         31.7600  -17.1590  -28.8940 C.2    82  THR82       0.2313
     75  O         32.0000  -16.0810  -28.3530 O.2    82  THR82      -0.2863
     76  CB        33.1720  -18.5380  -27.4470 C.3    82  THR82       0.1794
     77  OG1       34.1550  -18.7980  -28.4560 O.3    82  THR82      -0.2208
     78  CG2       33.1960  -19.6260  -26.4080 C.3    82  THR82       0.0378
     79  N         35.4180  -14.0910  -25.7150 N.3   115  PRO115     -0.2102
     80  CA        36.0900  -14.9220  -24.7080 C.3   115  PRO115      0.1504
     81  C         37.5980  -14.7480  -24.5450 C.2   115  PRO115      0.2575
     82  O         38.1980  -15.3400  -23.6450 O.2   115  PRO115     -0.2718
     83  CB        35.7650  -16.3340  -25.1700 C.3   115  PRO115      0.0282
     84  CG        35.8180  -16.2110  -26.6750 C.3   115  PRO115      0.0208
     85  CD        35.3830  -14.7810  -27.0190 C.3   115  PRO115      0.0893
     86  N         38.2270  -13.9800  -25.4230 N.am  116  PHE116     -0.1977
     87  CA        39.6580  -14.1470  -25.6100 C.3   116  PHE116      0.1639
     88  C         40.5450  -13.5430  -24.5300 C.2   116  PHE116      0.2290
     89  O         41.7210  -13.8750  -24.4340 O.2   116  PHE116     -0.2864
     90  CB        40.0450  -13.6470  -27.0030 C.3   116  PHE116      0.0560
     91  CG        39.4660  -14.4900  -28.0990 C.ar  116  PHE116     -0.0200
     92  CD1       39.9620  -15.7660  -28.3380 C.ar  116  PHE116     -0.0042
     93  CD2       38.3560  -14.0620  -28.8100 C.ar  116  PHE116     -0.0042
     94  CE1       39.3510  -16.6080  -29.2600 C.ar  116  PHE116     -0.0003
     95  CE2       37.7420  -14.9000  -29.7310 C.ar  116  PHE116     -0.0003
     96  CZ        38.2410  -16.1750  -29.9530 C.ar  116  PHE116     -0.0000
     97  N         40.0380  -14.3940  -21.7190 N.3   118  LEU118     -0.1231
     98  CA        40.0450  -15.5470  -20.8260 C.3   118  LEU118      0.1693
     99  C         41.0220  -16.6350  -21.2930 C.2   118  LEU118      0.2591
    100  O         41.3150  -17.5700  -20.5490 O.2   118  LEU118     -0.2718
    101  CB        38.6260  -16.1250  -20.7050 C.3   118  LEU118      0.0284
    102  CG        37.5420  -15.1160  -20.2940 C.3   118  LEU118      0.0019
    103  CD1       36.1940  -15.7990  -20.1320 C.3   118  LEU118      0.0001
    104  CD2       37.9470  -14.4400  -19.0020 C.3   118  LEU118      0.0001
    105  N         41.5400  -16.5030  -22.5140 N.am  119  ALA119     -0.1980
    106  CA        42.3530  -17.5600  -23.1150 C.3   119  ALA119      0.1597
    107  C         43.8310  -17.5220  -22.7310 C.2   119  ALA119      0.2287
    108  O         44.4720  -16.4710  -22.7710 O.2   119  ALA119     -0.2864
    109  CB        42.2160  -17.5160  -24.6290 C.3   119  ALA119      0.0319
    110  N         45.8570  -19.2330  -24.4550 N.3   121  PHE121     -0.1241
    111  CA        46.4760  -19.4910  -25.7520 C.3   121  PHE121      0.1605
    112  C         46.2920  -18.2820  -26.6600 C.2   121  PHE121      0.2264
    113  O         45.5350  -17.3660  -26.3310 O.2   121  PHE121     -0.2867
    114  CB        45.8300  -20.7080  -26.4010 C.3   121  PHE121      0.0534
    115  CG        44.3400  -20.5960  -26.5270 C.ar  121  PHE121     -0.0203
    116  CD1       43.5110  -21.0030  -25.4910 C.ar  121  PHE121     -0.0042
    117  CD2       43.7670  -20.0730  -27.6750 C.ar  121  PHE121     -0.0042
    118  CE1       42.1430  -20.8890  -25.6020 C.ar  121  PHE121     -0.0003
    119  CE2       42.3970  -19.9590  -27.7880 C.ar  121  PHE121     -0.0003
    120  CZ        41.5840  -20.3660  -26.7530 C.ar  121  PHE121     -0.0000
    121  N         44.2720  -20.7810  -32.9410 N.3   124  VAL124     -0.1245
    122  CA        43.6390  -22.0740  -33.1860 C.3   124  VAL124      0.1561
    123  C         44.2180  -22.7960  -34.4020 C.2   124  VAL124      0.2260
    124  O         44.3220  -22.2150  -35.4840 O.2   124  VAL124     -0.2867
    125  CB        42.1300  -21.9150  -33.4460 C.3   124  VAL124      0.0252
    126  CG1       41.5220  -23.2690  -33.7820 C.3   124  VAL124      0.0019
    127  CG2       41.4490  -21.3000  -32.2360 C.3   124  VAL124      0.0019
    128  N         45.5430  -36.2270  -23.0760 N.3   159  TYR159     -0.1241
    129  CA        45.3340  -35.1090  -22.1530 C.3   159  TYR159      0.1605
    130  C         45.5610  -35.6010  -20.7270 C.2   159  TYR159      0.2264
    131  O         44.8420  -36.4800  -20.2530 O.2   159  TYR159     -0.2867
    132  CB        43.9020  -34.5600  -22.2600 C.3   159  TYR159      0.0534
    133  CG        43.6330  -33.6350  -23.4290 C.ar  159  TYR159     -0.0201
    134  CD1       44.6700  -33.1140  -24.1940 C.ar  159  TYR159     -0.0009
    135  CD2       42.3370  -33.2550  -23.7450 C.ar  159  TYR159     -0.0009
    136  CE1       44.4210  -32.2400  -25.2380 C.ar  159  TYR159      0.0417
    137  CE2       42.0790  -32.3810  -24.7830 C.ar  159  TYR159      0.0417
    138  CZ        43.1260  -31.8760  -25.5260 C.ar  159  TYR159      0.1957
    139  OH        42.8680  -30.9930  -26.5450 O.3   159  TYR159     -0.2866
    140  N         30.1760  -35.7520  -31.2830 N.3   216  LEU216     -0.1245
    141  CA        31.3660  -35.1280  -31.8510 C.3   216  LEU216      0.1561
    142  C         32.5060  -35.3650  -30.8670 C.2   216  LEU216      0.2260
    143  O         32.3720  -35.0720  -29.6800 O.2   216  LEU216     -0.2867
    144  CB        31.1410  -33.6230  -32.0260 C.3   216  LEU216      0.0270
    145  CG        32.1150  -32.8600  -32.9320 C.3   216  LEU216      0.0019
    146  CD1       32.0670  -33.4330  -34.3430 C.3   216  LEU216      0.0001
    147  CD2       31.7370  -31.3780  -32.9470 C.3   216  LEU216      0.0001
    148  N         35.6060  -33.9590  -29.7710 N.3   218  ASP218     -0.1225
    149  CA        36.0760  -32.6010  -30.0140 C.3   218  ASP218      0.1805
    150  C         37.1840  -32.1860  -29.0460 C.2   218  ASP218      0.2598
    151  O         36.9170  -31.8140  -27.8970 O.2   218  ASP218     -0.2718
    152  CB        34.8980  -31.6310  -29.9000 C.3   218  ASP218      0.1424
    153  CG        35.2320  -30.2420  -30.4090 C.2   218  ASP218      0.3668
    154  OD1       36.4220  -29.8790  -30.4320 O.co2 218  ASP218     -0.2456
    155  OD2       34.2990  -29.5120  -30.7850 O.co2 218  ASP218     -0.2456
    156  N         38.4250  -32.2280  -29.5260 N.am  219  THR219     -0.1939
    157  CA        39.5790  -31.9970  -28.6680 C.3   219  THR219      0.2028
    158  C         39.6510  -30.5460  -28.2040 C.2   219  THR219      0.2643
    159  O         40.3600  -30.2280  -27.2540 O.2   219  THR219     -0.2714
    160  CB        40.8990  -32.3610  -29.3920 C.3   219  THR219      0.1808
    161  OG1       41.0710  -31.5180  -30.5400 O.3   219  THR219     -0.2208
    162  CG2       40.8720  -33.8150  -29.8350 C.3   219  THR219      0.0379
    163  N         38.9070  -29.6740  -28.8760 N.am  220  GLY220     -0.1939
    164  CA        38.9120  -28.2680  -28.5130 C.3   220  GLY220      0.2014
    165  C         37.8820  -27.9180  -27.4500 C.2   220  GLY220      0.2639
    166  O         37.9130  -26.8150  -26.8930 O.2   220  GLY220     -0.2714
    167  N         36.9670  -28.8480  -27.1770 N.am  221  ALA221     -0.1963
    168  CA        35.9560  -28.6660  -26.1350 C.3   221  ALA221      0.1728
    169  C         36.5830  -29.0380  -24.8020 C.2   221  ALA221      0.2617
    170  O         37.2730  -30.0520  -24.7040 O.2   221  ALA221     -0.2715
    171  CB        34.7430  -29.5580  -26.4030 C.3   221  ALA221      0.0334
    172  N         36.3490  -28.2180  -23.7800 N.am  222  SER222     -0.1936
    173  CA        36.9260  -28.4850  -22.4680 C.3   222  SER222      0.2055
    174  C         36.0340  -29.4420  -21.6920 C.2   222  SER222      0.2643
    175  O         36.5200  -30.2920  -20.9570 O.2   222  SER222     -0.2714
    176  CB        37.0960  -27.1840  -21.6740 C.3   222  SER222      0.2130
    177  OG        37.9310  -26.2670  -22.3670 O.3   222  SER222     -0.2179
    178  N         34.7250  -29.2960  -21.8560 N.am  223  TYR223     -0.1973
    179  CA        33.7750  -30.1490  -21.1480 C.3   223  TYR223      0.1639
    180  C         33.0870  -31.0920  -22.1150 C.2   223  TYR223      0.2290
    181  O         33.0970  -30.8780  -23.3230 O.2   223  TYR223     -0.2864
    182  CB        32.6960  -29.3140  -20.4590 C.3   223  TYR223      0.0560
    183  CG        33.1700  -28.4330  -19.3260 C.ar  223  TYR223     -0.0198
    184  CD1       32.3080  -27.5020  -18.7480 C.ar  223  TYR223     -0.0009
    185  CD2       34.4560  -28.5280  -18.8300 C.ar  223  TYR223     -0.0009
    186  CE1       32.7130  -26.6950  -17.7140 C.ar  223  TYR223      0.0417
    187  CE2       34.8780  -27.7130  -17.7880 C.ar  223  TYR223      0.0417
    188  CZ        33.9930  -26.7990  -17.2370 C.ar  223  TYR223      0.1957
    189  OH        34.3820  -25.9910  -16.1980 O.3   223  TYR223     -0.2866
    190  N         28.3860  -29.5160  -19.5820 N.3   293  HIS293     -0.1241
    191  CA        27.4280  -28.4240  -19.7040 C.3   293  HIS293      0.1621
    192  C         26.5860  -28.5760  -20.9540 C.2   293  HIS293      0.2264
    193  O         26.7790  -29.5080  -21.7430 O.2   293  HIS293     -0.2867
    194  CB        28.1480  -27.0690  -19.7340 C.3   293  HIS293      0.0745
    195  CG        28.9220  -26.8180  -20.9900 C.ar  293  HIS293      0.0817
    196  ND1       29.1410  -25.5520  -21.4890 N.ar  293  HIS293     -0.2268
    197  CD2       29.5430  -27.6690  -21.8410 C.ar  293  HIS293      0.1154
    198  CE1       29.8670  -25.6340  -22.5900 C.ar  293  HIS293      0.1986
    199  NE2       30.1240  -26.9080  -22.8250 N.ar  293  HIS293     -0.2212
    200  N         25.2930  -27.3990  -24.6060 N.3   295  MET295     -0.1245
    201  CA        25.5960  -26.6380  -25.8080 C.3   295  MET295      0.1570
    202  C         24.7260  -27.1170  -26.9590 C.2   295  MET295      0.2261
    203  O         24.7200  -28.2990  -27.3030 O.2   295  MET295     -0.2867
    204  CB        27.0720  -26.7820  -26.1840 C.3   295  MET295      0.0387
    205  CG        27.4100  -26.1890  -27.5390 C.3   295  MET295      0.0595
    206  SD        28.9970  -25.3590  -27.5340 S.3   295  MET295     -0.1393
    207  CE        29.1240  -24.9060  -25.8200 C.3   295  MET295      0.0692
    208  N         37.5060  -32.5670  -23.3920 N.3   309  ALA309     -0.1245
    209  CA        38.6340  -32.9200  -22.5340 C.3   309  ALA309      0.1562
    210  C         38.2510  -33.8450  -21.3750 C.2   309  ALA309      0.2260
    211  O         39.0430  -34.6900  -20.9640 O.2   309  ALA309     -0.2867
    212  CB        39.2910  -31.6520  -21.9910 C.3   309  ALA309      0.0290
@<TRIPOS>BOND
     1    50    51    2
     2    50    49    1
     3    49    52    1
     4    49    48    1
     5    52    53    1
     6   124   123    2
     7    48    46   am
     8    47    46    2
     9    65    64    1
    10    46    45    1
    11    39    38    2
    12    64    62   ar
    13    64    63   ar
    14    62    60   ar
    15   123   122    1
    16   146   145    1
    17    63    61   ar
    18    45    44    1
    19    54    55    1
    20   126   125    1
    21    60    59   ar
    22    38    37    1
    23   125   122    1
    24   125   127    1
    25   122   121    1
    26    61    59   ar
    27    59    58    1
    28   147   145    1
    29   145   144    1
    30    55    58    1
    31    55    56    1
    32    43    41   ar
    33    36    37    1
    34    40    37    1
    35    40    41    1
    36    41    42   ar
    37   144   141    1
    38    32    31    2
    39    56    57    2
    40    56    66   am
    41   141   140    1
    42   141   142    1
    43    66    67    1
    44   142   143    2
    45    31    30    1
    46   155   153   ar
    47   161   160    1
    48   154   153   ar
    49   153   152    1
    50    67    70    1
    51    67    68    1
    52   149   152    1
    53   149   148    1
    54   149   150    1
    55    96    95   ar
    56    96    94   ar
    57    29    30    1
    58   162   160    1
    59    95    93   ar
    60    30    33    1
    61   156   150   am
    62   156   157    1
    63   160   157    1
    64    33    34    1
    65    33    35    1
    66    70    71    1
    67    94    92   ar
    68    68    72   am
    69    68    69    2
    70   150   151    2
    71    72    73    1
    72    74    75    2
    73    74    73    1
    74   163   164    1
    75   163   158   am
    76    93    91   ar
    77   157   158    1
    78   164   165    1
    79    77    76    1
    80    92    91   ar
    81   158   159    2
    82    91    90    1
    83    73    76    1
    84   119   117   ar
    85   119   120   ar
    86   117   115   ar
    87   205   206    1
    88   205   204    1
    89   206   207    1
    90   165   167   am
    91   165   166    2
    92    76    78    1
    93   203   202    2
    94   167   168    1
    95    85    84    1
    96    85    79    1
    97    90    87    1
    98   202   201    1
    99   120   118   ar
   100    84    83    1
   101   112   113    2
   102   112   111    1
   103   139   138    1
   104   115   114    1
   105   115   116   ar
   106   171   168    1
   107   114   111    1
   108   204   201    1
   109   168   169    1
   110   201   200    1
   111   111   110    1
   112    79    80    1
   113    20    19    2
   114    87    86    1
   115    87    88    1
   116   118   116   ar
   117   138   136   ar
   118   138   137   ar
   119    86    81   am
   120   136   134   ar
   121    83    80    1
   122   169   170    2
   123   169   172   am
   124   137   135   ar
   125    19    18    1
   126    80    81    1
   127   109   106    1
   128    81    82    2
   129    88    89    2
   130   134   133   ar
   131   172   173    1
   132   135   133   ar
   133    21    18    1
   134    21    22    1
   135   133   132    1
   136    18    17    1
   137   208   209    1
   138   181   180    2
   139   106   107    1
   140   106   105    1
   141   128   129    1
   142    17    10   am
   143   199   198   ar
   144   199   197   ar
   145   108   107    2
   146   198   196   ar
   147   209   212    1
   148   209   210    1
   149   105    99   am
   150   173   174    1
   151   173   176    1
   152   177   176    1
   153    22    23   ar
   154    22    24   ar
   155   132   129    1
   156   129   130    1
   157   180   179    1
   158    15    14    2
   159   178   174   am
   160   178   179    1
   161   197   195   ar
   162    10     9    1
   163    10    11    2
   164    23    25   ar
   165   193   192    2
   166    97    98    1
   167    24    26   ar
   168   174   175    2
   169   196   195   ar
   170     9    12    1
   171     9     8    1
   172   210   211    2
   173     4     3    2
   174    12    13    1
   175    99    98    1
   176    99   100    2
   177    14    13    1
   178    14    16   am
   179   179   182    1
   180   195   194    1
   181   192   191    1
   182    98   101    1
   183   130   131    2
   184   101   102    1
   185    25    27   ar
   186    26    27   ar
   187   182   183    1
   188   102   103    1
   189   102   104    1
   190     3     8   am
   191     3     2    1
   192    27    28    1
   193   194   191    1
   194   191   190    1
   195   183   185   ar
   196   183   184   ar
   197     2     5    1
   198     2     1    1
   199   185   187   ar
   200   184   186   ar
   201     5     6    1
   202     5     7    1
   203   187   188   ar
   204   186   188   ar
   205   188   189    1
