@<TRIPOS>MOLECULE
tmp/3gw6F01.pdb
 112 104 0 0 0
SMALL
GASTEIGER

@<TRIPOS>ATOM
      1  N         14.9480   19.2310   -5.4700 N.3    32  ARG32      -0.1245
      2  CA        14.8030   17.8600   -5.9450 C.3    32  ARG32       0.1563
      3  C         15.2930   17.7270   -7.3830 C.2    32  ARG32       0.2260
      4  O         15.3830   18.7160   -8.1050 O.2    32  ARG32      -0.2867
      5  CB        13.3380   17.4240   -5.8610 C.3    32  ARG32       0.0307
      6  CG        12.4250   18.1250   -6.8580 C.3    32  ARG32       0.0489
      7  CD        10.9770   18.1030   -6.3920 C.3    32  ARG32       0.2205
      8  NE        10.0510   18.5820   -7.4150 N.pl3  32  ARG32      -0.0865
      9  CZ         9.7530   19.8630   -7.6290 C.cat  32  ARG32       0.5346
     10  NH1       10.3140   20.8190   -6.9000 N.pl3  32  ARG32       0.1354
     11  NH2        8.8910   20.1890   -8.5800 N.pl3  32  ARG32       0.1354
     12  N         14.4220   15.4400  -10.9290 N.3    34  ILE34      -0.1245
     13  CA        13.5000   14.5250  -11.5810 C.3    34  ILE34       0.1561
     14  C         14.1790   13.8090  -12.7410 C.2    34  ILE34       0.2260
     15  O         14.5750   14.4330  -13.7240 O.2    34  ILE34      -0.2867
     16  CB        12.2530   15.2540  -12.0980 C.3    34  ILE34       0.0252
     17  CG1       11.4880   15.8870  -10.9340 C.3    34  ILE34       0.0019
     18  CG2       11.3620   14.2930  -12.8660 C.3    34  ILE34       0.0019
     19  CD1       10.4710   16.9270  -11.3580 C.3    34  ILE34       0.0001
     20  N          8.2680   17.0440  -17.9010 N.3    41  THR41      -0.1218
     21  CA         8.2710   17.0880  -16.4450 C.3    41  THR41       0.1862
     22  C          7.0800   16.3100  -15.8900 C.2    41  THR41       0.2287
     23  O          7.0660   15.9100  -14.7230 O.2    41  THR41      -0.2866
     24  CB         8.2130   18.5430  -15.9340 C.3    41  THR41       0.1770
     25  OG1        8.8540   18.6330  -14.6560 O.3    41  THR41      -0.2211
     26  CG2        6.7700   19.0250  -15.8290 C.3    41  THR41       0.0375
     27  N          4.7190   13.0630  -15.5170 N.3    43  SER43      -0.1217
     28  CA         4.9990   11.6320  -15.4810 C.3    43  SER43       0.1889
     29  C          4.2970   10.8660  -16.6050 C.2    43  SER43       0.2288
     30  O          4.7240    9.7750  -16.9750 O.2    43  SER43      -0.2866
     31  CB         4.6500   11.0390  -14.1140 C.3    43  SER43       0.2089
     32  OG         3.2730   11.1720  -13.8310 O.3    43  SER43      -0.2183
     33  N          9.4260    7.9400  -14.0450 N.3    48  GLN48      -0.1245
     34  CA        10.2270    8.9290  -13.3370 C.3    48  GLN48       0.1566
     35  C         10.6800    8.4380  -11.9680 C.2    48  GLN48       0.2260
     36  O          9.9650    7.7070  -11.2840 O.2    48  GLN48      -0.2867
     37  CB         9.4470   10.2340  -13.1740 C.3    48  GLN48       0.0367
     38  CG         9.1380   10.9510  -14.4720 C.3    48  GLN48       0.0905
     39  CD         8.4750   12.2990  -14.2490 C.2    48  GLN48       0.2608
     40  OE1        8.4720   13.1580  -15.1310 O.2    48  GLN48      -0.2717
     41  NE2        7.9110   12.4910  -13.0620 N.am   48  GLN48      -0.0878
     42  N         12.1010   10.5120   -8.6060 N.3    50  THR50      -0.1218
     43  CA        12.3960   11.8190   -8.0340 C.3    50  THR50       0.1862
     44  C         13.1280   11.6820   -6.7080 C.2    50  THR50       0.2287
     45  O         12.6610   11.0060   -5.7950 O.2    50  THR50      -0.2866
     46  CB        11.1220   12.6590   -7.8380 C.3    50  THR50       0.1770
     47  OG1       10.3580   12.6630   -9.0480 O.3    50  THR50      -0.2211
     48  CG2       11.4800   14.0930   -7.4660 C.3    50  THR50       0.0375
     49  N         14.3520   13.6980   -3.4810 N.3    52  TYR52      -0.1241
     50  CA        14.0970   14.9280   -2.7400 C.3    52  TYR52       0.1605
     51  C         15.2960   15.3210   -1.8810 C.2    52  TYR52       0.2264
     52  O         15.8960   14.4800   -1.2100 O.2    52  TYR52      -0.2867
     53  CB        12.8580   14.7670   -1.8570 C.3    52  TYR52       0.0534
     54  CG        11.5640   14.5550   -2.6170 C.ar   52  TYR52      -0.0201
     55  CD1       10.5330   15.4800   -2.5410 C.ar   52  TYR52      -0.0009
     56  CD2       11.3730   13.4260   -3.4040 C.ar   52  TYR52      -0.0009
     57  CE1        9.3470   15.2890   -3.2270 C.ar   52  TYR52       0.0417
     58  CE2       10.1920   13.2270   -4.0970 C.ar   52  TYR52       0.0417
     59  CZ         9.1820   14.1610   -4.0040 C.ar   52  TYR52       0.1957
     60  OH         8.0040   13.9680   -4.6890 O.3    52  TYR52      -0.2866
     61  N         10.5680    9.0750   -4.8420 N.3    63  VAL63      -0.1245
     62  CA         9.3240    8.6950   -5.4910 C.3    63  VAL63       0.1561
     63  C          9.6050    7.9570   -6.7930 C.2    63  VAL63       0.2260
     64  O         10.1920    8.5170   -7.7180 O.2    63  VAL63      -0.2867
     65  CB         8.4440    9.9240   -5.7700 C.3    63  VAL63       0.0252
     66  CG1        7.3050    9.5660   -6.7080 C.3    63  VAL63       0.0019
     67  CG2        7.9070   10.4860   -4.4690 C.3    63  VAL63       0.0019
     68  N          7.9440    6.4950   -9.9360 N.3    65  ASN65      -0.1240
     69  CA         6.7090    6.4960  -10.7140 C.3    65  ASN65       0.1653
     70  C          6.8360    5.7540  -12.0420 C.2    65  ASN65       0.2266
     71  O          7.4790    6.2330  -12.9750 O.2    65  ASN65      -0.2867
     72  CB         6.2170    7.9250  -10.9550 C.3    65  ASN65       0.1155
     73  CG         4.7690    7.9720  -11.4020 C.2    65  ASN65       0.2627
     74  OD1        4.2130    6.9730  -11.8600 O.2    65  ASN65      -0.2716
     75  ND2        4.1480    9.1350  -11.2670 N.am   65  ASN65      -0.0877
     76  N          4.4230   17.0470   -3.5740 N.3   189  THR189     -0.1203
     77  CA         4.4430   18.1010   -4.5780 C.3   189  THR189      0.1994
     78  C          4.4280   17.4750   -5.9690 C.2   189  THR189      0.2618
     79  O          5.3280   16.7190   -6.3390 O.2   189  THR189     -0.2717
     80  CB         5.6190   19.0840   -4.3800 C.3   189  THR189      0.1784
     81  OG1        6.1400   19.4770   -5.6550 O.3   189  THR189     -0.2211
     82  CG2        6.7260   18.4470   -3.5540 C.3   189  THR189      0.0376
     83  N          3.3820   17.7960   -6.7250 N.am  190  VAL190     -0.1965
     84  CA         3.0390   17.0710   -7.9430 C.3   190  VAL190      0.1727
     85  C          2.7020   18.0000   -9.1070 C.2   190  VAL190      0.2616
     86  O          2.0720   19.0370   -8.9160 O.2   190  VAL190     -0.2715
     87  CB         1.8420   16.1340   -7.6730 C.3   190  VAL190      0.0290
     88  CG1        0.8430   16.1790   -8.8150 C.3   190  VAL190      0.0023
     89  CG2        2.3320   14.7200   -7.4500 C.3   190  VAL190      0.0023
     90  N          3.1260   17.6300  -10.3110 N.am  191  PHE191     -0.1974
     91  CA         2.7930   18.4150  -11.4950 C.3   191  PHE191      0.1639
     92  C          1.2930   18.3980  -11.7420 C.2   191  PHE191      0.2290
     93  O          0.6660   17.3380  -11.7160 O.2   191  PHE191     -0.2864
     94  CB         3.5160   17.8840  -12.7300 C.3   191  PHE191      0.0560
     95  CG         3.0340   18.4910  -14.0190 C.ar  191  PHE191     -0.0200
     96  CD1        3.5250   19.7130  -14.4500 C.ar  191  PHE191     -0.0042
     97  CD2        2.0900   17.8420  -14.7990 C.ar  191  PHE191     -0.0042
     98  CE1        3.0870   20.2750  -15.6360 C.ar  191  PHE191     -0.0003
     99  CE2        1.6500   18.3980  -15.9860 C.ar  191  PHE191     -0.0003
    100  CZ         2.1500   19.6170  -16.4050 C.ar  191  PHE191     -0.0000
    101  N          3.9640   23.1690  -10.5560 N.3   214  TYR214     -0.1241
    102  CA         3.8020   22.1030   -9.5820 C.3   214  TYR214      0.1605
    103  C          2.9280   22.5990   -8.4400 C.2   214  TYR214      0.2264
    104  O          2.8880   23.7960   -8.1520 O.2   214  TYR214     -0.2867
    105  CB         5.1580   21.6140   -9.0710 C.3   214  TYR214      0.0534
    106  CG         5.8170   20.6260  -10.0040 C.ar  214  TYR214     -0.0201
    107  CD1        5.8380   19.2710   -9.7070 C.ar  214  TYR214     -0.0009
    108  CD2        6.4030   21.0480  -11.1910 C.ar  214  TYR214     -0.0009
    109  CE1        6.4330   18.3620  -10.5600 C.ar  214  TYR214      0.0417
    110  CE2        7.0020   20.1480  -12.0530 C.ar  214  TYR214      0.0417
    111  CZ         7.0130   18.8050  -11.7320 C.ar  214  TYR214      0.1957
    112  OH         7.6030   17.8970  -12.5800 O.3   214  TYR214     -0.2866
@<TRIPOS>BOND
     1    20    21    1
     2    30    29    2
     3    29    28    1
     4    21    24    1
     5    21    22    1
     6   100    99   ar
     7   100    98   ar
     8    99    97   ar
     9    24    26    1
    10    24    25    1
    11    22    23    2
    12    98    96   ar
    13    27    28    1
    14    28    31    1
    15    40    39    2
    16    97    95   ar
    17    38    39    1
    18    38    37    1
    19    96    95   ar
    20    39    41   am
    21    31    32    1
    22    33    34    1
    23    95    94    1
    24    15    14    2
    25    34    37    1
    26    34    35    1
    27    71    70    2
    28    18    16    1
    29    14    13    1
    30    94    91    1
    31   112   111    1
    32    16    13    1
    33    16    17    1
    34   110   111   ar
    35   110   108   ar
    36    70    69    1
    37    35    36    2
    38    74    73    2
    39    92    93    2
    40    92    91    1
    41   111   109   ar
    42    13    12    1
    43    91    90    1
    44    73    75   am
    45    73    72    1
    46    19    17    1
    47   108   106   ar
    48    72    69    1
    49    69    68    1
    50   109   107   ar
    51   101   102    1
    52    90    85   am
    53   106   107   ar
    54   106   105    1
    55   102   105    1
    56   102   103    1
    57    85    86    2
    58    85    84    1
    59    47    46    1
    60    88    87    1
    61    42    43    1
    62    11     9    1
    63   103   104    2
    64     4     3    2
    65    43    46    1
    66    43    44    1
    67    84    87    1
    68    84    83    1
    69    46    48    1
    70    64    63    2
    71    87    89    1
    72     9     8    2
    73     9    10    1
    74     8     7    1
    75     3     2    1
    76     6     7    1
    77     6     5    1
    78    63    62    1
    79    83    78   am
    80    44    45    2
    81    66    65    1
    82    79    78    2
    83    78    77    1
    84     2     5    1
    85     2     1    1
    86    65    62    1
    87    65    67    1
    88    81    80    1
    89    62    61    1
    90    60    59    1
    91    77    80    1
    92    77    76    1
    93    80    82    1
    94    58    59   ar
    95    58    56   ar
    96    59    57   ar
    97    49    50    1
    98    56    54   ar
    99    57    55   ar
   100    50    51    1
   101    50    53    1
   102    54    55   ar
   103    54    53    1
   104    51    52    2
