@<TRIPOS>MOLECULE
tmp/3gwcA03.pdb
 91 90 0 0 0
SMALL
GASTEIGER

@<TRIPOS>ATOM
      1  N        -12.9260   24.3570  -66.2060 N.3    96  ARG96      -0.1231
      2  CA       -12.5900   23.0720  -65.6880 C.3    96  ARG96       0.1694
      3  C        -13.1140   21.9000  -66.5060 C.2    96  ARG96       0.2592
      4  O        -12.7360   20.7930  -66.2050 O.2    96  ARG96      -0.2718
      5  CB       -12.9560   22.9530  -64.2020 C.3    96  ARG96       0.0321
      6  CG       -12.1730   23.9390  -63.2880 C.3    96  ARG96       0.0489
      7  CD       -12.9410   24.1950  -62.0330 C.3    96  ARG96       0.2205
      8  NE       -14.1240   25.0110  -62.3230 N.pl3  96  ARG96      -0.0865
      9  CZ       -15.0390   25.3760  -61.4250 C.cat  96  ARG96       0.5346
     10  NH1      -14.9320   25.0170  -60.1430 N.pl3  96  ARG96       0.1354
     11  NH2      -16.0490   26.1320  -61.8080 N.pl3  96  ARG96       0.1354
     12  N        -13.9230   22.1220  -67.5550 N.am   97  HIS97      -0.1962
     13  CA       -14.3400   21.0070  -68.3970 C.3    97  HIS97       0.1787
     14  C        -13.5520   20.9680  -69.7100 C.2    97  HIS97       0.2620
     15  O        -14.0930   20.6400  -70.7370 O.2    97  HIS97      -0.2715
     16  CB       -15.8480   21.0490  -68.6600 C.3    97  HIS97       0.0785
     17  CG       -16.6660   20.6870  -67.4660 C.ar   97  HIS97       0.0821
     18  ND1      -16.7410   19.4030  -66.9850 N.ar   97  HIS97      -0.2267
     19  CD2      -17.4260   21.4430  -66.6420 C.ar   97  HIS97       0.1154
     20  CE1      -17.5510   19.3680  -65.9420 C.ar   97  HIS97       0.1986
     21  NE2      -17.9750   20.5960  -65.7080 N.ar   97  HIS97      -0.2212
     22  N        -12.2820   21.3350  -69.6570 N.am   98  PHE98      -0.1960
     23  CA       -11.3470   21.1010  -70.7320 C.3    98  PHE98       0.1771
     24  C        -10.1800   20.2370  -70.1930 C.2    98  PHE98       0.2620
     25  O         -9.9930   20.0830  -68.9610 O.2    98  PHE98      -0.2715
     26  CB       -10.7790   22.4170  -71.2270 C.3    98  PHE98       0.0574
     27  CG       -11.7670   23.2830  -71.9540 C.ar   98  PHE98      -0.0200
     28  CD1      -12.5820   24.1610  -71.2670 C.ar   98  PHE98      -0.0042
     29  CD2      -11.9040   23.1830  -73.3290 C.ar   98  PHE98      -0.0042
     30  CE1      -13.5060   24.9620  -71.9700 C.ar   98  PHE98      -0.0003
     31  CE2      -12.7750   23.9850  -74.0270 C.ar   98  PHE98      -0.0003
     32  CZ       -13.5750   24.8650  -73.3720 C.ar   98  PHE98      -0.0000
     33  N         -9.4110   19.6910  -71.1310 N.am   99  SER99      -0.1936
     34  CA        -8.1700   19.0030  -70.8230 C.3    99  SER99       0.2055
     35  C         -7.0340   19.7820  -71.4490 C.2    99  SER99       0.2643
     36  O         -7.1630   20.3210  -72.5710 O.2    99  SER99      -0.2714
     37  CB        -8.1930   17.5560  -71.3050 C.3    99  SER99       0.2130
     38  OG        -9.2610   16.8500  -70.6930 O.3    99  SER99      -0.2179
     39  N         -5.9340   19.8660  -70.7050 N.am  100  TYR100     -0.1959
     40  CA        -4.8120   20.7180  -71.0670 C.3   100  TYR100      0.1771
     41  C         -3.4970   19.9320  -71.0010 C.2   100  TYR100      0.2620
     42  O         -3.3370   19.0300  -70.1550 O.2   100  TYR100     -0.2715
     43  CB        -4.6860   21.8970  -70.1150 C.3   100  TYR100      0.0574
     44  CG        -5.9310   22.7270  -69.9450 C.ar  100  TYR100     -0.0198
     45  CD1       -6.7300   22.6050  -68.7980 C.ar  100  TYR100     -0.0009
     46  CD2       -6.3200   23.6090  -70.9220 C.ar  100  TYR100     -0.0009
     47  CE1       -7.8810   23.3710  -68.6520 C.ar  100  TYR100      0.0417
     48  CE2       -7.4690   24.3890  -70.7910 C.ar  100  TYR100      0.0417
     49  CZ        -8.2540   24.2570  -69.6550 C.ar  100  TYR100      0.1957
     50  OH        -9.3870   25.0280  -69.5370 O.3   100  TYR100     -0.2866
     51  N         -2.5690   20.2860  -71.8880 N.am  101  SER101     -0.1936
     52  CA        -1.1550   19.8730  -71.7710 C.3   101  SER101      0.2055
     53  C         -0.3650   21.1060  -72.2020 C.2   101  SER101      0.2642
     54  O         -0.5300   21.5880  -73.3240 O.2   101  SER101     -0.2714
     55  CB        -0.8050   18.6780  -72.6720 C.3   101  SER101      0.2130
     56  OG        -1.4800   17.4830  -72.3080 O.3   101  SER101     -0.2179
     57  N          0.4580   21.6530  -71.3090 N.am  102  GLN102     -0.1976
     58  CA         1.0460   22.9680  -71.5030 C.3   102  GLN102      0.1601
     59  C          2.5460   22.9090  -71.2570 C.2   102  GLN102      0.2287
     60  O          3.0200   22.1050  -70.4400 O.2   102  GLN102     -0.2864
     61  CB         0.4250   23.9700  -70.5310 C.3   102  GLN102      0.0394
     62  CG         1.0750   25.3520  -70.5020 C.3   102  GLN102      0.0908
     63  CD         0.2960   26.3630  -69.6540 C.2   102  GLN102      0.2608
     64  OE1       -0.6010   26.0040  -68.8780 O.2   102  GLN102     -0.2717
     65  NE2        0.6170   27.6280  -69.8290 N.am  102  GLN102     -0.0878
     66  N          5.9750   23.4190  -69.8800 N.3   104  SER104     -0.1217
     67  CA         6.4140   23.5290  -68.4920 C.3   104  SER104      0.1889
     68  C          7.6790   24.3810  -68.3650 C.2   104  SER104      0.2288
     69  O          8.7280   24.0500  -68.9450 O.2   104  SER104     -0.2866
     70  CB         6.6460   22.1270  -67.9440 C.3   104  SER104      0.2089
     71  OG         7.1800   22.1200  -66.6200 O.3   104  SER104     -0.2183
     72  N          9.1530   24.5800  -65.5600 N.3   106  ARG106     -0.1245
     73  CA        10.0250   23.7730  -64.6910 C.3   106  ARG106      0.1563
     74  C         11.0500   22.9960  -65.5240 C.2   106  ARG106      0.2260
     75  O         12.1410   22.7080  -65.0540 O.2   106  ARG106     -0.2867
     76  CB         9.2260   22.8080  -63.8190 C.3   106  ARG106      0.0307
     77  CG         8.2560   23.4410  -62.8360 C.3   106  ARG106      0.0489
     78  CD         7.5410   22.3680  -62.0100 C.3   106  ARG106      0.2205
     79  NE         8.4900   21.6400  -61.1470 N.pl3 106  ARG106     -0.0865
     80  CZ         8.3700   20.3750  -60.7510 C.cat 106  ARG106      0.5346
     81  NH1        7.3520   19.6110  -61.1550 N.pl3 106  ARG106      0.1354
     82  NH2        9.3120   19.8410  -59.9640 N.pl3 106  ARG106      0.1354
     83  N         14.7830   20.4200  -62.9940 N.3   164  LYS164     -0.1245
     84  CA        13.5410   21.1080  -62.5430 C.3   164  LYS164      0.1561
     85  C         13.8000   21.9940  -61.3200 C.2   164  LYS164      0.2260
     86  O         13.3440   23.1360  -61.2700 O.2   164  LYS164     -0.2867
     87  CB        12.4070   20.1160  -62.2480 C.3   164  LYS164      0.0271
     88  CG        11.7570   19.5300  -63.5060 C.3   164  LYS164      0.0035
     89  CD        10.7720   18.4250  -63.1660 C.3   164  LYS164      0.0206
     90  CE        10.2470   17.7140  -64.4250 C.3   164  LYS164      0.1093
     91  NZ         8.8030   17.9220  -64.7030 N.3   164  LYS164     -0.1314
@<TRIPOS>BOND
     1    31    32   ar
     2    31    29   ar
     3    32    30   ar
     4    29    27   ar
     5    54    53    2
     6    55    56    1
     7    55    52    1
     8    36    35    2
     9    53    52    1
    10    53    57   am
    11    30    28   ar
    12    27    28   ar
    13    27    26    1
    14    51    52    1
    15    51    41   am
    16    58    57    1
    17    58    59    1
    18    58    61    1
    19    35    34    1
    20    35    39   am
    21    37    34    1
    22    37    38    1
    23    59    60    2
    24    26    23    1
    25    33    34    1
    26    33    24   am
    27    40    41    1
    28    40    39    1
    29    40    43    1
    30    41    42    2
    31    46    48   ar
    32    46    44   ar
    33    48    49   ar
    34    15    14    2
    35    23    24    1
    36    23    22    1
    37    61    62    1
    38    62    63    1
    39    24    25    2
    40    43    44    1
    41    44    45   ar
    42    66    67    1
    43    65    63   am
    44    14    22   am
    45    14    13    1
    46    49    50    1
    47    49    47   ar
    48    63    64    2
    49    69    68    2
    50    45    47   ar
    51    16    13    1
    52    16    17    1
    53    67    68    1
    54    67    70    1
    55    13    12    1
    56    70    71    1
    57    12     3   am
    58    17    18   ar
    59    17    19   ar
    60    18    20   ar
    61    19    21   ar
    62     3     4    2
    63     3     2    1
    64     1     2    1
    65    20    21   ar
    66     2     5    1
    67    72    73    1
    68    74    75    2
    69    74    73    1
    70    91    90    1
    71    73    76    1
    72    90    89    1
    73     5     6    1
    74    76    77    1
    75    88    89    1
    76    88    87    1
    77     6     7    1
    78    83    84    1
    79    77    78    1
    80    84    87    1
    81    84    85    1
    82     8     7    1
    83     8     9    2
    84    78    79    1
    85    11     9    1
    86     9    10    1
    87    85    86    2
    88    81    80    1
    89    79    80    2
    90    80    82    1
