@<TRIPOS>MOLECULE
tmp/3gwcA02.pdb
 87 83 0 0 0
SMALL
GASTEIGER

@<TRIPOS>ATOM
      1  N        -31.9660    9.0320  -77.6670 N.3    42  CYS42      -0.1221
      2  CA       -32.8010    9.2790  -76.4970 C.3    42  CYS42       0.1808
      3  C        -34.2770    8.9920  -76.7760 C.2    42  CYS42       0.2601
      4  O        -35.0260    8.5850  -75.8940 O.2    42  CYS42      -0.2717
      5  CB       -32.6960   10.7300  -76.0320 C.3    42  CYS42       0.0970
      6  SG       -31.0190   11.2860  -75.6710 S.3    42  CYS42      -0.0800
      7  N        -34.6690    9.2300  -78.0210 N.am   43  TYR43      -0.1976
      8  CA       -36.0680    9.1240  -78.4540 C.3    43  TYR43       0.1639
      9  C        -36.3160    7.8990  -79.3420 C.2    43  TYR43       0.2290
     10  O        -37.4770    7.6230  -79.7080 O.2    43  TYR43      -0.2864
     11  CB       -36.4350   10.3870  -79.2500 C.3    43  TYR43       0.0560
     12  CG       -36.4660   11.6470  -78.4240 C.ar   43  TYR43      -0.0198
     13  CD1      -35.2930   12.3390  -78.1350 C.ar   43  TYR43      -0.0009
     14  CD2      -37.6720   12.1730  -77.9540 C.ar   43  TYR43      -0.0009
     15  CE1      -35.3030   13.5170  -77.3550 C.ar   43  TYR43       0.0417
     16  CE2      -37.7070   13.3580  -77.1980 C.ar   43  TYR43       0.0417
     17  CZ       -36.5190   14.0140  -76.8850 C.ar   43  TYR43       0.1957
     18  OH       -36.5420   15.1750  -76.1350 O.3    43  TYR43      -0.2866
     19  N        -31.0600   21.1370  -75.1980 N.3    68  HIS68      -0.1241
     20  CA       -30.5480   19.8150  -74.8640 C.3    68  HIS68       0.1621
     21  C        -29.0160   19.7870  -75.0320 C.2    68  HIS68       0.2264
     22  O        -28.4710   19.0140  -75.8240 O.2    68  HIS68      -0.2867
     23  CB       -31.2230   18.7330  -75.7410 C.3    68  HIS68       0.0745
     24  CG       -32.7180   18.6540  -75.5710 C.ar   68  HIS68       0.0817
     25  ND1      -33.5380   17.9860  -76.4590 N.ar   68  HIS68      -0.2268
     26  CD2      -33.5390   19.1820  -74.6290 C.ar   68  HIS68       0.1154
     27  CE1      -34.7960   18.0990  -76.0670 C.ar   68  HIS68       0.1986
     28  NE2      -34.8260   18.8220  -74.9610 N.ar   68  HIS68      -0.2212
     29  N        -26.5490   18.6750  -73.2440 N.3    70  SER70      -0.1217
     30  CA       -25.7770   17.4580  -72.8740 C.3    70  SER70       0.1889
     31  C        -25.4460   16.5500  -74.0880 C.2    70  SER70       0.2288
     32  O        -24.4330   15.8440  -74.1080 O.2    70  SER70      -0.2866
     33  CB       -26.5180   16.6420  -71.7890 C.3    70  SER70       0.2089
     34  OG       -27.6700   15.9880  -72.3080 O.3    70  SER70      -0.2183
     35  N        -21.9770   17.1020  -75.8840 N.3    73  GLU73      -0.1245
     36  CA       -20.7720   16.6650  -75.2100 C.3    73  GLU73       0.1567
     37  C        -20.0650   15.4760  -75.8910 C.2    73  GLU73       0.2260
     38  O        -18.8800   15.2470  -75.6170 O.2    73  GLU73      -0.2867
     39  CB       -21.0960   16.2980  -73.7700 C.3    73  GLU73       0.0388
     40  CG       -21.5950   17.4590  -72.9060 C.3    73  GLU73       0.1160
     41  CD       -21.9460   16.9920  -71.5000 C.2    73  GLU73       0.3649
     42  OE1      -21.5680   15.8480  -71.1490 O.co2  73  GLU73      -0.2457
     43  OE2      -22.6420   17.7370  -70.7900 O.co2  73  GLU73      -0.2457
     44  N        -13.9230   22.1220  -67.5550 N.3    97  HIS97      -0.1241
     45  CA       -14.3400   21.0070  -68.3970 C.3    97  HIS97       0.1621
     46  C        -13.5520   20.9680  -69.7100 C.2    97  HIS97       0.2264
     47  O        -14.0930   20.6400  -70.7370 O.2    97  HIS97      -0.2867
     48  CB       -15.8480   21.0490  -68.6600 C.3    97  HIS97       0.0745
     49  CG       -16.6660   20.6870  -67.4660 C.ar   97  HIS97       0.0817
     50  ND1      -16.7410   19.4030  -66.9850 N.ar   97  HIS97      -0.2268
     51  CD2      -17.4260   21.4430  -66.6420 C.ar   97  HIS97       0.1154
     52  CE1      -17.5510   19.3680  -65.9420 C.ar   97  HIS97       0.1986
     53  NE2      -17.9750   20.5960  -65.7080 N.ar   97  HIS97      -0.2212
     54  N        -15.1710   19.1850  -75.3870 N.3   187  ASN187     -0.1240
     55  CA       -16.3420   18.8620  -76.1680 C.3   187  ASN187      0.1653
     56  C        -17.0940   20.1230  -76.6190 C.2   187  ASN187      0.2266
     57  O        -16.7780   21.2510  -76.1940 O.2   187  ASN187     -0.2867
     58  CB       -17.2590   17.8920  -75.4340 C.3   187  ASN187      0.1155
     59  CG       -17.8650   18.4920  -74.1720 C.2   187  ASN187      0.2627
     60  OD1      -18.5350   19.5200  -74.2160 O.2   187  ASN187     -0.2716
     61  ND2      -17.6890   17.7940  -73.0440 N.am  187  ASN187     -0.0877
     62  N        -20.0220   21.3730  -76.0080 N.3   189  ARG189     -0.1231
     63  CA       -20.6770   22.1250  -74.9640 C.3   189  ARG189      0.1694
     64  C        -19.6800   23.0040  -74.1890 C.2   189  ARG189      0.2591
     65  O        -19.9460   24.1940  -73.9450 O.2   189  ARG189     -0.2718
     66  CB       -21.3970   21.1790  -74.0150 C.3   189  ARG189      0.0321
     67  CG       -22.2150   21.8900  -72.9830 C.3   189  ARG189      0.0489
     68  CD       -22.8920   20.9230  -72.0500 C.3   189  ARG189      0.2205
     69  NE       -23.8630   21.5990  -71.2050 N.pl3 189  ARG189     -0.0865
     70  CZ       -24.6760   20.9720  -70.3640 C.cat 189  ARG189      0.5346
     71  NH1      -24.6180   19.6520  -70.2230 N.pl3 189  ARG189      0.1354
     72  NH2      -25.5430   21.6770  -69.6460 N.pl3 189  ARG189      0.1354
     73  N        -18.5470   22.4130  -73.8370 N.am  190  ALA190     -0.1980
     74  CA       -17.4530   23.1190  -73.1600 C.3   190  ALA190      0.1597
     75  C        -16.9130   24.2890  -74.0030 C.2   190  ALA190      0.2287
     76  O        -16.6860   25.3830  -73.4850 O.2   190  ALA190     -0.2864
     77  CB       -16.3220   22.1390  -72.8510 C.3   190  ALA190      0.0319
     78  N        -19.4330   27.1680  -73.8950 N.3   193  HIS193     -0.1241
     79  CA       -19.3760   27.9270  -72.6720 C.3   193  HIS193      0.1621
     80  C        -18.1530   28.8740  -72.6250 C.2   193  HIS193      0.2264
     81  O        -18.2570   30.0300  -72.2010 O.2   193  HIS193     -0.2867
     82  CB       -19.4290   26.9970  -71.4480 C.3   193  HIS193      0.0745
     83  CG       -19.4220   27.7400  -70.1500 C.ar  193  HIS193      0.0817
     84  ND1      -20.4720   28.5330  -69.7420 N.ar  193  HIS193     -0.2268
     85  CD2      -18.4550   27.8840  -69.2150 C.ar  193  HIS193      0.1154
     86  CE1      -20.1730   29.0880  -68.5760 C.ar  193  HIS193      0.1986
     87  NE2      -18.9480   28.7190  -68.2420 N.ar  193  HIS193     -0.2212
@<TRIPOS>BOND
     1    10     9    2
     2     9     8    1
     3    11     8    1
     4    11    12    1
     5     8     7    1
     6    12    13   ar
     7    12    14   ar
     8    13    15   ar
     9     7     3   am
    10    14    16   ar
    11     1     2    1
    12    15    17   ar
    13    16    17   ar
    14    17    18    1
    15     3     2    1
    16     3     4    2
    17    56    57    2
    18    56    55    1
    19     2     5    1
    20    25    27   ar
    21    25    24   ar
    22    55    58    1
    23    55    54    1
    24    27    28   ar
    25     5     6    1
    26    62    63    1
    27    37    38    2
    28    37    36    1
    29    35    36    1
    30    22    21    2
    31    23    24    1
    32    23    20    1
    33    24    26   ar
    34    58    59    1
    35    36    39    1
    36    19    20    1
    37    21    20    1
    38    63    64    1
    39    63    66    1
    40    28    26   ar
    41    60    59    2
    42    64    65    2
    43    64    73   am
    44    59    61   am
    45    32    31    2
    46    31    30    1
    47    66    67    1
    48    75    76    2
    49    75    74    1
    50    78    79    1
    51    73    74    1
    52    39    40    1
    53    29    30    1
    54    74    77    1
    55    67    68    1
    56    40    41    1
    57    30    33    1
    58    79    80    1
    59    79    82    1
    60    80    81    2
    61    34    33    1
    62    68    69    1
    63    41    42   ar
    64    41    43   ar
    65    82    83    1
    66    69    70    2
    67    47    46    2
    68    70    71    1
    69    70    72    1
    70    83    84   ar
    71    83    85   ar
    72    84    86   ar
    73    46    45    1
    74    85    87   ar
    75    48    45    1
    76    48    49    1
    77    86    87   ar
    78    45    44    1
    79    49    50   ar
    80    49    51   ar
    81    50    52   ar
    82    51    53   ar
    83    52    53   ar
