@<TRIPOS>MOLECULE
tmp/3gwcA00.pdb
 97 98 0 0 0
SMALL
GASTEIGER

@<TRIPOS>ATOM
      1  N         -8.8700   28.1300  -65.7640 N.3    94  ARG94      -0.1231
      2  CA       -10.0150   28.2070  -64.8610 C.3    94  ARG94       0.1694
      3  C        -11.2460   27.4880  -65.4070 C.2    94  ARG94       0.2592
      4  O        -12.1340   27.1550  -64.6280 O.2    94  ARG94      -0.2718
      5  CB       -10.3600   29.6550  -64.5520 C.3    94  ARG94       0.0321
      6  CG        -9.3030   30.4040  -63.6700 C.3    94  ARG94       0.0489
      7  CD        -9.1190   29.7240  -62.2820 C.3    94  ARG94       0.2205
      8  NE       -10.3540   29.8710  -61.5010 N.pl3  94  ARG94      -0.0865
      9  CZ       -10.6900   30.9390  -60.7740 C.cat  94  ARG94       0.5346
     10  NH1       -9.8790   31.9900  -60.6500 N.pl3  94  ARG94       0.1354
     11  NH2      -11.8540   30.9600  -60.1570 N.pl3  94  ARG94       0.1354
     12  N        -11.2950   27.2340  -66.7260 N.am   95  HIS95      -0.1962
     13  CA       -12.3690   26.4320  -67.3070 C.3    95  HIS95       0.1787
     14  C        -12.0900   24.9670  -67.0420 C.2    95  HIS95       0.2620
     15  O        -11.1300   24.4060  -67.5730 O.2    95  HIS95      -0.2715
     16  CB       -12.5220   26.7360  -68.8150 C.3    95  HIS95       0.0785
     17  CG       -12.9710   28.1330  -69.0560 C.ar   95  HIS95       0.0821
     18  ND1      -14.2810   28.5110  -68.8910 N.ar   95  HIS95      -0.2267
     19  CD2      -12.2790   29.2680  -69.3080 C.ar   95  HIS95       0.1154
     20  CE1      -14.3900   29.8110  -69.1060 C.ar   95  HIS95       0.1986
     21  NE2      -13.1870   30.2940  -69.3630 N.ar   95  HIS95      -0.2212
     22  N        -12.9260   24.3570  -66.2060 N.am   96  ARG96      -0.1963
     23  CA       -12.5900   23.0720  -65.6880 C.3    96  ARG96       0.1729
     24  C        -13.1140   21.9000  -66.5060 C.2    96  ARG96       0.2616
     25  O        -12.7360   20.7930  -66.2050 O.2    96  ARG96      -0.2715
     26  CB       -12.9560   22.9530  -64.2020 C.3    96  ARG96       0.0348
     27  CG       -12.1730   23.9390  -63.2880 C.3    96  ARG96       0.0492
     28  CD       -12.9410   24.1950  -62.0330 C.3    96  ARG96       0.2205
     29  NE       -14.1240   25.0110  -62.3230 N.pl3  96  ARG96      -0.0865
     30  CZ       -15.0390   25.3760  -61.4250 C.cat  96  ARG96       0.5346
     31  NH1      -14.9320   25.0170  -60.1430 N.pl3  96  ARG96       0.1354
     32  NH2      -16.0490   26.1320  -61.8080 N.pl3  96  ARG96       0.1354
     33  N        -13.9230   22.1220  -67.5550 N.am   97  HIS97      -0.1959
     34  CA       -14.3400   21.0070  -68.3970 C.3    97  HIS97       0.1787
     35  C        -13.5520   20.9680  -69.7100 C.2    97  HIS97       0.2620
     36  O        -14.0930   20.6400  -70.7370 O.2    97  HIS97      -0.2715
     37  CB       -15.8480   21.0490  -68.6600 C.3    97  HIS97       0.0785
     38  CG       -16.6660   20.6870  -67.4660 C.ar   97  HIS97       0.0821
     39  ND1      -16.7410   19.4030  -66.9850 N.ar   97  HIS97      -0.2267
     40  CD2      -17.4260   21.4430  -66.6420 C.ar   97  HIS97       0.1154
     41  CE1      -17.5510   19.3680  -65.9420 C.ar   97  HIS97       0.1986
     42  NE2      -17.9750   20.5960  -65.7080 N.ar   97  HIS97      -0.2212
     43  N        -12.2820   21.3350  -69.6570 N.am   98  PHE98      -0.1974
     44  CA       -11.3470   21.1010  -70.7320 C.3    98  PHE98       0.1639
     45  C        -10.1800   20.2370  -70.1930 C.2    98  PHE98       0.2290
     46  O         -9.9930   20.0830  -68.9610 O.2    98  PHE98      -0.2864
     47  CB       -10.7790   22.4170  -71.2270 C.3    98  PHE98       0.0560
     48  CG       -11.7670   23.2830  -71.9540 C.ar   98  PHE98      -0.0200
     49  CD1      -12.5820   24.1610  -71.2670 C.ar   98  PHE98      -0.0042
     50  CD2      -11.9040   23.1830  -73.3290 C.ar   98  PHE98      -0.0042
     51  CE1      -13.5060   24.9620  -71.9700 C.ar   98  PHE98      -0.0003
     52  CE2      -12.7750   23.9850  -74.0270 C.ar   98  PHE98      -0.0003
     53  CZ       -13.5750   24.8650  -73.3720 C.ar   98  PHE98      -0.0000
     54  N        -19.4330   27.1680  -73.8950 N.3   193  HIS193     -0.1241
     55  CA       -19.3760   27.9270  -72.6720 C.3   193  HIS193      0.1621
     56  C        -18.1530   28.8740  -72.6250 C.2   193  HIS193      0.2264
     57  O        -18.2570   30.0300  -72.2010 O.2   193  HIS193     -0.2867
     58  CB       -19.4290   26.9970  -71.4480 C.3   193  HIS193      0.0745
     59  CG       -19.4220   27.7400  -70.1500 C.ar  193  HIS193      0.0817
     60  ND1      -20.4720   28.5330  -69.7420 N.ar  193  HIS193     -0.2268
     61  CD2      -18.4550   27.8840  -69.2150 C.ar  193  HIS193      0.1154
     62  CE1      -20.1730   29.0880  -68.5760 C.ar  193  HIS193      0.1986
     63  NE2      -18.9480   28.7190  -68.2420 N.ar  193  HIS193     -0.2212
     64  N        -18.3150   33.0400  -72.3610 N.3   197  MET197     -0.1230
     65  CA       -17.6210   33.7590  -71.2970 C.3   197  MET197      0.1702
     66  C        -16.4650   34.6260  -71.7860 C.2   197  MET197      0.2592
     67  O        -16.2320   35.7130  -71.2510 O.2   197  MET197     -0.2718
     68  CB       -17.0600   32.7510  -70.2680 C.3   197  MET197      0.0401
     69  CG       -18.0850   31.9010  -69.5650 C.3   197  MET197      0.0596
     70  SD       -19.3370   32.8590  -68.6650 S.3   197  MET197     -0.1393
     71  CE       -20.7390   32.6920  -69.7660 C.3   197  MET197      0.0692
     72  N        -15.7310   34.1710  -72.8000 N.am  198  ARG198     -0.1980
     73  CA       -14.4660   34.8390  -73.1450 C.3   198  ARG198      0.1597
     74  C        -14.4690   35.7590  -74.3800 C.2   198  ARG198      0.2287
     75  O        -13.6650   36.7180  -74.4490 O.2   198  ARG198     -0.2864
     76  CB       -13.3420   33.8200  -73.2240 C.3   198  ARG198      0.0334
     77  CG       -13.1350   33.0160  -71.9180 C.3   198  ARG198      0.0492
     78  CD       -12.9750   33.9210  -70.7000 C.3   198  ARG198      0.2205
     79  NE       -12.5490   33.1360  -69.5350 N.pl3 198  ARG198     -0.0865
     80  CZ       -11.9260   33.6320  -68.4810 C.cat 198  ARG198      0.5346
     81  NH1      -11.6190   34.9060  -68.4350 N.pl3 198  ARG198      0.1354
     82  NH2      -11.6010   32.8330  -67.4810 N.pl3 198  ARG198      0.1354
     83  N        -16.6360   41.8600  -71.3780 N.3   202  HIS202     -0.1226
     84  CA       -16.1370   41.8160  -69.9890 C.3   202  HIS202      0.1752
     85  C        -14.7470   41.1790  -69.8890 C.2   202  HIS202      0.2595
     86  O        -14.0370   41.3790  -68.8990 O.2   202  HIS202     -0.2718
     87  CB       -17.1190   41.0570  -69.0740 C.3   202  HIS202      0.0759
     88  CG       -18.4910   41.6550  -69.0460 C.ar  202  HIS202      0.0818
     89  ND1      -18.8410   42.6760  -68.1890 N.ar  202  HIS202     -0.2268
     90  CD2      -19.5940   41.3870  -69.7850 C.ar  202  HIS202      0.1154
     91  CE1      -20.1040   43.0060  -68.3980 C.ar  202  HIS202      0.1986
     92  NE2      -20.5770   42.2520  -69.3750 N.ar  202  HIS202     -0.2212
     93  N        -14.3750   40.4070  -70.8960 N.am  203  ALA203     -0.1980
     94  CA       -13.1650   39.6130  -70.8630 C.3   203  ALA203      0.1597
     95  C        -11.9590   40.4700  -71.2520 C.2   203  ALA203      0.2287
     96  O        -12.1150   41.4540  -71.9550 O.2   203  ALA203     -0.2864
     97  CB       -13.3120   38.4210  -71.8080 C.3   203  ALA203      0.0319
@<TRIPOS>BOND
     1    75    74    2
     2    74    73    1
     3    52    53   ar
     4    52    50   ar
     5    54    55    1
     6    53    51   ar
     7    50    48   ar
     8    76    73    1
     9    76    77    1
    10    73    72    1
    11    72    66   am
    12    55    56    1
    13    55    58    1
    14    56    57    2
    15    64    65    1
    16    51    49   ar
    17    96    95    2
    18    48    49   ar
    19    48    47    1
    20    77    78    1
    21    97    94    1
    22    66    65    1
    23    66    67    2
    24    58    59    1
    25    83    84    1
    26    65    68    1
    27    95    94    1
    28    47    44    1
    29    93    94    1
    30    93    85   am
    31    36    35    2
    32    44    45    1
    33    44    43    1
    34    78    79    1
    35    68    69    1
    36    45    46    2
    37    59    60   ar
    38    59    61   ar
    39    84    85    1
    40    84    87    1
    41    85    86    2
    42    90    92   ar
    43    90    88   ar
    44    71    70    1
    45    60    62   ar
    46    35    43   am
    47    35    34    1
    48    69    70    1
    49    79    80    2
    50    92    91   ar
    51    21    19   ar
    52    21    20   ar
    53    19    17   ar
    54    61    63   ar
    55    20    18   ar
    56    87    88    1
    57    17    18   ar
    58    17    16    1
    59    88    89   ar
    60    16    13    1
    61    37    34    1
    62    37    38    1
    63    62    63   ar
    64    80    81    1
    65    80    82    1
    66    91    89   ar
    67    34    33    1
    68    15    14    2
    69    33    24   am
    70    38    39   ar
    71    38    40   ar
    72    13    14    1
    73    13    12    1
    74    14    22   am
    75    39    41   ar
    76    12     3   am
    77    40    42   ar
    78    24    25    2
    79    24    23    1
    80    22    23    1
    81    41    42   ar
    82     1     2    1
    83    23    26    1
    84     3     2    1
    85     3     4    2
    86     2     5    1
    87     5     6    1
    88    26    27    1
    89     6     7    1
    90    27    28    1
    91    29    28    1
    92    29    30    2
    93     7     8    1
    94    32    30    1
    95     8     9    2
    96    30    31    1
    97     9    10    1
    98     9    11    1
