@<TRIPOS>MOLECULE
tmp/3gwcA01.pdb
 94 89 0 0 0
SMALL
GASTEIGER

@<TRIPOS>ATOM
      1  N          1.3450   33.7560  -70.4740 N.3    86  ARG86      -0.1245
      2  CA         1.1440   33.1190  -69.2130 C.3    86  ARG86       0.1563
      3  C         -0.0380   33.6920  -68.4120 C.2    86  ARG86       0.2260
      4  O         -0.7860   32.9570  -67.7570 O.2    86  ARG86      -0.2867
      5  CB         2.4620   33.2450  -68.4630 C.3    86  ARG86       0.0307
      6  CG         3.3170   31.9990  -68.5890 C.3    86  ARG86       0.0489
      7  CD         3.2640   31.3660  -67.2030 C.3    86  ARG86       0.2205
      8  NE         3.6020   30.0020  -67.2760 N.pl3  86  ARG86      -0.0865
      9  CZ         3.7510   29.2020  -66.2540 C.cat  86  ARG86       0.5346
     10  NH1        3.6380   29.6150  -64.9940 N.pl3  86  ARG86       0.1354
     11  NH2        4.0840   27.9730  -66.5330 N.pl3  86  ARG86       0.1354
     12  N         -7.2090   28.2800  -67.9720 N.3    93  ILE93      -0.1245
     13  CA        -7.2950   26.9900  -67.2780 C.3    93  ILE93       0.1561
     14  C         -8.2930   26.9800  -66.0930 C.2    93  ILE93       0.2260
     15  O         -8.5190   25.9490  -65.5010 O.2    93  ILE93      -0.2867
     16  CB        -5.8850   26.4010  -66.8580 C.3    93  ILE93       0.0252
     17  CG1       -5.1600   27.2950  -65.8450 C.3    93  ILE93       0.0019
     18  CG2       -5.0350   26.1510  -68.0840 C.3    93  ILE93       0.0019
     19  CD1       -3.9230   26.6640  -65.2000 C.3    93  ILE93       0.0001
     20  N         -5.9340   19.8660  -70.7050 N.3   100  TYR100     -0.1241
     21  CA        -4.8120   20.7180  -71.0670 C.3   100  TYR100      0.1605
     22  C         -3.4970   19.9320  -71.0010 C.2   100  TYR100      0.2264
     23  O         -3.3370   19.0300  -70.1550 O.2   100  TYR100     -0.2867
     24  CB        -4.6860   21.8970  -70.1150 C.3   100  TYR100      0.0534
     25  CG        -5.9310   22.7270  -69.9450 C.ar  100  TYR100     -0.0201
     26  CD1       -6.7300   22.6050  -68.7980 C.ar  100  TYR100     -0.0009
     27  CD2       -6.3200   23.6090  -70.9220 C.ar  100  TYR100     -0.0009
     28  CE1       -7.8810   23.3710  -68.6520 C.ar  100  TYR100      0.0417
     29  CE2       -7.4690   24.3890  -70.7910 C.ar  100  TYR100      0.0417
     30  CZ        -8.2540   24.2570  -69.6550 C.ar  100  TYR100      0.1957
     31  OH        -9.3870   25.0280  -69.5370 O.3   100  TYR100     -0.2866
     32  N          0.4580   21.6530  -71.3090 N.3   102  GLN102     -0.1231
     33  CA         1.0460   22.9680  -71.5030 C.3   102  GLN102      0.1698
     34  C          2.5460   22.9090  -71.2570 C.2   102  GLN102      0.2592
     35  O          3.0200   22.1050  -70.4400 O.2   102  GLN102     -0.2718
     36  CB         0.4250   23.9700  -70.5310 C.3   102  GLN102      0.0381
     37  CG         1.0750   25.3520  -70.5020 C.3   102  GLN102      0.0905
     38  CD         0.2960   26.3630  -69.6540 C.2   102  GLN102      0.2608
     39  OE1       -0.6010   26.0040  -68.8780 O.2   102  GLN102     -0.2717
     40  NE2        0.6170   27.6280  -69.8290 N.am  102  GLN102     -0.0878
     41  N          3.2570   23.7480  -71.9960 N.am  103  LEU103     -0.1966
     42  CA         4.7020   23.9270  -71.8820 C.3   103  LEU103      0.1728
     43  C          5.0630   24.2240  -70.4290 C.2   103  LEU103      0.2617
     44  O          4.5200   25.1650  -69.8290 O.2   103  LEU103     -0.2715
     45  CB         5.1290   25.0830  -72.7880 C.3   103  LEU103      0.0311
     46  CG         6.6200   25.3370  -73.0060 C.3   103  LEU103      0.0022
     47  CD1        6.8150   25.9850  -74.3800 C.3   103  LEU103      0.0001
     48  CD2        7.2250   26.2110  -71.8820 C.3   103  LEU103      0.0001
     49  N          5.9750   23.4190  -69.8800 N.am  104  SER104     -0.1936
     50  CA         6.4140   23.5290  -68.4920 C.3   104  SER104      0.2055
     51  C          7.6790   24.3810  -68.3650 C.2   104  SER104      0.2643
     52  O          8.7280   24.0500  -68.9450 O.2   104  SER104     -0.2714
     53  CB         6.6460   22.1270  -67.9440 C.3   104  SER104      0.2130
     54  OG         7.1800   22.1200  -66.6200 O.3   104  SER104     -0.2179
     55  N          7.5800   25.4730  -67.6120 N.am  105  GLN105     -0.1963
     56  CA         8.7550   26.2870  -67.2780 C.3   105  GLN105      0.1733
     57  C          9.6510   25.5970  -66.2550 C.2   105  GLN105      0.2616
     58  O         10.8000   25.9650  -66.1130 O.2   105  GLN105     -0.2715
     59  CB         8.3450   27.6620  -66.7630 C.3   105  GLN105      0.0408
     60  CG         7.7750   28.6170  -67.8110 C.3   105  GLN105      0.0908
     61  CD         7.3110   29.9410  -67.1900 C.2   105  GLN105      0.2608
     62  OE1        7.3610   30.1000  -65.9660 O.2   105  GLN105     -0.2717
     63  NE2        6.8870   30.9060  -68.0370 N.am  105  GLN105     -0.0878
     64  N          9.1530   24.5800  -65.5600 N.am  106  ARG106     -0.1977
     65  CA        10.0250   23.7730  -64.6910 C.3   106  ARG106      0.1597
     66  C         11.0500   22.9960  -65.5240 C.2   106  ARG106      0.2287
     67  O         12.1410   22.7080  -65.0540 O.2   106  ARG106     -0.2864
     68  CB         9.2260   22.8080  -63.8190 C.3   106  ARG106      0.0334
     69  CG         8.2560   23.4410  -62.8360 C.3   106  ARG106      0.0492
     70  CD         7.5410   22.3680  -62.0100 C.3   106  ARG106      0.2205
     71  NE         8.4900   21.6400  -61.1470 N.pl3 106  ARG106     -0.0865
     72  CZ         8.3700   20.3750  -60.7510 C.cat 106  ARG106      0.5346
     73  NH1        7.3520   19.6110  -61.1550 N.pl3 106  ARG106      0.1354
     74  NH2        9.3120   19.8410  -59.9640 N.pl3 106  ARG106      0.1354
     75  N         14.7830   20.4200  -62.9940 N.3   164  LYS164     -0.1245
     76  CA        13.5410   21.1080  -62.5430 C.3   164  LYS164      0.1561
     77  C         13.8000   21.9940  -61.3200 C.2   164  LYS164      0.2260
     78  O         13.3440   23.1360  -61.2700 O.2   164  LYS164     -0.2867
     79  CB        12.4070   20.1160  -62.2480 C.3   164  LYS164      0.0271
     80  CG        11.7570   19.5300  -63.5060 C.3   164  LYS164      0.0035
     81  CD        10.7720   18.4250  -63.1660 C.3   164  LYS164      0.0206
     82  CE        10.2470   17.7140  -64.4250 C.3   164  LYS164      0.1093
     83  NZ         8.8030   17.9220  -64.7030 N.3   164  LYS164     -0.1314
     84  N         12.6820   30.6320  -63.0220 N.3   171  ARG171     -0.1245
     85  CA        11.5350   31.2640  -63.7180 C.3   171  ARG171      0.1563
     86  C         10.7190   32.2290  -62.8700 C.2   171  ARG171      0.2260
     87  O          9.8210   32.8850  -63.3900 O.2   171  ARG171     -0.2867
     88  CB        10.6050   30.2160  -64.3370 C.3   171  ARG171      0.0307
     89  CG        10.0010   29.2120  -63.3490 C.3   171  ARG171      0.0489
     90  CD         8.8610   29.7750  -62.4850 C.3   171  ARG171      0.2205
     91  NE         8.1670   28.6310  -61.9130 N.pl3 171  ARG171     -0.0865
     92  CZ         7.2590   27.9100  -62.5650 C.cat 171  ARG171      0.5346
     93  NH1        6.7450   26.8470  -61.9830 N.pl3 171  ARG171      0.1354
     94  NH2        6.8740   28.2350  -63.8040 N.pl3 171  ARG171      0.1354
@<TRIPOS>BOND
     1    47    46    1
     2    46    45    1
     3    46    48    1
     4    45    42    1
     5    41    42    1
     6    41    34   am
     7    42    43    1
     8    33    32    1
     9    33    34    1
    10    33    36    1
    11    34    35    2
    12    21    22    1
    13    21    20    1
    14    21    24    1
    15    22    23    2
    16    27    29   ar
    17    27    25   ar
    18    29    30   ar
    19    36    37    1
    20    37    38    1
    21     1     2    1
    22    43    49   am
    23    43    44    2
    24    24    25    1
    25    25    26   ar
    26    49    50    1
    27    40    38   am
    28    30    31    1
    29    30    28   ar
    30    38    39    2
    31     2     5    1
    32     2     3    1
    33    52    51    2
    34    26    28   ar
    35     6     5    1
    36     6     7    1
    37    50    51    1
    38    50    53    1
    39     3     4    2
    40    51    55   am
    41    18    16    1
    42    63    61   am
    43    12    13    1
    44    53    54    1
    45    60    61    1
    46    60    59    1
    47    55    56    1
    48    56    59    1
    49    56    57    1
    50    13    16    1
    51    13    14    1
    52     8     7    1
    53     8     9    2
    54    61    62    2
    55    16    17    1
    56    11     9    1
    57    57    58    2
    58    57    64   am
    59     9    10    1
    60    14    15    2
    61    17    19    1
    62    64    65    1
    63    66    67    2
    64    66    65    1
    65    83    82    1
    66    65    68    1
    67    82    81    1
    68    88    85    1
    69    88    89    1
    70    68    69    1
    71    94    92    1
    72    85    84    1
    73    85    86    1
    74    80    81    1
    75    80    79    1
    76    87    86    2
    77    89    90    1
    78    75    76    1
    79    69    70    1
    80    92    93    1
    81    92    91    2
    82    76    79    1
    83    76    77    1
    84    90    91    1
    85    70    71    1
    86    77    78    2
    87    73    72    1
    88    71    72    2
    89    72    74    1
