@<TRIPOS>MOLECULE
tmp/3gwdA02.pdb
 134 128 0 0 0
SMALL
GASTEIGER

@<TRIPOS>ATOM
      1  N         -5.3710   13.2410    4.6630 N.3    35  ASP35      -0.1225
      2  CA        -5.2780   11.8990    5.2370 C.3    35  ASP35       0.1805
      3  C         -3.8130   11.7180    5.6380 C.2    35  ASP35       0.2597
      4  O         -2.9220   12.2230    4.9510 O.2    35  ASP35      -0.2718
      5  CB        -5.7550   10.7990    4.2530 C.3    35  ASP35       0.1424
      6  CG        -6.1530    9.4810    4.9560 C.2    35  ASP35       0.3668
      7  OD1       -5.5320    9.1110    5.9790 O.co2  35  ASP35      -0.2456
      8  OD2       -7.0850    8.7970    4.4800 O.co2  35  ASP35      -0.2456
      9  N         -3.5920   11.0670    6.7820 N.am   36  LYS36      -0.1979
     10  CA        -2.2680   10.6170    7.1790 C.3    36  LYS36       0.1596
     11  C         -1.7220    9.6100    6.1530 C.2    36  LYS36       0.2287
     12  O         -0.5380    9.6600    5.8160 O.2    36  LYS36      -0.2864
     13  CB        -2.2820   10.0120    8.5900 C.3    36  LYS36       0.0298
     14  CG        -0.9910    9.2660    9.0180 C.3    36  LYS36       0.0038
     15  CD         0.0830   10.2470    9.4430 C.3    36  LYS36       0.0206
     16  CE         1.4680    9.5640    9.5000 C.3    36  LYS36       0.1093
     17  NZ         2.5260   10.4210   10.1440 N.3    36  LYS36      -0.1314
     18  N         -8.6040    4.8960    2.3800 N.3    42  GLY42      -0.1210
     19  CA        -9.0430    4.6770    3.7480 C.3    42  GLY42       0.1956
     20  C         -8.8170    3.2530    4.2170 C.2    42  GLY42       0.2612
     21  O         -7.6930    2.7680    4.2420 O.2    42  GLY42      -0.2717
     22  N         -9.8990    2.5790    4.5970 N.am   43  THR43      -0.1952
     23  CA        -9.8780    1.1700    4.9920 C.3    43  THR43       0.1897
     24  C         -9.0070    0.2980    4.0670 C.2    43  THR43       0.2313
     25  O         -8.2660   -0.5840    4.5320 O.2    43  THR43      -0.2863
     26  CB       -11.3170    0.6430    5.0050 C.3    43  THR43       0.1794
     27  OG1      -12.0820    1.4380    5.9160 O.3    43  THR43      -0.2208
     28  CG2      -11.3860   -0.8130    5.4310 C.3    43  THR43       0.0378
     29  N         -5.2340    1.0570    4.3570 N.3    46  TRP46      -0.1227
     30  CA        -4.6050    0.6450    5.6050 C.3    46  TRP46       0.1737
     31  C         -4.6460   -0.8590    5.8240 C.2    46  TRP46       0.2595
     32  O         -3.6620   -1.4490    6.2950 O.2    46  TRP46      -0.2718
     33  CB        -5.2030    1.3710    6.8120 C.3    46  TRP46       0.0564
     34  CG        -4.9340    2.8510    6.8950 C.ar   46  TRP46       0.0003
     35  CD1       -5.8460    3.8520    6.7400 C.ar   46  TRP46       0.0946
     36  CD2       -3.6770    3.4950    7.2070 C.ar   46  TRP46       0.0152
     37  NE1       -5.2410    5.0790    6.9100 N.ar   46  TRP46      -0.2442
     38  CE2       -3.9130    4.8940    7.1950 C.ar   46  TRP46       0.0810
     39  CE3       -2.3800    3.0300    7.4700 C.ar   46  TRP46       0.0012
     40  CZ2       -2.8950    5.8400    7.4440 C.ar   46  TRP46       0.0191
     41  CZ3       -1.3610    3.9750    7.7230 C.ar   46  TRP46       0.0001
     42  CH2       -1.6320    5.3620    7.7050 C.ar   46  TRP46       0.0015
     43  N         -5.7750   -1.4870    5.5170 N.am   47  ASN47      -0.1974
     44  CA        -5.9060   -2.9320    5.7700 C.3    47  ASN47       0.1688
     45  C         -5.3230   -3.8560    4.6840 C.2    47  ASN47       0.2292
     46  O         -6.0450   -4.6580    4.0520 O.2    47  ASN47      -0.2864
     47  CB        -7.3320   -3.3220    6.1370 C.3    47  ASN47       0.1181
     48  CG        -7.8600   -2.5560    7.3600 C.2    47  ASN47       0.2629
     49  OD1       -8.2490   -1.4150    7.2350 O.2    47  ASN47      -0.2716
     50  ND2       -7.9220   -3.2000    8.5150 N.am   47  ASN47      -0.0877
     51  N         -1.8210   14.4230    8.8010 N.3   107  GLU107     -0.1245
     52  CA        -2.8500   14.2890    9.8180 C.3   107  GLU107      0.1567
     53  C         -3.3370   15.6570   10.3300 C.2   107  GLU107      0.2260
     54  O         -2.5350   16.5290   10.6570 O.2   107  GLU107     -0.2867
     55  CB        -2.3070   13.4420   10.9780 C.3   107  GLU107      0.0388
     56  CG        -3.2820   13.2370   12.1070 C.3   107  GLU107      0.1160
     57  CD        -2.6330   12.5900   13.3280 C.2   107  GLU107      0.3649
     58  OE1       -1.4930   12.0970   13.2050 O.co2 107  GLU107     -0.2457
     59  OE2       -3.2700   12.5870   14.4030 O.co2 107  GLU107     -0.2457
     60  N        -14.4470    2.7850   11.7940 N.3   142  LEU142     -0.1231
     61  CA       -13.5950    1.6140   12.1010 C.3   142  LEU142      0.1693
     62  C        -12.1510    1.8780   11.6250 C.2   142  LEU142      0.2593
     63  O        -11.6070    1.1810   10.7500 O.2   142  LEU142     -0.2718
     64  CB       -14.2000    0.3110   11.4960 C.3   142  LEU142      0.0284
     65  CG       -15.4890   -0.3230   12.0970 C.3   142  LEU142      0.0019
     66  CD1      -16.2830   -1.1970   11.0750 C.3   142  LEU142      0.0001
     67  CD2      -15.2020   -1.1600   13.3960 C.3   142  LEU142      0.0001
     68  N        -11.5360    2.9210   12.1860 N.am  143  SER143     -0.1938
     69  CA       -10.1840    3.2970   11.8030 C.3   143  SER143      0.2055
     70  C         -9.2920    3.6670   12.9720 C.2   143  SER143      0.2643
     71  O         -8.0690    3.7290   12.8070 O.2   143  SER143     -0.2714
     72  CB       -10.2130    4.4420   10.8010 C.3   143  SER143      0.2130
     73  OG       -10.6360    5.6030   11.4470 O.3   143  SER143     -0.2179
     74  N         -9.8800    3.9450   14.1350 N.am  144  ALA144     -0.1963
     75  CA        -9.0720    4.2780   15.3050 C.3   144  ALA144      0.1728
     76  C         -8.5930    2.9600   15.9120 C.2   144  ALA144      0.2616
     77  O         -9.3360    2.3060   16.6340 O.2   144  ALA144     -0.2715
     78  CB        -9.8660    5.0850   16.3080 C.3   144  ALA144      0.0334
     79  N         -7.3500    2.5830   15.6060 N.am  145  ILE145     -0.1977
     80  CA        -6.7860    1.2770   15.9950 C.3   145  ILE145      0.1596
     81  C         -6.8310    1.0390   17.5060 C.2   145  ILE145      0.2287
     82  O         -6.4240    1.8920   18.2910 O.2   145  ILE145     -0.2864
     83  CB        -5.3390    1.0970   15.4360 C.3   145  ILE145      0.0276
     84  CG1       -5.3910    0.7060   13.9560 C.3   145  ILE145      0.0022
     85  CG2       -4.5480    0.0480   16.2230 C.3   145  ILE145      0.0022
     86  CD1       -4.1990    1.1900   13.1340 C.3   145  ILE145      0.0001
     87  N         -4.7590   -3.4530   10.8560 N.3   164  ALA164     -0.1231
     88  CA        -5.2570   -2.2240   10.2460 C.3   164  ALA164      0.1694
     89  C         -4.1310   -1.2190    9.9920 C.2   164  ALA164      0.2591
     90  O         -4.3760   -0.0890    9.5660 O.2   164  ALA164     -0.2718
     91  CB        -6.3790   -1.6270   11.0710 C.3   164  ALA164      0.0304
     92  N         -2.8980   -1.6630   10.2250 N.am  165  ALA165     -0.1980
     93  CA        -1.7080   -0.9360    9.7840 C.3   165  ALA165      0.1597
     94  C         -0.6750   -1.8860    9.1240 C.2   165  ALA165      0.2287
     95  O          0.5300   -1.6630    9.2110 O.2   165  ALA165     -0.2864
     96  CB        -1.0850   -0.1730   10.9540 C.3   165  ALA165      0.0319
     97  N        -10.8870   -1.9110   16.8450 N.3   378  PHE378     -0.1241
     98  CA       -10.9360   -0.4370   16.7830 C.3   378  PHE378      0.1605
     99  C        -11.7200    0.1590   17.9240 C.2   378  PHE378      0.2264
    100  O        -12.6530   -0.4580   18.4420 O.2   378  PHE378     -0.2867
    101  CB       -11.6270    0.0320   15.4860 C.3   378  PHE378      0.0534
    102  CG       -11.0540   -0.5930   14.2360 C.ar  378  PHE378     -0.0203
    103  CD1      -11.5850   -1.7840   13.7190 C.ar  378  PHE378     -0.0042
    104  CD2       -9.9640   -0.0150   13.5960 C.ar  378  PHE378     -0.0042
    105  CE1      -11.0350   -2.3850   12.5780 C.ar  378  PHE378     -0.0003
    106  CE2       -9.4010   -0.6130   12.4450 C.ar  378  PHE378     -0.0003
    107  CZ        -9.9450   -1.7910   11.9340 C.ar  378  PHE378     -0.0000
    108  N        -11.9450    8.1040   16.5720 N.3   384  ASN384     -0.1240
    109  CA       -11.1120    9.0710   15.8410 C.3   384  ASN384      0.1653
    110  C        -11.4650   10.5410   16.0560 C.2   384  ASN384      0.2266
    111  O        -10.6920   11.4460   15.6600 O.2   384  ASN384     -0.2867
    112  CB       -11.0190    8.7340   14.3380 C.3   384  ASN384      0.1155
    113  CG        -9.7500    7.9630   14.0070 C.2   384  ASN384      0.2627
    114  OD1       -8.8310    7.9210   14.8060 O.2   384  ASN384     -0.2716
    115  ND2       -9.6810    7.3880   12.8200 N.am  384  ASN384     -0.0877
    116  N         -9.6010   11.4160   19.6240 N.3   387  ARG387     -0.1231
    117  CA        -8.1370   11.4050   19.6330 C.3   387  ARG387      0.1694
    118  C         -7.5340   12.7160   19.1290 C.2   387  ARG387      0.2591
    119  O         -6.3300   12.9040   19.1840 O.2   387  ARG387     -0.2718
    120  CB        -7.5910   10.2060   18.8340 C.3   387  ARG387      0.0321
    121  CG        -7.6840    8.8770   19.6010 C.3   387  ARG387      0.0489
    122  CD        -7.6210    7.6570   18.6540 C.3   387  ARG387      0.2205
    123  NE        -7.8400    6.4130   19.3920 N.pl3 387  ARG387     -0.0865
    124  CZ        -7.3210    5.2390   19.0560 C.cat 387  ARG387      0.5346
    125  NH1       -6.5260    5.1350   17.9880 N.pl3 387  ARG387      0.1354
    126  NH2       -7.5880    4.1660   19.8020 N.pl3 387  ARG387      0.1354
    127  N         -8.4000   13.6160   18.6920 N.am  388  ILE388     -0.1980
    128  CA        -8.0630   14.8990   18.0740 C.3   388  ILE388      0.1595
    129  C         -8.5040   16.0570   19.0130 C.2   388  ILE388      0.2287
    130  O         -9.4170   15.8980   19.8320 O.2   388  ILE388     -0.2864
    131  CB        -8.7250   14.9350   16.6430 C.3   388  ILE388      0.0276
    132  CG1       -7.9510   14.0050   15.7030 C.3   388  ILE388      0.0022
    133  CG2       -8.8310   16.3130   16.0200 C.3   388  ILE388      0.0022
    134  CD1       -6.4160   14.0100   15.9140 C.3   388  ILE388      0.0001
@<TRIPOS>BOND
     1    18    19    1
     2    19    20    1
     3    46    45    2
     4    24    25    2
     5    24    23    1
     6    20    21    2
     7    20    22   am
     8     5     6    1
     9     5     2    1
    10    29    30    1
    11     8     6   ar
    12    22    23    1
    13     1     2    1
    14    45    44    1
    15     4     3    2
    16     6     7   ar
    17    23    26    1
    18    26    28    1
    19    26    27    1
    20     2     3    1
    21    43    44    1
    22    43    31   am
    23    30    31    1
    24    30    33    1
    25     3     9   am
    26    44    47    1
    27    12    11    2
    28    31    32    2
    29    47    48    1
    30    11    10    1
    31    35    34   ar
    32    35    37   ar
    33     9    10    1
    34    33    34    1
    35    34    36   ar
    36    37    38   ar
    37    10    13    1
    38    38    36   ar
    39    38    40   ar
    40    36    39   ar
    41    49    48    2
    42    48    50   am
    43    40    42   ar
    44    39    41   ar
    45    42    41   ar
    46    13    14    1
    47    51    52    1
    48    14    15    1
    49    94    95    2
    50    94    93    1
    51    15    16    1
    52    16    17    1
    53    90    89    2
    54    93    92    1
    55    93    96    1
    56    52    53    1
    57    52    55    1
    58    89    92   am
    59    89    88    1
    60    88    87    1
    61    88    91    1
    62    53    54    2
    63    63    62    2
    64    72    73    1
    65    72    69    1
    66    55    56    1
    67    66    65    1
    68    64    65    1
    69    64    61    1
    70    62    61    1
    71    62    68   am
    72    60    61    1
    73    69    68    1
    74    69    70    1
    75   107   106   ar
    76   107   105   ar
    77    65    67    1
    78    56    57    1
    79   106   104   ar
    80   105   103   ar
    81    71    70    2
    82   115   113   am
    83    70    74   am
    84    86    84    1
    85    58    57   ar
    86    57    59   ar
    87   104   102   ar
    88   103   102   ar
    89    84    83    1
    90   113   112    1
    91   113   114    2
    92    74    75    1
    93   102   101    1
    94   112   109    1
    95    75    76    1
    96    75    78    1
    97    83    80    1
    98    83    85    1
    99   101    98    1
   100    79    76   am
   101    79    80    1
   102   111   110    2
   103   132   134    1
   104   132   131    1
   105   109   110    1
   106   109   108    1
   107    76    77    2
   108    80    81    1
   109   133   131    1
   110   131   128    1
   111    98    97    1
   112    98    99    1
   113    81    82    2
   114    99   100    2
   115   125   124    1
   116   128   127    1
   117   128   129    1
   118   122   123    1
   119   122   121    1
   120   127   118   am
   121   120   121    1
   122   120   117    1
   123   129   130    2
   124   124   123    2
   125   124   126    1
   126   118   119    2
   127   118   117    1
   128   116   117    1
