@<TRIPOS>MOLECULE
tmp/3gwlA00.pdb
 257 253 0 0 0
SMALL
GASTEIGER

@<TRIPOS>ATOM
      1  N         49.1150   24.8310   10.8940 N.3     4  MET4       -0.1230
      2  CA        47.6840   25.0030   11.1050 C.3     4  MET4        0.1702
      3  C         47.2000   25.2000   12.5390 C.2     4  MET4        0.2592
      4  O         46.0750   25.6550   12.7420 O.2     4  MET4       -0.2718
      5  CB        46.9180   23.8610   10.4420 C.3     4  MET4        0.0401
      6  CG        46.9490   23.9310    8.9150 C.3     4  MET4        0.0596
      7  SD        46.3800   25.5180    8.2520 S.3     4  MET4       -0.1393
      8  CE        44.6010   25.2820    8.2350 C.3     4  MET4        0.0692
      9  N         48.0190   24.8660   13.5360 N.am    5  LEU5       -0.1980
     10  CA        47.5940   25.0790   14.9220 C.3     5  LEU5        0.1596
     11  C         47.4800   26.5820   15.1850 C.2     5  LEU5        0.2287
     12  O         46.7980   27.0200   16.1140 O.2     5  LEU5       -0.2864
     13  CB        48.5880   24.4750   15.9130 C.3     5  LEU5        0.0297
     14  CG        48.7040   22.9540   16.0360 C.3     5  LEU5        0.0022
     15  CD1       49.5760   22.6570   17.2590 C.3     5  LEU5        0.0001
     16  CD2       47.3210   22.2960   16.1870 C.3     5  LEU5        0.0001
     17  N         44.8600   27.7400   11.5550 N.3     8  GLY8       -0.1210
     18  CA        43.5570   27.0990   11.5590 C.3     8  GLY8        0.1940
     19  C         42.4420   27.9000   12.2170 C.2     8  GLY8        0.2453
     20  O         41.4130   28.1500   11.5900 O.2     8  GLY8       -0.2732
     21  N         42.6150   28.3140   13.4820 N.am    9  PRO9       -0.2728
     22  CA        41.6000   29.0860   14.2020 C.3     9  PRO9        0.1401
     23  C         41.1940   30.3660   13.4810 C.2     9  PRO9        0.2269
     24  O         40.0250   30.7390   13.4920 O.2     9  PRO9       -0.2865
     25  CB        42.2670   29.3640   15.5520 C.3     9  PRO9        0.0296
     26  CG        43.1480   28.1480   15.7440 C.3     9  PRO9        0.0237
     27  CD        43.7520   27.9880   14.3620 C.3     9  PRO9        0.0939
     28  N         41.0790   30.9360   10.2710 N.3    11  TYR11      -0.1227
     29  CA        40.1860   30.6130    9.1640 C.3    11  TYR11       0.1736
     30  C         38.7970   30.1880    9.6380 C.2    11  TYR11       0.2595
     31  O         37.7890   30.5600    9.0290 O.2    11  TYR11      -0.2718
     32  CB        40.8020   29.5330    8.2630 C.3    11  TYR11       0.0548
     33  CG        41.9130   30.0640    7.3900 C.ar   11  TYR11      -0.0200
     34  CD1       43.2140   30.2030    7.8800 C.ar   11  TYR11      -0.0009
     35  CD2       41.6490   30.5110    6.1010 C.ar   11  TYR11      -0.0009
     36  CE1       44.2240   30.7860    7.1020 C.ar   11  TYR11       0.0417
     37  CE2       42.6440   31.0930    5.3160 C.ar   11  TYR11       0.0417
     38  CZ        43.9270   31.2310    5.8210 C.ar   11  TYR11       0.1957
     39  OH        44.8970   31.8470    5.0490 O.3    11  TYR11      -0.2866
     40  N         38.7320   29.4060   10.7140 N.am   12  TRP12      -0.1962
     41  CA        37.4340   28.9980   11.2310 C.3    12  TRP12       0.1771
     42  C         36.6500   30.2310   11.6810 C.2    12  TRP12       0.2619
     43  O         35.4450   30.3250   11.4490 O.2    12  TRP12      -0.2715
     44  CB        37.5860   28.0340   12.4080 C.3    12  TRP12       0.0590
     45  CG        37.9880   26.6530   11.9960 C.ar   12  TRP12       0.0006
     46  CD1       39.1160   25.9870   12.3680 C.ar   12  TRP12       0.0946
     47  CD2       37.2750   25.7770   11.1130 C.ar   12  TRP12       0.0152
     48  NE1       39.1580   24.7530   11.7670 N.ar   12  TRP12      -0.2442
     49  CE2       38.0380   24.5980   10.9910 C.ar   12  TRP12       0.0810
     50  CE3       36.0670   25.8790   10.4090 C.ar   12  TRP12       0.0012
     51  CZ2       37.6380   23.5240   10.1920 C.ar   12  TRP12       0.0191
     52  CZ3       35.6670   24.8130    9.6100 C.ar   12  TRP12       0.0001
     53  CH2       36.4550   23.6490    9.5070 C.ar   12  TRP12       0.0015
     54  N         37.3360   31.1750   12.3220 N.am   13  ARG13      -0.1977
     55  CA        36.6820   32.3930   12.7890 C.3    13  ARG13       0.1597
     56  C         36.1300   33.1920   11.6080 C.2    13  ARG13       0.2287
     57  O         35.0150   33.7050   11.6760 O.2    13  ARG13      -0.2864
     58  CB        37.6600   33.2490   13.6010 C.3    13  ARG13       0.0334
     59  CG        37.0720   34.5740   14.0850 C.3    13  ARG13       0.0492
     60  CD        38.0250   35.3200   15.0200 C.3    13  ARG13       0.2205
     61  NE        38.2970   34.5670   16.2430 N.pl3  13  ARG13      -0.0865
     62  CZ        39.4800   34.0410   16.5550 C.cat  13  ARG13       0.5346
     63  NH1       40.5170   34.1820   15.7360 N.pl3  13  ARG13       0.1354
     64  NH2       39.6260   33.3710   17.6900 N.pl3  13  ARG13       0.1354
     65  N         32.8860   31.2120   10.3520 N.3    16  HIS16      -0.1241
     66  CA        31.7240   31.3330   11.2210 C.3    16  HIS16       0.1621
     67  C         31.1510   32.7370   11.2900 C.2    16  HIS16       0.2264
     68  O         29.9380   32.9010   11.3900 O.2    16  HIS16      -0.2867
     69  CB        32.0650   30.8350   12.6260 C.3    16  HIS16       0.0745
     70  CG        32.4550   29.3930   12.6650 C.ar   16  HIS16       0.0817
     71  ND1       31.6530   28.3930   12.1550 N.ar   16  HIS16      -0.2268
     72  CD2       33.5740   28.7840   13.1240 C.ar   16  HIS16       0.1154
     73  CE1       32.2630   27.2310   12.2950 C.ar   16  HIS16       0.1986
     74  NE2       33.4300   27.4400   12.8790 N.ar   16  HIS16      -0.2212
     75  N         37.1090   30.9110   -0.0080 N.3    41  PHE41      -0.1241
     76  CA        37.6020   30.6120    1.3310 C.3    41  PHE41       0.1605
     77  C         38.4240   29.3240    1.3030 C.2    41  PHE41       0.2264
     78  O         39.5080   29.2480    1.8870 O.2    41  PHE41      -0.2867
     79  CB        36.4270   30.4590    2.2990 C.3    41  PHE41       0.0534
     80  CG        36.8080   29.8830    3.6310 C.ar   41  PHE41      -0.0203
     81  CD1       37.4450   30.6680    4.5930 C.ar   41  PHE41      -0.0042
     82  CD2       36.5380   28.5500    3.9230 C.ar   41  PHE41      -0.0042
     83  CE1       37.8010   30.1300    5.8290 C.ar   41  PHE41      -0.0003
     84  CE2       36.8920   27.9950    5.1580 C.ar   41  PHE41      -0.0003
     85  CZ        37.5260   28.7860    6.1160 C.ar   41  PHE41      -0.0000
     86  N         42.8710   28.4100    1.8730 N.3    45  LEU45      -0.1245
     87  CA        43.4590   27.5450    2.8980 C.3    45  LEU45       0.1561
     88  C         44.9290   27.2590    2.5680 C.2    45  LEU45       0.2260
     89  O         45.2640   26.9220    1.4360 O.2    45  LEU45      -0.2867
     90  CB        42.6820   26.2280    2.9970 C.3    45  LEU45       0.0270
     91  CG        41.2620   26.3240    3.5610 C.3    45  LEU45       0.0019
     92  CD1       40.5320   25.0010    3.3500 C.3    45  LEU45       0.0001
     93  CD2       41.3220   26.6920    5.0450 C.3    45  LEU45       0.0001
     94  N         45.9340   19.4010    1.3120 N.3    49  ARG49      -0.1231
     95  CA        45.0630   18.3940    1.8940 C.3    49  ARG49       0.1694
     96  C         43.8080   19.0140    2.4960 C.2    49  ARG49       0.2592
     97  O         42.7220   18.4380    2.4020 O.2    49  ARG49      -0.2718
     98  CB        45.8230   17.5990    2.9620 C.3    49  ARG49       0.0321
     99  CG        45.4290   17.9090    4.4010 C.3    49  ARG49       0.0489
    100  CD        46.3340   17.1760    5.3680 C.3    49  ARG49       0.2205
    101  NE        47.6860   17.7270    5.3400 N.pl3  49  ARG49      -0.0865
    102  CZ        48.1560   18.5920    6.2320 C.cat  49  ARG49       0.5346
    103  NH1       47.3880   19.0050    7.2330 N.pl3  49  ARG49       0.1354
    104  NH2       49.3900   19.0540    6.1160 N.pl3  49  ARG49       0.1354
    105  N         43.9590   20.1890    3.1070 N.am   50  CYS50      -0.1970
    106  CA        42.8330   20.8800    3.7290 C.3    50  CYS50       0.1712
    107  C         41.8250   21.3210    2.6760 C.2    50  CYS50       0.2296
    108  O         40.6130   21.2780    2.9030 O.2    50  CYS50      -0.2864
    109  CB        43.3200   22.1040    4.5080 C.3    50  CYS50       0.0983
    110  SG        44.6440   21.7650    5.7130 S.3    50  CYS50      -0.0798
    111  N         39.8240   18.1690    1.3020 N.3    53  HIS53      -0.1226
    112  CA        38.8280   17.6800    2.2460 C.3    53  HIS53       0.1752
    113  C         37.6300   18.6240    2.2250 C.2    53  HIS53       0.2595
    114  O         36.4860   18.1910    2.1120 O.2    53  HIS53      -0.2718
    115  CB        39.4070   17.6210    3.6640 C.3    53  HIS53       0.0759
    116  CG        40.3690   16.4950    3.8820 C.ar   53  HIS53       0.0818
    117  ND1       39.9850   15.1700    3.8520 N.ar   53  HIS53      -0.2268
    118  CD2       41.7000   16.4940    4.1350 C.ar   53  HIS53       0.1154
    119  CE1       41.0380   14.4030    4.0760 C.ar   53  HIS53       0.1986
    120  NE2       42.0910   15.1820    4.2500 N.ar   53  HIS53      -0.2212
    121  N         37.9020   19.9210    2.3220 N.am   54  ALA54      -0.1980
    122  CA        36.8420   20.9190    2.3250 C.3    54  ALA54       0.1597
    123  C         36.0250   20.8260    1.0450 C.2    54  ALA54       0.2287
    124  O         34.7900   20.8620    1.0830 O.2    54  ALA54      -0.2864
    125  CB        37.4340   22.3130    2.4680 C.3    54  ALA54       0.0319
    126  N         29.1410   25.0980   11.2960 N.3    76  PHE76      -0.1241
    127  CA        29.2970   24.3880   12.5630 C.3    76  PHE76       0.1605
    128  C         29.4940   22.8830   12.3240 C.2    76  PHE76       0.2264
    129  O         30.4080   22.2670   12.8850 O.2    76  PHE76      -0.2867
    130  CB        28.0480   24.6280   13.4160 C.3    76  PHE76       0.0534
    131  CG        27.8540   23.6380   14.5290 C.ar   76  PHE76      -0.0203
    132  CD1       28.6110   23.7120   15.6910 C.ar   76  PHE76      -0.0042
    133  CD2       26.8770   22.6550   14.4290 C.ar   76  PHE76      -0.0042
    134  CE1       28.3930   22.8250   16.7420 C.ar   76  PHE76      -0.0003
    135  CE2       26.6510   21.7610   15.4730 C.ar   76  PHE76      -0.0003
    136  CZ        27.4110   21.8470   16.6350 C.ar   76  PHE76      -0.0000
    137  N         30.3720   21.4430    9.5000 N.3    78  PHE78      -0.1227
    138  CA        31.5830   21.2460    8.7110 C.3    78  PHE78       0.1736
    139  C         32.7840   21.2890    9.6490 C.2    78  PHE78       0.2595
    140  O         33.7230   20.4830    9.5330 O.2    78  PHE78      -0.2718
    141  CB        31.7080   22.3460    7.6520 C.3    78  PHE78       0.0547
    142  CG        33.0330   22.3570    6.9310 C.ar   78  PHE78      -0.0202
    143  CD1       33.6420   21.1660    6.5340 C.ar   78  PHE78      -0.0042
    144  CD2       33.6560   23.5650    6.6150 C.ar   78  PHE78      -0.0042
    145  CE1       34.8450   21.1770    5.8350 C.ar   78  PHE78      -0.0003
    146  CE2       34.8570   23.5870    5.9150 C.ar   78  PHE78      -0.0003
    147  CZ        35.4540   22.3880    5.5230 C.ar   78  PHE78      -0.0000
    148  N         32.7510   22.2330   10.5840 N.am   79  HIS79      -0.1961
    149  CA        33.8420   22.3700   11.5390 C.3    79  HIS79       0.1787
    150  C         33.9490   21.1050   12.3970 C.2    79  HIS79       0.2620
    151  O         35.0510   20.6190   12.6510 O.2    79  HIS79      -0.2715
    152  CB        33.6230   23.6050   12.4120 C.3    79  HIS79       0.0785
    153  CG        34.8330   24.0150   13.1940 C.ar   79  HIS79       0.0821
    154  ND1       35.0460   25.3150   13.6050 N.ar   79  HIS79      -0.2267
    155  CD2       35.8800   23.2950   13.6640 C.ar   79  HIS79       0.1154
    156  CE1       36.1730   25.3780   14.2940 C.ar   79  HIS79       0.1986
    157  NE2       36.6980   24.1660   14.3450 N.ar   79  HIS79      -0.2212
    158  N         32.8130   20.5630   12.8380 N.am   80  ASN80      -0.1972
    159  CA        32.8500   19.3440   13.6400 C.3    80  ASN80       0.1688
    160  C         33.3220   18.1300   12.8350 C.2    80  ASN80       0.2292
    161  O         33.8770   17.1820   13.3980 O.2    80  ASN80      -0.2864
    162  CB        31.4850   19.0400   14.2530 C.3    80  ASN80       0.1181
    163  CG        31.3080   19.6780   15.6090 C.2    80  ASN80       0.2629
    164  OD1       32.2790   19.9040   16.3320 O.2    80  ASN80      -0.2716
    165  ND2       30.0660   19.9570   15.9730 N.am   80  ASN80      -0.0877
    166  N         35.6540   18.2140   10.5950 N.3    82  VAL82      -0.1231
    167  CA        37.1100   18.2840   10.6130 C.3    82  VAL82       0.1692
    168  C         37.5950   17.9100   12.0210 C.2    82  VAL82       0.2592
    169  O         38.6160   17.2330   12.1730 O.2    82  VAL82      -0.2718
    170  CB        37.6300   19.6940   10.2390 C.3    82  VAL82       0.0266
    171  CG1       39.1160   19.7830   10.5240 C.3    82  VAL82       0.0020
    172  CG2       37.3790   19.9670    8.7570 C.3    82  VAL82       0.0020
    173  N         36.8710   18.3400   13.0540 N.am   83  ASN83      -0.1974
    174  CA        37.2710   17.9880   14.4150 C.3    83  ASN83       0.1688
    175  C         37.3160   16.4640   14.5310 C.2    83  ASN83       0.2292
    176  O         38.2500   15.8970   15.1020 O.2    83  ASN83      -0.2864
    177  CB        36.2880   18.5330   15.4620 C.3    83  ASN83       0.1181
    178  CG        36.3990   20.0380   15.6570 C.2    83  ASN83       0.2629
    179  OD1       37.4110   20.6480   15.3180 O.2    83  ASN83      -0.2716
    180  ND2       35.3580   20.6390   16.2290 N.am   83  ASN83      -0.0877
    181  N         37.6950   14.2320   12.0830 N.3    85  ARG85      -0.1231
    182  CA        38.7750   13.6790   11.2740 C.3    85  ARG85       0.1694
    183  C         40.1280   13.8050   11.9730 C.2    85  ARG85       0.2591
    184  O         41.0400   13.0240   11.7060 O.2    85  ARG85      -0.2718
    185  CB        38.8430   14.3610    9.9030 C.3    85  ARG85       0.0321
    186  CG        39.9340   13.7690    9.0160 C.3    85  ARG85       0.0489
    187  CD        39.8830   14.2440    7.5670 C.3    85  ARG85       0.2205
    188  NE        40.3970   15.5990    7.3840 N.pl3  85  ARG85      -0.0865
    189  CZ        39.6560   16.6980    7.4530 C.cat  85  ARG85       0.5346
    190  NH1       38.3560   16.6070    7.7040 N.pl3  85  ARG85       0.1354
    191  NH2       40.2120   17.8860    7.2590 N.pl3  85  ARG85       0.1354
    192  N         40.2520   14.7840   12.8660 N.am   86  LEU86      -0.1980
    193  CA        41.4950   15.0040   13.6040 C.3    86  LEU86       0.1596
    194  C         41.3710   14.4500   15.0150 C.2    86  LEU86       0.2287
    195  O         42.2210   14.6930   15.8710 O.2    86  LEU86      -0.2864
    196  CB        41.8160   16.4990   13.6890 C.3    86  LEU86       0.0297
    197  CG        41.9980   17.2670   12.3810 C.3    86  LEU86       0.0022
    198  CD1       42.3020   18.7140   12.6930 C.3    86  LEU86       0.0001
    199  CD2       43.1160   16.6530   11.5690 C.3    86  LEU86       0.0001
    200  N         39.4300   15.3270   17.3740 N.3    88  LYS88      -0.1231
    201  CA        39.3300   16.4320   18.3250 C.3    88  LYS88       0.1693
    202  C         37.9040   16.4300   18.8760 C.2    88  LYS88       0.2591
    203  O         37.0400   15.7190   18.3660 O.2    88  LYS88      -0.2718
    204  CB        39.6070   17.7720   17.6330 C.3    88  LYS88       0.0285
    205  CG        41.0250   17.9140   17.0860 C.3    88  LYS88       0.0035
    206  CD        41.1620   19.1190   16.1610 C.3    88  LYS88       0.0206
    207  CE        40.9390   20.4220   16.9020 C.3    88  LYS88       0.1093
    208  NZ        41.9290   20.6180   17.9960 N.3    88  LYS88      -0.1314
    209  N         37.6560   17.2240   19.9090 N.am   89  LYS89      -0.1980
    210  CA        36.3290   17.2810   20.5120 C.3    89  LYS89       0.1596
    211  C         35.2450   17.8020   19.5660 C.2    89  LYS89       0.2287
    212  O         35.4620   18.7410   18.8000 O.2    89  LYS89      -0.2864
    213  CB        36.3520   18.1540   21.7700 C.3    89  LYS89       0.0298
    214  CG        35.0020   18.2270   22.4690 C.3    89  LYS89       0.0038
    215  CD        35.0020   19.2060   23.6370 C.3    89  LYS89       0.0206
    216  CE        33.5830   19.4020   24.1640 C.3    89  LYS89       0.1093
    217  NZ        33.4750   20.4710   25.1950 N.3    89  LYS89      -0.1314
    218  N         32.0310   19.6770   19.6350 N.3    91  ILE91      -0.1245
    219  CA        31.2160   20.5130   20.5110 C.3    91  ILE91       0.1561
    220  C         29.7420   20.4870   20.1510 C.2    91  ILE91       0.2260
    221  O         29.3690   20.1550   19.0230 O.2    91  ILE91      -0.2867
    222  CB        31.6960   21.9920   20.5250 C.3    91  ILE91       0.0252
    223  CG1       31.3350   22.6900   19.2120 C.3    91  ILE91       0.0019
    224  CG2       33.1970   22.0410   20.7680 C.3    91  ILE91       0.0019
    225  CD1       31.5610   24.2070   19.2540 C.3    91  ILE91       0.0001
    226  N         28.4200   26.0490   20.7300 N.3    96  TYR96      -0.1241
    227  CA        28.7500   26.9080   19.6080 C.3    96  TYR96       0.1605
    228  C         28.0950   28.2690   19.8600 C.2    96  TYR96       0.2264
    229  O         28.7400   29.3090   19.7530 O.2    96  TYR96      -0.2867
    230  CB        28.2050   26.3230   18.3020 C.3    96  TYR96       0.0534
    231  CG        27.9980   27.3790   17.2360 C.ar   96  TYR96      -0.0201
    232  CD1       29.0820   27.9250   16.5460 C.ar   96  TYR96      -0.0009
    233  CD2       26.7230   27.8900   16.9730 C.ar   96  TYR96      -0.0009
    234  CE1       28.9030   28.9610   15.6200 C.ar   96  TYR96       0.0417
    235  CE2       26.5320   28.9290   16.0510 C.ar   96  TYR96       0.0417
    236  CZ        27.6320   29.4600   15.3800 C.ar   96  TYR96       0.1957
    237  OH        27.4640   30.5020   14.4930 O.3    96  TYR96      -0.2866
    238  N         29.8560   30.2260   22.4540 N.3    99  ILE99      -0.1231
    239  CA        31.1360   30.7070   21.9460 C.3    99  ILE99       0.1692
    240  C         31.0120   31.9470   21.0650 C.2    99  ILE99       0.2592
    241  O         31.8200   32.8710   21.1770 O.2    99  ILE99      -0.2718
    242  CB        31.8650   29.5980   21.1520 C.3    99  ILE99       0.0266
    243  CG1       32.3300   28.4950   22.1120 C.3    99  ILE99       0.0019
    244  CG2       33.0350   30.1820   20.3870 C.3    99  ILE99       0.0020
    245  CD1       32.8570   27.2480   21.4120 C.3    99  ILE99       0.0001
    246  N         30.0020   31.9740   20.1990 N.am  100  TYR100     -0.1976
    247  CA        29.8070   33.1070   19.2900 C.3   100  TYR100      0.1639
    248  C         28.6450   34.0290   19.6460 C.2   100  TYR100      0.2290
    249  O         28.2460   34.8760   18.8420 O.2   100  TYR100     -0.2864
    250  CB        29.6170   32.5980   17.8560 C.3   100  TYR100      0.0560
    251  CG        30.9100   32.2000   17.1810 C.ar  100  TYR100     -0.0198
    252  CD1       31.3830   30.8870   17.2210 C.ar  100  TYR100     -0.0009
    253  CD2       31.6860   33.1550   16.5430 C.ar  100  TYR100     -0.0009
    254  CE1       32.6100   30.5460   16.6310 C.ar  100  TYR100      0.0417
    255  CE2       32.9000   32.8310   15.9650 C.ar  100  TYR100      0.0417
    256  CZ        33.3560   31.5340   16.0080 C.ar  100  TYR100      0.1957
    257  OH        34.5650   31.2580   15.4110 O.3   100  TYR100     -0.2866
@<TRIPOS>BOND
     1    75    76    1
     2   123   124    2
     3   123   122    1
     4   111   112    1
     5    77    76    1
     6    77    78    2
     7    94    95    1
     8    76    79    1
     9    89    88    2
    10    86    87    1
    11    95    96    1
    12    95    98    1
    13   114   113    2
    14   113   112    1
    15   113   121   am
    16   112   115    1
    17    79    80    1
    18   121   122    1
    19   122   125    1
    20    97    96    2
    21    96   105   am
    22    88    87    1
    23   107   108    2
    24   107   106    1
    25    87    90    1
    26    98    99    1
    27    90    91    1
    28   105   106    1
    29    92    91    1
    30    91    93    1
    31    80    82   ar
    32    80    81   ar
    33   115   116    1
    34   106   109    1
    35   117   116   ar
    36   117   119   ar
    37   116   118   ar
    38    82    84   ar
    39   119   120   ar
    40   118   120   ar
    41    99   100    1
    42   109   110    1
    43    81    83   ar
    44    39    38    1
    45    84    85   ar
    46    37    38   ar
    47    37    35   ar
    48   101   100    1
    49   101   102    2
    50   147   145   ar
    51   147   146   ar
    52    38    36   ar
    53    83    85   ar
    54   145   143   ar
    55   146   144   ar
    56    35    33   ar
    57   104   102    1
    58   102   103    1
    59   143   142   ar
    60   144   142   ar
    61   142   141    1
    62    36    34   ar
    63   191   189    1
    64   188   189    2
    65   188   187    1
    66    33    34   ar
    67    33    32    1
    68   189   190    1
    69   187   186    1
    70   141   138    1
    71     8     7    1
    72     7     6    1
    73    32    29    1
    74   138   137    1
    75   138   139    1
    76   172   170    1
    77     6     5    1
    78   186   185    1
    79    31    30    2
    80    29    30    1
    81    29    28    1
    82    53    52   ar
    83    53    51   ar
    84   140   139    2
    85    52    50   ar
    86    30    40   am
    87   139   148   am
    88   185   182    1
    89    51    49   ar
    90   170   171    1
    91   170   167    1
    92    65    66    1
    93    50    47   ar
    94     5     2    1
    95   148   149    1
    96   166   167    1
    97   167   168    1
    98    40    41    1
    99     1     2    1
   100    49    47   ar
   101    49    48   ar
   102     2     3    1
   103    47    45   ar
   104    66    67    1
   105    66    69    1
   106    41    42    1
   107    41    44    1
   108   182   183    1
   109   182   181    1
   110    67    68    2
   111   126   127    1
   112    43    42    2
   113   149   150    1
   114   149   152    1
   115    17    18    1
   116    18    19    1
   117   199   197    1
   118    20    19    2
   119    56    57    2
   120    56    55    1
   121    42    54   am
   122   184   183    2
   123    48    46   ar
   124   183   192   am
   125    45    46   ar
   126    45    44    1
   127   168   169    2
   128   168   173   am
   129    71    73   ar
   130    71    70   ar
   131    19    21   am
   132    73    74   ar
   133    54    55    1
   134   128   127    1
   135   128   129    2
   136   197   198    1
   137   197   196    1
   138   150   151    2
   139   150   158   am
   140   152   153    1
   141     3     4    2
   142     3     9   am
   143   127   130    1
   144    69    70    1
   145    70    72   ar
   146    55    58    1
   147   160   161    2
   148   160   159    1
   149   158   159    1
   150   192   193    1
   151    74    72   ar
   152   173   174    1
   153   153   154   ar
   154   153   155   ar
   155   130   131    1
   156    23    24    2
   157    23    22    1
   158    21    22    1
   159    21    27    1
   160     9    10    1
   161    58    59    1
   162   193   196    1
   163   193   194    1
   164   154   156   ar
   165   159   162    1
   166   155   157   ar
   167    59    60    1
   168    22    25    1
   169   162   163    1
   170   156   157   ar
   171    27    26    1
   172   174   175    1
   173   174   177    1
   174   133   131   ar
   175   133   135   ar
   176   237   236    1
   177   131   132   ar
   178   175   176    2
   179    10    11    1
   180    10    13    1
   181   194   195    2
   182    60    61    1
   183    11    12    2
   184   179   178    2
   185   236   234   ar
   186   236   235   ar
   187   257   256    1
   188   177   178    1
   189   135   136   ar
   190    25    26    1
   191   163   165   am
   192   163   164    2
   193   234   232   ar
   194   178   180   am
   195   132   134   ar
   196    63    62    1
   197    13    14    1
   198   255   256   ar
   199   255   253   ar
   200   256   254   ar
   201    14    16    1
   202    14    15    1
   203   235   233   ar
   204   206   207    1
   205   206   205    1
   206    61    62    2
   207   253   251   ar
   208   232   231   ar
   209    62    64    1
   210   254   252   ar
   211   136   134   ar
   212   207   208    1
   213   233   231   ar
   214   205   204    1
   215   251   252   ar
   216   251   250    1
   217   231   230    1
   218   200   201    1
   219   204   201    1
   220   250   247    1
   221   230   227    1
   222   201   202    1
   223   203   202    2
   224   212   211    2
   225   249   248    2
   226   202   209   am
   227   221   220    2
   228   223   225    1
   229   223   222    1
   230   247   248    1
   231   247   246    1
   232   211   210    1
   233   227   228    1
   234   227   226    1
   235   218   219    1
   236   229   228    2
   237   209   210    1
   238   220   219    1
   239   246   240   am
   240   244   242    1
   241   219   222    1
   242   210   213    1
   243   222   224    1
   244   240   241    2
   245   240   239    1
   246   242   239    1
   247   242   243    1
   248   245   243    1
   249   213   214    1
   250   239   238    1
   251   214   215    1
   252   215   216    1
   253   216   217    1
