@<TRIPOS>MOLECULE
tmp/3gwtA00.pdb
 240 231 0 0 0
SMALL
GASTEIGER

@<TRIPOS>ATOM
      1  N         44.4880   36.2520   62.9070 N.3    82  TYR82      -0.1227
      2  CA        44.1950   37.4090   62.1200 C.3    82  TYR82       0.1736
      3  C         44.9330   37.4180   60.7550 C.2    82  TYR82       0.2595
      4  O         44.2860   37.5610   59.6860 O.2    82  TYR82      -0.2718
      5  CB        44.5270   38.6990   62.8940 C.3    82  TYR82       0.0548
      6  CG        44.2750   39.9270   62.0720 C.ar   82  TYR82      -0.0200
      7  CD1       43.0040   40.5630   62.0640 C.ar   82  TYR82      -0.0009
      8  CD2       45.2950   40.5030   61.3140 C.ar   82  TYR82      -0.0009
      9  CE1       42.7850   41.7010   61.3180 C.ar   82  TYR82       0.0417
     10  CE2       45.0750   41.6360   60.5070 C.ar   82  TYR82       0.0417
     11  CZ        43.7910   42.2380   60.5320 C.ar   82  TYR82       0.1957
     12  OH        43.5550   43.3810   59.7960 O.3    82  TYR82      -0.2866
     13  N         46.2580   37.2790   60.8100 N.am   83  HIS83      -0.1975
     14  CA        47.0740   37.2800   59.6060 C.3    83  HIS83       0.1656
     15  C         46.9710   35.9430   58.8340 C.2    83  HIS83       0.2291
     16  O         47.9680   35.2750   58.6480 O.2    83  HIS83      -0.2864
     17  CB        48.5380   37.5790   59.9090 C.3    83  HIS83       0.0771
     18  CG        48.7380   38.9990   60.3500 C.ar   83  HIS83       0.0820
     19  ND1       48.8700   39.3390   61.6810 N.ar   83  HIS83      -0.2267
     20  CD2       48.6260   40.1630   59.6750 C.ar   83  HIS83       0.1154
     21  CE1       48.9630   40.6580   61.7830 C.ar   83  HIS83       0.1986
     22  NE2       48.7980   41.1800   60.5940 N.ar   83  HIS83      -0.2212
     23  N         52.6550   34.2710   57.2230 N.3   127  HIS127     -0.1241
     24  CA        52.8290   35.0050   58.5020 C.3   127  HIS127      0.1621
     25  C         52.6770   34.0240   59.6970 C.2   127  HIS127      0.2264
     26  O         51.6990   33.3030   59.7880 O.2   127  HIS127     -0.2867
     27  CB        51.7090   36.0310   58.5690 C.3   127  HIS127      0.0745
     28  CG        51.9830   37.1450   59.5170 C.ar  127  HIS127      0.0817
     29  ND1       52.1570   36.9310   60.8660 N.ar  127  HIS127     -0.2268
     30  CD2       52.1200   38.4830   59.3100 C.ar  127  HIS127      0.1154
     31  CE1       52.3690   38.0970   61.4630 C.ar  127  HIS127      0.1986
     32  NE2       52.3800   39.0570   60.5400 N.ar  127  HIS127     -0.2212
     33  N         53.2880   36.3130   64.8670 N.3   130  VAL130     -0.1231
     34  CA        54.0180   37.1280   65.8510 C.3   130  VAL130      0.1692
     35  C         54.6880   38.2810   65.1060 C.2   130  VAL130      0.2593
     36  O         54.9170   38.2250   63.8600 O.2   130  VAL130     -0.2718
     37  CB        55.0880   36.2700   66.6340 C.3   130  VAL130      0.0266
     38  CG1       54.4080   35.1810   67.4570 C.3   130  VAL130      0.0020
     39  CG2       56.1050   35.6140   65.6300 C.3   130  VAL130      0.0020
     40  N         55.0460   39.3230   65.8290 N.am  131  SER131     -0.1938
     41  CA        55.5650   40.5430   65.1880 C.3   131  SER131      0.2055
     42  C         57.0510   40.4630   64.7480 C.2   131  SER131      0.2643
     43  O         57.7740   39.5430   65.1270 O.2   131  SER131     -0.2714
     44  CB        55.4310   41.7540   66.1100 C.3   131  SER131      0.2130
     45  OG        56.2940   41.5800   67.2340 O.3   131  SER131     -0.2179
     46  N         57.4800   41.4200   63.9260 N.am  132  ASN132     -0.1971
     47  CA        58.9020   41.5250   63.5910 C.3   132  ASN132      0.1688
     48  C         59.7740   41.5960   64.8480 C.2   132  ASN132      0.2292
     49  O         60.8000   40.8790   65.0220 O.2   132  ASN132     -0.2864
     50  CB        59.1350   42.7590   62.7650 C.3   132  ASN132      0.1181
     51  CG        58.8640   42.5160   61.2880 C.2   132  ASN132      0.2629
     52  OD1       58.9860   41.3950   60.8120 O.2   132  ASN132     -0.2716
     53  ND2       58.4860   43.5660   60.5760 N.am  132  ASN132     -0.0877
     54  N         59.3160   40.1750   58.2580 N.3   152  LEU152     -0.1245
     55  CA        58.1620   39.4530   57.7050 C.3   152  LEU152      0.1561
     56  C         57.8810   39.8970   56.2590 C.2   152  LEU152      0.2260
     57  O         57.5230   39.0940   55.4000 O.2   152  LEU152     -0.2867
     58  CB        56.9140   39.6630   58.5870 C.3   152  LEU152      0.0270
     59  CG        56.9680   38.7230   59.8310 C.3   152  LEU152      0.0019
     60  CD1       55.8360   38.9940   60.7540 C.3   152  LEU152      0.0001
     61  CD2       56.9570   37.2210   59.3860 C.3   152  LEU152      0.0001
     62  N         54.0650   47.9990   53.7970 N.3   194  THR194     -0.1218
     63  CA        53.0790   47.5710   54.7580 C.3   194  THR194      0.1862
     64  C         53.7480   47.3860   56.1340 C.2   194  THR194      0.2287
     65  O         53.0480   47.1340   57.1240 O.2   194  THR194     -0.2866
     66  CB        52.3310   46.2240   54.3590 C.3   194  THR194      0.1770
     67  OG1       53.2970   45.1780   54.2630 O.3   194  THR194     -0.2211
     68  CG2       51.6160   46.3870   52.9700 C.3   194  THR194      0.0375
     69  N         54.7980   48.3320   59.5200 N.3   196  MET196     -0.1245
     70  CA        54.2700   49.4460   60.3730 C.3   196  MET196      0.1570
     71  C         55.4010   50.3690   60.8270 C.2   196  MET196      0.2261
     72  O         55.1930   51.5550   61.1000 O.2   196  MET196     -0.2867
     73  CB        53.4750   48.9120   61.5730 C.3   196  MET196      0.0387
     74  CG        51.9750   48.6740   61.3650 C.3   196  MET196      0.0595
     75  SD        51.0500   49.8780   60.3600 S.3   196  MET196     -0.1393
     76  CE        51.1970   51.3830   61.3660 C.3   196  MET196      0.0692
     77  N         48.5440   50.2030   51.7980 N.3   238  HIS238     -0.1241
     78  CA        48.6730   50.4720   53.2470 C.3   238  HIS238      0.1621
     79  C         47.3020   50.7900   53.8600 C.2   238  HIS238      0.2264
     80  O         46.9450   50.2880   54.9330 O.2   238  HIS238     -0.2867
     81  CB        49.7060   51.6280   53.4950 C.3   238  HIS238      0.0745
     82  CG        49.9970   51.9030   54.9420 C.ar  238  HIS238      0.0817
     83  ND1       50.2840   50.9100   55.8550 N.ar  238  HIS238     -0.2268
     84  CD2       50.0720   53.0700   55.6290 C.ar  238  HIS238      0.1154
     85  CE1       50.5000   51.4460   57.0420 C.ar  238  HIS238      0.1986
     86  NE2       50.3780   52.7560   56.9330 N.ar  238  HIS238     -0.2212
     87  N         45.2340   47.6970   53.9700 N.3   241  ASP241     -0.1225
     88  CA        45.7410   46.8890   55.0970 C.3   241  ASP241      0.1805
     89  C         45.1630   47.4210   56.3890 C.2   241  ASP241      0.2597
     90  O         44.8240   46.6610   57.2750 O.2   241  ASP241     -0.2718
     91  CB        47.2750   46.8990   55.0940 C.3   241  ASP241      0.1424
     92  CG        47.8960   45.7770   55.8560 C.2   241  ASP241      0.3668
     93  OD1       47.2540   44.7510   56.0830 O.co2 241  ASP241     -0.2456
     94  OD2       49.0770   45.9150   56.2300 O.co2 241  ASP241     -0.2456
     95  N         45.0710   48.7450   56.5170 N.am  242  LEU242     -0.1979
     96  CA        44.5490   49.3280   57.7630 C.3   242  LEU242      0.1596
     97  C         43.1010   49.8100   57.5740 C.2   242  LEU242      0.2287
     98  O         42.7210   50.8570   58.0800 O.2   242  LEU242     -0.2864
     99  CB        45.4460   50.5000   58.2000 C.3   242  LEU242      0.0297
    100  CG        46.8450   50.0890   58.6370 C.3   242  LEU242      0.0022
    101  CD1       47.6740   51.3590   58.8350 C.3   242  LEU242      0.0001
    102  CD2       46.8080   49.2370   59.8570 C.3   242  LEU242      0.0001
    103  N         40.1860   47.9310   58.4520 N.3   244  ASN244     -0.1226
    104  CA        39.1770   47.2740   59.2840 C.3   244  ASN244      0.1770
    105  C         38.2790   48.2770   60.0540 C.2   244  ASN244      0.2439
    106  O         37.0790   48.0420   60.2090 O.2   244  ASN244     -0.2733
    107  CB        39.7630   46.3480   60.3520 C.3   244  ASN244      0.1168
    108  CG        40.4750   45.0960   59.8050 C.2   244  ASN244      0.2627
    109  OD1       41.1890   44.4600   60.5770 O.2   244  ASN244     -0.2716
    110  ND2       40.2880   44.7380   58.5040 N.am  244  ASN244     -0.0877
    111  N         38.8960   49.3480   60.6170 N.am  245  PRO245     -0.2729
    112  CA        38.0690   50.2660   61.4400 C.3   245  PRO245      0.1401
    113  C         37.1360   51.1660   60.6290 C.2   245  PRO245      0.2269
    114  O         36.1970   51.7690   61.2230 O.2   245  PRO245     -0.2865
    115  CB        39.1010   51.1000   62.2470 C.3   245  PRO245      0.0296
    116  CG        40.4570   50.3500   62.1180 C.3   245  PRO245      0.0237
    117  CD        40.3420   49.5970   60.7590 C.3   245  PRO245      0.0939
    118  N         33.9950   45.2500   61.6040 N.3   252  TYR252     -0.1241
    119  CA        35.1230   45.7430   62.4180 C.3   252  TYR252      0.1605
    120  C         35.2270   44.9840   63.7180 C.2   252  TYR252      0.2264
    121  O         36.3210   44.6250   64.1530 O.2   252  TYR252     -0.2867
    122  CB        34.9320   47.2260   62.6610 C.3   252  TYR252      0.0534
    123  CG        36.0140   47.9110   63.4780 C.ar  252  TYR252     -0.0201
    124  CD1       37.3300   47.4330   63.5000 C.ar  252  TYR252     -0.0009
    125  CD2       35.7120   49.0740   64.1860 C.ar  252  TYR252     -0.0009
    126  CE1       38.3250   48.0630   64.2600 C.ar  252  TYR252      0.0417
    127  CE2       36.6850   49.7180   64.9470 C.ar  252  TYR252      0.0417
    128  CZ        37.9780   49.2240   64.9800 C.ar  252  TYR252      0.1957
    129  OH        38.9100   49.9050   65.7420 O.3   252  TYR252     -0.2866
    130  N         36.8760   41.5530   63.1310 N.3   255  TRP255     -0.1227
    131  CA        38.3190   41.7650   62.9140 C.3   255  TRP255      0.1737
    132  C         39.0590   42.0350   64.2410 C.2   255  TRP255      0.2596
    133  O         40.1450   41.4780   64.4890 O.2   255  TRP255     -0.2718
    134  CB        38.5790   42.9370   62.0000 C.3   255  TRP255      0.0564
    135  CG        38.1720   42.7240   60.5710 C.ar  255  TRP255      0.0003
    136  CD1       37.3700   43.5150   59.8260 C.ar  255  TRP255      0.0946
    137  CD2       38.6250   41.6570   59.7000 C.ar  255  TRP255      0.0152
    138  NE1       37.2440   42.9780   58.5300 N.ar  255  TRP255     -0.2442
    139  CE2       37.9960   41.8420   58.4500 C.ar  255  TRP255      0.0810
    140  CE3       39.4840   40.5690   59.8690 C.ar  255  TRP255      0.0012
    141  CZ2       38.2270   40.9820   57.3440 C.ar  255  TRP255      0.0191
    142  CZ3       39.6760   39.6790   58.7580 C.ar  255  TRP255      0.0001
    143  CH2       39.0660   39.9230   57.5360 C.ar  255  TRP255      0.0015
    144  N         38.4650   42.8800   65.0870 N.am  256  THR256     -0.1953
    145  CA        39.0670   43.1390   66.4230 C.3   256  THR256      0.1897
    146  C         39.2250   41.8990   67.2340 C.2   256  THR256      0.2313
    147  O         40.2950   41.6910   67.8200 O.2   256  THR256     -0.2863
    148  CB        38.2400   44.2290   67.1730 C.3   256  THR256      0.1794
    149  OG1       38.3170   45.4040   66.3830 O.3   256  THR256     -0.2208
    150  CG2       38.8380   44.4920   68.5460 C.3   256  THR256      0.0378
    151  N         42.3730   40.0710   65.7750 N.3   259  ILE259     -0.1231
    152  CA        43.6920   40.6530   66.0130 C.3   259  ILE259      0.1692
    153  C         44.0270   40.5190   67.4980 C.2   259  ILE259      0.2591
    154  O         45.1860   40.2240   67.8540 O.2   259  ILE259     -0.2718
    155  CB        43.8510   42.0650   65.4380 C.3   259  ILE259      0.0266
    156  CG1       45.3310   42.5140   65.3920 C.3   259  ILE259      0.0019
    157  CG2       42.9390   43.0740   66.1550 C.3   259  ILE259      0.0020
    158  CD1       46.2670   41.7970   64.4050 C.3   259  ILE259      0.0001
    159  N         43.0200   40.6740   68.3730 N.am  260  MET260     -0.1979
    160  CA        43.3390   40.5510   69.8250 C.3   260  MET260      0.1605
    161  C         43.6760   39.1320   70.1990 C.2   260  MET260      0.2287
    162  O         44.5430   38.9110   71.0730 O.2   260  MET260     -0.2864
    163  CB        42.1790   41.1060   70.7140 C.3   260  MET260      0.0413
    164  CG        41.8510   42.5700   70.5070 C.3   260  MET260      0.0598
    165  SD        43.1550   43.6280   71.1440 S.3   260  MET260     -0.1393
    166  CE        43.8780   44.3080   69.7110 C.3   260  MET260      0.0692
    167  N         47.3620   38.8240   69.0150 N.3   263  PHE263     -0.1241
    168  CA        48.2290   39.6080   69.9300 C.3   263  PHE263      0.1605
    169  C         48.3470   38.9030   71.2700 C.2   263  PHE263      0.2264
    170  O         49.4680   38.6270   71.7610 O.2   263  PHE263     -0.2867
    171  CB        47.6800   41.0040   70.1640 C.3   263  PHE263      0.0534
    172  CG        47.9150   41.9570   69.0430 C.ar  263  PHE263     -0.0203
    173  CD1       48.6580   41.5920   67.9340 C.ar  263  PHE263     -0.0042
    174  CD2       47.3930   43.2370   69.1050 C.ar  263  PHE263     -0.0042
    175  CE1       48.8950   42.4850   66.8980 C.ar  263  PHE263     -0.0003
    176  CE2       47.6090   44.1530   68.0610 C.ar  263  PHE263     -0.0003
    177  CZ        48.3700   43.7650   66.9540 C.ar  263  PHE263     -0.0000
    178  N         50.6370   35.9890   71.1650 N.3   266  GLN266     -0.1245
    179  CA        52.0430   36.3960   71.2520 C.3   266  GLN266      0.1566
    180  C         52.4540   36.6740   72.7020 C.2   266  GLN266      0.2260
    181  O         53.5110   36.2090   73.1750 O.2   266  GLN266     -0.2867
    182  CB        52.3300   37.6140   70.4020 C.3   266  GLN266      0.0367
    183  CG        53.7820   38.1070   70.5380 C.3   266  GLN266      0.0905
    184  CD        54.1450   39.2020   69.5610 C.2   266  GLN266      0.2608
    185  OE1       53.7270   39.1800   68.3890 O.2   266  GLN266     -0.2717
    186  NE2       54.9420   40.1600   70.0110 N.am  266  GLN266     -0.0878
    187  N         54.9580   42.4100   75.7870 N.3   278  SER278     -0.1217
    188  CA        54.6610   43.6670   75.0920 C.3   278  SER278      0.1889
    189  C         53.2730   44.1410   75.5430 C.2   278  SER278      0.2288
    190  O         52.3340   43.3640   75.5030 O.2   278  SER278     -0.2866
    191  CB        54.6880   43.4240   73.5840 C.3   278  SER278      0.2089
    192  OG        55.9020   42.7820   73.2010 O.3   278  SER278     -0.2183
    193  N         50.4400   45.6750   74.8280 N.3   280  MET280     -0.1230
    194  CA        49.1900   45.3770   74.1200 C.3   280  MET280      0.1702
    195  C         48.9720   43.8870   73.8240 C.2   280  MET280      0.2592
    196  O         47.9090   43.4760   73.3250 O.2   280  MET280     -0.2718
    197  CB        49.0900   46.1970   72.8420 C.3   280  MET280      0.0401
    198  CG        48.4780   47.5550   73.0990 C.3   280  MET280      0.0596
    199  SD        48.2690   48.6140   71.6470 S.3   280  MET280     -0.1393
    200  CE        49.9370   48.6930   70.9500 C.3   280  MET280      0.0692
    201  N         49.9550   43.0670   74.1710 N.am  281  CYS281     -0.1970
    202  CA        49.8290   41.6240   73.9880 C.3   281  CYS281      0.1712
    203  C         49.5050   40.9480   75.2580 C.2   281  CYS281      0.2296
    204  O         49.3700   39.7430   75.3090 O.2   281  CYS281     -0.2864
    205  CB        51.1120   41.0280   73.4260 C.3   281  CYS281      0.0983
    206  SG        51.2440   41.4050   71.6480 S.3   281  CYS281     -0.0798
    207  N         42.6080   49.8670   73.2290 N.3   291  SER291     -0.1202
    208  CA        43.5300   49.5430   72.1450 C.3   291  SER291      0.2020
    209  C         42.9760   49.9910   70.7750 C.2   291  SER291      0.2618
    210  O         43.7110   50.5170   69.9760 O.2   291  SER291     -0.2717
    211  CB        43.9140   48.0570   72.1720 C.3   291  SER291      0.2103
    212  OG        43.0340   47.2990   71.3330 O.3   291  SER291     -0.2182
    213  N         41.6700   49.8560   70.5210 N.am  292  GLN292     -0.1979
    214  CA        41.1060   50.3480   69.2460 C.3   292  GLN292      0.1601
    215  C         40.9440   51.8780   69.2040 C.2   292  GLN292      0.2287
    216  O         41.2380   52.5330   68.2010 O.2   292  GLN292     -0.2864
    217  CB        39.7770   49.6440   68.9070 C.3   292  GLN292      0.0394
    218  CG        39.8870   48.1220   68.7740 C.3   292  GLN292      0.0908
    219  CD        40.9790   47.7530   67.7730 C.2   292  GLN292      0.2608
    220  OE1       40.9570   48.1980   66.6180 O.2   292  GLN292     -0.2717
    221  NE2       41.9930   47.0400   68.2530 N.am  292  GLN292     -0.0878
    222  N         44.4870   53.0060   68.6120 N.3   295  PHE295     -0.1241
    223  CA        44.7860   52.6250   67.2240 C.3   295  PHE295      0.1605
    224  C         44.1720   53.5950   66.2320 C.2   295  PHE295      0.2264
    225  O         44.8650   54.1090   65.3390 O.2   295  PHE295     -0.2867
    226  CB        44.3340   51.1680   66.9990 C.3   295  PHE295      0.0534
    227  CG        44.6270   50.6290   65.6160 C.ar  295  PHE295     -0.0203
    228  CD1       45.8930   50.7460   65.0370 C.ar  295  PHE295     -0.0042
    229  CD2       43.6270   49.9620   64.9080 C.ar  295  PHE295     -0.0042
    230  CE1       46.1350   50.2280   63.7610 C.ar  295  PHE295     -0.0003
    231  CE2       43.8620   49.4440   63.6300 C.ar  295  PHE295     -0.0003
    232  CZ        45.1050   49.5780   63.0650 C.ar  295  PHE295     -0.0000
    233  N         46.7860   56.1570   64.6660 N.3   299  ILE299     -0.1245
    234  CA        47.2410   55.5860   63.3990 C.3   299  ILE299      0.1561
    235  C         46.1870   55.6080   62.2970 C.2   299  ILE299      0.2260
    236  O         46.4110   56.1480   61.2480 O.2   299  ILE299     -0.2867
    237  CB        47.7350   54.1140   63.5660 C.3   299  ILE299      0.0252
    238  CG1       48.9320   54.0470   64.5350 C.3   299  ILE299      0.0019
    239  CG2       48.0520   53.4880   62.1610 C.3   299  ILE299      0.0019
    240  CD1       50.1730   54.7030   64.0040 C.3   299  ILE299      0.0001
@<TRIPOS>BOND
     1    77    78    1
     2    68    66    1
     3    78    81    1
     4    78    79    1
     5    81    82    1
     6    62    63    1
     7    79    80    2
     8    87    88    1
     9    67    66    1
    10    66    63    1
    11    63    64    1
    12    82    84   ar
    13    82    83   ar
    14    91    88    1
    15    91    92    1
    16    88    89    1
    17    57    56    2
    18    84    86   ar
    19    83    85   ar
    20    92    93   ar
    21    92    94   ar
    22    64    65    2
    23    56    55    1
    24    89    95   am
    25    89    90    2
    26    95    96    1
    27    86    85   ar
    28    23    24    1
    29   141   143   ar
    30   141   139   ar
    31   143   142   ar
    32    97    96    1
    33    97    98    2
    34    55    54    1
    35    55    58    1
    36    96    99    1
    37    99   100    1
    38   139   138   ar
    39   139   137   ar
    40   103   104    1
    41    24    27    1
    42    24    25    1
    43   110   108   am
    44   138   136   ar
    45    27    28    1
    46    58    59    1
    47   100   101    1
    48   100   102    1
    49    16    15    2
    50   142   140   ar
    51    15    14    1
    52   104   105    1
    53   104   107    1
    54    30    28   ar
    55    30    32   ar
    56    61    59    1
    57    28    29   ar
    58    69    70    1
    59    14    17    1
    60    14    13    1
    61    20    18   ar
    62    20    22   ar
    63     4     3    2
    64    25    26    2
    65   137   140   ar
    66   137   135   ar
    67    12    11    1
    68   108   107    1
    69   108   109    2
    70   136   135   ar
    71    59    60    1
    72    17    18    1
    73   105   106    2
    74   105   111   am
    75    18    19   ar
    76    75    74    1
    77    75    76    1
    78    70    71    1
    79    70    73    1
    80    10    11   ar
    81    10     8   ar
    82    11     9   ar
    83    32    31   ar
    84   135   134    1
    85    53    51   am
    86    22    21   ar
    87   111   117    1
    88   111   112    1
    89   113   114    2
    90   113   112    1
    91     3    13   am
    92     3     2    1
    93   117   116    1
    94    52    51    2
    95    71    72    2
    96    29    31   ar
    97   236   235    2
    98    51    50    1
    99     8     6   ar
   100     9     7   ar
   101    74    73    1
   102   112   115    1
   103   118   119    1
   104    19    21   ar
   105   134   131    1
   106     7     6   ar
   107     6     5    1
   108   116   115    1
   109     2     5    1
   110     2     1    1
   111   239   237    1
   112   235   234    1
   113   119   122    1
   114   119   120    1
   115   122   123    1
   116    50    47    1
   117   131   130    1
   118   131   132    1
   119   232   231   ar
   120   232   230   ar
   121   234   237    1
   122   234   233    1
   123   123   124   ar
   124   123   125   ar
   125   124   126   ar
   126   237   238    1
   127    47    46    1
   128    47    48    1
   129   231   229   ar
   130   120   121    2
   131   230   228   ar
   132    36    35    2
   133    46    42   am
   134   240   238    1
   135   125   127   ar
   136   132   133    2
   137   132   144   am
   138   126   128   ar
   139   158   156    1
   140    42    43    2
   141    42    41    1
   142    48    49    2
   143    33    34    1
   144   229   227   ar
   145   127   128   ar
   146   128   129    1
   147   228   227   ar
   148   144   145    1
   149    35    40   am
   150    35    34    1
   151    41    40    1
   152    41    44    1
   153   225   224    2
   154   156   155    1
   155   155   152    1
   156   155   157    1
   157   227   226    1
   158    39    37    1
   159   151   152    1
   160    34    37    1
   161   152   153    1
   162    44    45    1
   163   224   223    1
   164   149   148    1
   165   145   148    1
   166   145   146    1
   167   220   219    2
   168    37    38    1
   169   175   177   ar
   170   175   173   ar
   171   177   176   ar
   172   226   223    1
   173   148   150    1
   174   223   222    1
   175   146   147    2
   176   153   154    2
   177   153   159   am
   178   219   221   am
   179   219   218    1
   180   173   172   ar
   181   176   174   ar
   182   216   215    2
   183   159   160    1
   184   185   184    2
   185   218   217    1
   186   217   214    1
   187   167   168    1
   188   172   174   ar
   189   172   171    1
   190   215   214    1
   191   214   213    1
   192   184   186   am
   193   184   183    1
   194   166   165    1
   195   160   161    1
   196   160   163    1
   197   168   171    1
   198   168   169    1
   199   210   209    2
   200   161   162    2
   201   182   183    1
   202   182   179    1
   203   164   163    1
   204   164   165    1
   205   213   209   am
   206   209   208    1
   207   200   199    1
   208   178   179    1
   209   179   180    1
   210   169   170    2
   211   212   211    1
   212   199   198    1
   213   206   205    1
   214   208   211    1
   215   208   207    1
   216   180   181    2
   217   197   198    1
   218   197   194    1
   219   192   191    1
   220   196   195    2
   221   205   202    1
   222   191   188    1
   223   195   194    1
   224   195   201   am
   225   202   201    1
   226   202   203    1
   227   194   193    1
   228   188   189    1
   229   188   187    1
   230   203   204    2
   231   190   189    2
