@<TRIPOS>MOLECULE
tmp/3gwuA01.pdb
 137 132 0 0 0
SMALL
GASTEIGER

@<TRIPOS>ATOM
      1  N         28.6010   28.4540   15.8090 N.3    21  LEU21      -0.1245
      2  CA        28.6370   27.0100   16.0080 C.3    21  LEU21       0.1561
      3  C         27.2560   26.4580   16.3620 C.2    21  LEU21       0.2260
      4  O         26.9530   25.3050   16.0690 O.2    21  LEU21      -0.2867
      5  CB        29.6640   26.6440   17.0910 C.3    21  LEU21       0.0270
      6  CG        31.1090   27.1490   16.9310 C.3    21  LEU21       0.0019
      7  CD1       31.9490   26.7720   18.1440 C.3    21  LEU21       0.0001
      8  CD2       31.7590   26.6360   15.6480 C.3    21  LEU21       0.0001
      9  N         26.4360   23.1560   14.3840 N.3    25  LEU25      -0.1231
     10  CA        26.7500   22.0100   15.2440 C.3    25  LEU25       0.1693
     11  C         25.6490   21.6950   16.2490 C.2    25  LEU25       0.2591
     12  O         25.2220   20.5460   16.3610 O.2    25  LEU25      -0.2718
     13  CB        28.0780   22.2130   15.9840 C.3    25  LEU25       0.0284
     14  CG        29.3900   22.2610   15.1950 C.3    25  LEU25       0.0019
     15  CD1       30.5450   22.6020   16.1290 C.3    25  LEU25       0.0001
     16  CD2       29.6560   20.9480   14.4550 C.3    25  LEU25       0.0001
     17  N         25.1930   22.7140   16.9770 N.am   26  ARG26      -0.1980
     18  CA        24.2400   22.5080   18.0630 C.3    26  ARG26       0.1597
     19  C         22.8460   22.1920   17.5360 C.2    26  ARG26       0.2287
     20  O         22.2290   21.2210   17.9710 O.2    26  ARG26      -0.2864
     21  CB        24.2080   23.7200   19.0060 C.3    26  ARG26       0.0334
     22  CG        23.7280   23.4120   20.4250 C.3    26  ARG26       0.0492
     23  CD        23.5810   24.6960   21.2530 C.3    26  ARG26       0.2205
     24  NE        23.2590   24.4430   22.6600 N.pl3  26  ARG26      -0.0865
     25  CZ        22.0410   24.1720   23.1300 C.cat  26  ARG26       0.5346
     26  NH1       20.9920   24.1040   22.3150 N.pl3  26  ARG26       0.1354
     27  NH2       21.8680   23.9610   24.4300 N.pl3  26  ARG26       0.1354
     28  N         20.4890   18.8670   18.4280 N.3    30  GLN30      -0.1245
     29  CA        19.2840   19.1580   19.2030 C.3    30  GLN30       0.1566
     30  C         18.0130   18.7440   18.4650 C.2    30  GLN30       0.2260
     31  O         17.1310   18.1180   19.0530 O.2    30  GLN30      -0.2867
     32  CB        19.2280   20.6430   19.5850 C.3    30  GLN30       0.0367
     33  CG        20.3350   21.0890   20.5470 C.3    30  GLN30       0.0905
     34  CD        20.3020   20.3410   21.8680 C.2    30  GLN30       0.2608
     35  OE1       19.2510   20.2150   22.4970 O.2    30  GLN30      -0.2717
     36  NE2       21.4550   19.8390   22.2940 N.am   30  GLN30      -0.0878
     37  N         34.9510   28.0070   26.9410 N.3   103  TYR103     -0.1227
     38  CA        34.9090   26.7470   26.1900 C.3   103  TYR103      0.1736
     39  C         34.5980   26.9140   24.7010 C.2   103  TYR103      0.2595
     40  O         35.0210   26.0940   23.8820 O.2   103  TYR103     -0.2718
     41  CB        33.9510   25.7390   26.8320 C.3   103  TYR103      0.0548
     42  CG        32.4970   26.1500   26.8610 C.ar  103  TYR103     -0.0200
     43  CD1       31.6340   25.8220   25.8140 C.ar  103  TYR103     -0.0009
     44  CD2       31.9760   26.8420   27.9500 C.ar  103  TYR103     -0.0009
     45  CE1       30.2900   26.1900   25.8470 C.ar  103  TYR103      0.0417
     46  CE2       30.6380   27.2080   27.9970 C.ar  103  TYR103      0.0417
     47  CZ        29.8030   26.8860   26.9440 C.ar  103  TYR103      0.1957
     48  OH        28.4810   27.2600   26.9990 O.3   103  TYR103     -0.2866
     49  N         33.8540   27.9640   24.3600 N.am  104  TYR104     -0.1976
     50  CA        33.4400   28.2120   22.9710 C.3   104  TYR104      0.1639
     51  C         34.6500   28.4770   22.0880 C.2   104  TYR104      0.2290
     52  O         34.7270   27.9630   20.9710 O.2   104  TYR104     -0.2864
     53  CB        32.4870   29.4050   22.9090 C.3   104  TYR104      0.0560
     54  CG        31.7110   29.5700   21.6150 C.ar  104  TYR104     -0.0198
     55  CD1       30.4060   29.0880   21.5030 C.ar  104  TYR104     -0.0009
     56  CD2       32.2630   30.2440   20.5210 C.ar  104  TYR104     -0.0009
     57  CE1       29.6720   29.2550   20.3320 C.ar  104  TYR104      0.0417
     58  CE2       31.5340   30.4200   19.3340 C.ar  104  TYR104      0.0417
     59  CZ        30.2390   29.9230   19.2510 C.ar  104  TYR104      0.1957
     60  OH        29.4970   30.0870   18.0960 O.3   104  TYR104     -0.2866
     61  N         36.3540   25.1110   21.3930 N.3   107  ILE107     -0.1245
     62  CA        35.6510   24.3820   20.3270 C.3   107  ILE107      0.1561
     63  C         35.9260   25.0260   18.9600 C.2   107  ILE107      0.2260
     64  O         36.1800   24.3260   17.9780 O.2   107  ILE107     -0.2867
     65  CB        34.1310   24.2880   20.5840 C.3   107  ILE107      0.0252
     66  CG1       33.8590   23.5870   21.9180 C.3   107  ILE107      0.0019
     67  CG2       33.4310   23.5430   19.4340 C.3   107  ILE107      0.0019
     68  CD1       32.4400   23.7640   22.4260 C.3   107  ILE107      0.0001
     69  N         20.4580   30.0850   22.8540 N.3   247  PHE247     -0.1241
     70  CA        21.8350   29.9010   22.4290 C.3   247  PHE247      0.1605
     71  C         22.0690   30.4780   21.0370 C.2   247  PHE247      0.2264
     72  O         23.0240   31.2280   20.8200 O.2   247  PHE247     -0.2867
     73  CB        22.2160   28.4160   22.4340 C.3   247  PHE247      0.0534
     74  CG        23.6950   28.1790   22.3160 C.ar  247  PHE247     -0.0203
     75  CD1       24.4760   28.0090   23.4600 C.ar  247  PHE247     -0.0042
     76  CD2       24.3120   28.1400   21.0670 C.ar  247  PHE247     -0.0042
     77  CE1       25.8460   27.7970   23.3590 C.ar  247  PHE247     -0.0003
     78  CE2       25.6810   27.9290   20.9560 C.ar  247  PHE247     -0.0003
     79  CZ        26.4500   27.7590   22.1050 C.ar  247  PHE247     -0.0000
     80  N         27.6900   15.5430   21.5440 N.3   313  ALA313     -0.1231
     81  CA        27.4970   16.8480   20.9160 C.3   313  ALA313      0.1694
     82  C         28.3340   17.0530   19.6520 C.2   313  ALA313      0.2592
     83  O         27.9610   17.8490   18.7880 O.2   313  ALA313     -0.2718
     84  CB        27.7750   17.9550   21.9110 C.3   313  ALA313      0.0304
     85  N         29.4530   16.3370   19.5450 N.am  314  PHE314     -0.1976
     86  CA        30.4390   16.6210   18.4980 C.3   314  PHE314      0.1639
     87  C         30.6340   15.5220   17.4500 C.2   314  PHE314      0.2290
     88  O         31.3640   15.7200   16.4740 O.2   314  PHE314     -0.2864
     89  CB        31.7850   17.0150   19.1220 C.3   314  PHE314      0.0560
     90  CG        31.6820   18.1270   20.1330 C.ar  314  PHE314     -0.0200
     91  CD1       31.2270   19.3900   19.7580 C.ar  314  PHE314     -0.0042
     92  CD2       32.0370   17.9100   21.4590 C.ar  314  PHE314     -0.0042
     93  CE1       31.1310   20.4170   20.6900 C.ar  314  PHE314     -0.0003
     94  CE2       31.9430   18.9360   22.4020 C.ar  314  PHE314     -0.0003
     95  CZ        31.4860   20.1890   22.0140 C.ar  314  PHE314     -0.0000
     96  N         33.9400   21.1990   30.2240 N.3   394  LEU394     -0.1231
     97  CA        33.1880   21.8770   29.1690 C.3   394  LEU394      0.1693
     98  C         31.6830   21.6930   29.3890 C.2   394  LEU394      0.2592
     99  O         30.9200   22.6570   29.3140 O.2   394  LEU394     -0.2718
    100  CB        33.6130   21.3570   27.7870 C.3   394  LEU394      0.0284
    101  CG        33.1760   22.1530   26.5450 C.3   394  LEU394      0.0019
    102  CD1       34.1080   21.8870   25.3640 C.3   394  LEU394      0.0001
    103  CD2       31.7200   21.8820   26.1640 C.3   394  LEU394      0.0001
    104  N         31.2780   20.4570   29.6870 N.am  395  ASP395     -0.1974
    105  CA        29.8720   20.1060   29.9180 C.3   395  ASP395      0.1709
    106  C         29.2580   20.9080   31.0620 C.2   395  ASP395      0.2293
    107  O         28.1300   21.3900   30.9570 O.2   395  ASP395     -0.2864
    108  CB        29.7280   18.6100   30.2250 C.3   395  ASP395      0.1436
    109  CG        30.3200   17.7190   29.1430 C.2   395  ASP395      0.3671
    110  OD1       31.4520   17.9800   28.6770 O.co2 395  ASP395     -0.2456
    111  OD2       29.6470   16.7420   28.7690 O.co2 395  ASP395     -0.2456
    112  N         28.9020   24.7270   30.2120 N.3   398  ASP398     -0.1225
    113  CA        27.8080   24.8930   29.2630 C.3   398  ASP398      0.1805
    114  C         26.4500   24.7060   29.9180 C.2   398  ASP398      0.2597
    115  O         25.4810   25.3540   29.5280 O.2   398  ASP398     -0.2718
    116  CB        27.9480   23.9460   28.0650 C.3   398  ASP398      0.1424
    117  CG        26.8840   24.1890   27.0050 C.2   398  ASP398      0.3668
    118  OD1       26.9280   25.2470   26.3360 O.co2 398  ASP398     -0.2456
    119  OD2       26.0000   23.3230   26.8450 O.co2 398  ASP398     -0.2456
    120  N         26.3770   23.8130   30.9020 N.am  399  PHE399     -0.1976
    121  CA        25.1440   23.6210   31.6640 C.3   399  PHE399      0.1639
    122  C         24.7630   24.8740   32.4570 C.2   399  PHE399      0.2290
    123  O         23.6520   25.3890   32.3090 O.2   399  PHE399     -0.2864
    124  CB        25.2490   22.4030   32.5910 C.3   399  PHE399      0.0560
    125  CG        24.0550   22.2240   33.4900 C.ar  399  PHE399     -0.0200
    126  CD1       22.8770   21.6620   33.0030 C.ar  399  PHE399     -0.0042
    127  CD2       24.1070   22.6260   34.8200 C.ar  399  PHE399     -0.0042
    128  CE1       21.7670   21.5050   33.8300 C.ar  399  PHE399     -0.0003
    129  CE2       23.0060   22.4740   35.6560 C.ar  399  PHE399     -0.0003
    130  CZ        21.8340   21.9120   35.1620 C.ar  399  PHE399     -0.0000
    131  N         23.2540   27.2800   29.3150 N.3   403  THR403     -0.1218
    132  CA        21.9520   26.6230   29.2890 C.3   403  THR403      0.1862
    133  C         20.9990   27.2270   30.3290 C.2   403  THR403      0.2287
    134  O         20.0700   27.9560   29.9710 O.2   403  THR403     -0.2866
    135  CB        22.1070   25.0840   29.4540 C.3   403  THR403      0.1770
    136  OG1       23.0120   24.5890   28.4570 O.3   403  THR403     -0.2211
    137  CG2       20.7870   24.3770   29.2940 C.3   403  THR403      0.0375
@<TRIPOS>BOND
     1     9    10    1
     2    16    14    1
     3    14    13    1
     4    14    15    1
     5    10    13    1
     6    10    11    1
     7     8     6    1
     8     1     2    1
     9     2     3    1
    10     2     5    1
    11     4     3    2
    12    11    12    2
    13    11    17   am
    14    88    87    2
    15     6     5    1
    16     6     7    1
    17    17    18    1
    18    87    86    1
    19    19    20    2
    20    19    18    1
    21    64    63    2
    22    18    21    1
    23    60    59    1
    24    28    29    1
    25    30    31    2
    26    30    29    1
    27    86    89    1
    28    86    85    1
    29    83    82    2
    30    63    62    1
    31    21    22    1
    32    89    90    1
    33    29    32    1
    34    59    58   ar
    35    59    57   ar
    36    58    56   ar
    37    67    65    1
    38    85    82   am
    39    32    33    1
    40    82    81    1
    41    91    90   ar
    42    91    93   ar
    43    90    92   ar
    44    62    65    1
    45    62    61    1
    46    57    55   ar
    47    22    23    1
    48    56    54   ar
    49    33    34    1
    50    65    66    1
    51    93    95   ar
    52    72    71    2
    53    81    80    1
    54    81    84    1
    55    78    76   ar
    56    78    79   ar
    57    52    51    2
    58    71    70    1
    59    76    74   ar
    60    23    24    1
    61    92    94   ar
    62    55    54   ar
    63    54    53    1
    64    34    36   am
    65    34    35    2
    66    66    68    1
    67    95    94   ar
    68    51    50    1
    69    79    77   ar
    70    26    25    1
    71    74    73    1
    72    74    75   ar
    73    70    73    1
    74    70    69    1
    75    24    25    2
    76    53    50    1
    77    50    49    1
    78    25    27    1
    79    77    75   ar
    80    40    39    2
    81    49    39   am
    82    39    38    1
    83   102   101    1
    84    43    45   ar
    85    43    42   ar
    86    45    47   ar
    87   103   101    1
    88    38    41    1
    89    38    37    1
    90   118   117   ar
    91   101   100    1
    92    41    42    1
    93   119   117   ar
    94    42    44   ar
    95    47    48    1
    96    47    46   ar
    97   117   116    1
    98   100    97    1
    99    44    46   ar
   100   116   113    1
   101   136   135    1
   102   110   109   ar
   103   111   109   ar
   104   109   108    1
   105    97    98    1
   106    97    96    1
   107   113   114    1
   108   113   112    1
   109   132   131    1
   110   132   135    1
   111   132   133    1
   112   137   135    1
   113    99    98    2
   114    98   104   am
   115   115   114    2
   116   104   105    1
   117   114   120   am
   118   105   108    1
   119   105   106    1
   120   134   133    2
   121   120   121    1
   122   107   106    2
   123   121   122    1
   124   121   124    1
   125   123   122    2
   126   124   125    1
   127   126   125   ar
   128   126   128   ar
   129   125   127   ar
   130   128   130   ar
   131   127   129   ar
   132   130   129   ar
