@<TRIPOS>MOLECULE
tmp/3gwvA01.pdb
 150 143 0 0 0
SMALL
GASTEIGER

@<TRIPOS>ATOM
      1  N         28.2990   28.6740   15.6360 N.3    21  LEU21      -0.1231
      2  CA        28.3530   27.2330   15.8680 C.3    21  LEU21       0.1693
      3  C         26.9860   26.6490   16.2170 C.2    21  LEU21       0.2592
      4  O         26.7070   25.5010   15.8940 O.2    21  LEU21      -0.2718
      5  CB        29.3780   26.8920   16.9600 C.3    21  LEU21       0.0284
      6  CG        30.8370   27.3380   16.7630 C.3    21  LEU21       0.0019
      7  CD1       31.7120   26.8120   17.8920 C.3    21  LEU21       0.0001
      8  CD2       31.4090   26.9130   15.4040 C.3    21  LEU21       0.0001
      9  N         26.1320   27.4460   16.8540 N.am   22  GLY22      -0.1957
     10  CA        24.7810   27.0090   17.2080 C.3    22  GLY22       0.1869
     11  C         23.9140   26.5930   16.0280 C.2    22  GLY22       0.2309
     12  O         23.1300   25.6450   16.1400 O.2    22  GLY22      -0.2863
     13  N         26.0240   23.2630   14.2800 N.3    25  LEU25      -0.1231
     14  CA        26.3740   22.1480   15.1740 C.3    25  LEU25       0.1693
     15  C         25.2870   21.7880   16.1860 C.2    25  LEU25       0.2591
     16  O         24.9370   20.6170   16.3340 O.2    25  LEU25      -0.2718
     17  CB        27.6850   22.4320   15.9210 C.3    25  LEU25       0.0284
     18  CG        29.0090   22.4720   15.1600 C.3    25  LEU25       0.0019
     19  CD1       30.1490   22.7570   16.1270 C.3    25  LEU25       0.0001
     20  CD2       29.2610   21.1710   14.3900 C.3    25  LEU25       0.0001
     21  N         24.7690   22.7950   16.8870 N.am   26  ARG26      -0.1980
     22  CA        23.8360   22.5780   17.9940 C.3    26  ARG26       0.1597
     23  C         22.4260   22.2950   17.4820 C.2    26  ARG26       0.2287
     24  O         21.7990   21.3180   17.8900 O.2    26  ARG26      -0.2864
     25  CB        23.8480   23.7870   18.9400 C.3    26  ARG26       0.0334
     26  CG        23.3310   23.5330   20.3560 C.3    26  ARG26       0.0492
     27  CD        23.0440   24.8660   21.0600 C.3    26  ARG26       0.2205
     28  NE        22.7910   24.7240   22.4980 N.pl3  26  ARG26      -0.0865
     29  CZ        21.6050   24.4680   23.0530 C.cat  26  ARG26       0.5346
     30  NH1       20.5120   24.3090   22.3080 N.pl3  26  ARG26       0.1354
     31  NH2       21.5120   24.3700   24.3730 N.pl3  26  ARG26       0.1354
     32  N         21.6320   18.6440   15.9310 N.3    29  VAL29      -0.1231
     33  CA        21.6360   17.6530   17.0010 C.3    29  VAL29       0.1692
     34  C         20.3740   17.7590   17.8650 C.2    29  VAL29       0.2591
     35  O         19.7730   16.7400   18.2130 O.2    29  VAL29      -0.2718
     36  CB        22.9510   17.7290   17.8320 C.3    29  VAL29       0.0266
     37  CG1       22.7840   17.1330   19.2200 C.3    29  VAL29       0.0020
     38  CG2       24.0780   17.0210   17.0800 C.3    29  VAL29       0.0020
     39  N         19.9670   18.9940   18.1640 N.am   30  GLN30      -0.1979
     40  CA        18.7460   19.2820   18.9230 C.3    30  GLN30       0.1601
     41  C         17.4830   18.8640   18.1750 C.2    30  GLN30       0.2287
     42  O         16.5600   18.3070   18.7680 O.2    30  GLN30      -0.2864
     43  CB        18.6620   20.7790   19.2600 C.3    30  GLN30       0.0394
     44  CG        19.7460   21.2720   20.2090 C.3    30  GLN30       0.0908
     45  CD        19.6250   20.6520   21.5770 C.2    30  GLN30       0.2608
     46  OE1       18.5790   20.7450   22.2150 O.2    30  GLN30      -0.2717
     47  NE2       20.6930   20.0050   22.0360 N.am   30  GLN30      -0.0878
     48  N         34.5510   28.2300   26.9840 N.3   103  TYR103     -0.1227
     49  CA        34.4320   26.9660   26.2370 C.3   103  TYR103      0.1736
     50  C         34.1610   27.1220   24.7330 C.2   103  TYR103      0.2595
     51  O         34.6590   26.3320   23.9260 O.2   103  TYR103     -0.2718
     52  CB        33.4420   26.0040   26.8970 C.3   103  TYR103      0.0548
     53  CG        31.9790   26.3600   26.7580 C.ar  103  TYR103     -0.0200
     54  CD1       31.2490   25.9950   25.6150 C.ar  103  TYR103     -0.0009
     55  CD2       31.3130   27.0340   27.7770 C.ar  103  TYR103     -0.0009
     56  CE1       29.8970   26.3210   25.4870 C.ar  103  TYR103      0.0417
     57  CE2       29.9600   27.3490   27.6690 C.ar  103  TYR103      0.0417
     58  CZ        29.2570   26.9980   26.5240 C.ar  103  TYR103      0.1957
     59  OH        27.9140   27.3210   26.4260 O.3   103  TYR103     -0.2866
     60  N         33.3840   28.1430   24.3680 N.am  104  TYR104     -0.1976
     61  CA        33.0420   28.4120   22.9700 C.3   104  TYR104      0.1639
     62  C         34.2620   28.6620   22.0920 C.2   104  TYR104      0.2290
     63  O         34.3180   28.1720   20.9640 O.2   104  TYR104     -0.2864
     64  CB        32.0920   29.6040   22.8750 C.3   104  TYR104      0.0560
     65  CG        31.3120   29.7320   21.5730 C.ar  104  TYR104     -0.0198
     66  CD1       30.0290   29.1920   21.4530 C.ar  104  TYR104     -0.0009
     67  CD2       31.8390   30.4270   20.4840 C.ar  104  TYR104     -0.0009
     68  CE1       29.2940   29.3260   20.2730 C.ar  104  TYR104      0.0417
     69  CE2       31.1100   30.5720   19.2890 C.ar  104  TYR104      0.0417
     70  CZ        29.8410   30.0240   19.1930 C.ar  104  TYR104      0.1957
     71  OH        29.1060   30.1710   18.0240 O.3   104  TYR104     -0.2866
     72  N         36.0460   25.2680   21.3510 N.3   107  ILE107     -0.1245
     73  CA        35.3600   24.5700   20.2540 C.3   107  ILE107      0.1561
     74  C         35.6320   25.2470   18.8920 C.2   107  ILE107      0.2260
     75  O         35.8450   24.5710   17.8880 O.2   107  ILE107     -0.2867
     76  CB        33.8330   24.4330   20.4840 C.3   107  ILE107      0.0252
     77  CG1       33.5470   23.7420   21.8230 C.3   107  ILE107      0.0019
     78  CG2       33.1920   23.6450   19.3290 C.3   107  ILE107      0.0019
     79  CD1       32.0950   23.8570   22.2870 C.3   107  ILE107      0.0001
     80  N         20.0400   30.2500   22.7780 N.3   247  PHE247     -0.1241
     81  CA        21.4440   30.0990   22.4230 C.3   247  PHE247      0.1605
     82  C         21.6970   30.6520   21.0210 C.2   247  PHE247      0.2264
     83  O         22.6650   31.3810   20.8010 O.2   247  PHE247     -0.2867
     84  CB        21.8580   28.6300   22.4960 C.3   247  PHE247      0.0534
     85  CG        23.3190   28.4000   22.2240 C.ar  247  PHE247     -0.0203
     86  CD1       24.2270   28.2970   23.2770 C.ar  247  PHE247     -0.0042
     87  CD2       23.7900   28.2830   20.9150 C.ar  247  PHE247     -0.0042
     88  CE1       25.5790   28.0900   23.0300 C.ar  247  PHE247     -0.0003
     89  CE2       25.1390   28.0750   20.6610 C.ar  247  PHE247     -0.0003
     90  CZ        26.0350   27.9730   21.7180 C.ar  247  PHE247     -0.0000
     91  N         26.5000   11.9240   20.9180 N.3   312  GLY312     -0.1210
     92  CA        27.1690   13.0870   21.4840 C.3   312  GLY312      0.1956
     93  C         26.7230   14.3330   20.7450 C.2   312  GLY312      0.2612
     94  O         25.7810   14.2840   19.9410 O.2   312  GLY312     -0.2717
     95  N         27.3970   15.4490   21.0090 N.am  313  ALA313     -0.1965
     96  CA        27.0580   16.7220   20.3690 C.3   313  ALA313      0.1728
     97  C         28.0480   17.1020   19.2700 C.2   313  ALA313      0.2616
     98  O         27.7410   17.9380   18.4150 O.2   313  ALA313     -0.2715
     99  CB        26.9750   17.8290   21.4070 C.3   313  ALA313      0.0334
    100  N         29.2310   16.4910   19.3100 N.am  314  PHE314     -0.1974
    101  CA        30.2960   16.7650   18.3520 C.3   314  PHE314      0.1639
    102  C         30.5530   15.5780   17.4150 C.2   314  PHE314      0.2290
    103  O         31.4330   15.6360   16.5520 O.2   314  PHE314     -0.2864
    104  CB        31.5820   17.1670   19.0890 C.3   314  PHE314      0.0560
    105  CG        31.3980   18.3210   20.0330 C.ar  314  PHE314     -0.0200
    106  CD1       31.2230   19.6150   19.5490 C.ar  314  PHE314     -0.0042
    107  CD2       31.3890   18.1140   21.4090 C.ar  314  PHE314     -0.0042
    108  CE1       31.0440   20.6840   20.4230 C.ar  314  PHE314     -0.0003
    109  CE2       31.2130   19.1760   22.2860 C.ar  314  PHE314     -0.0003
    110  CZ        31.0410   20.4620   21.7950 C.ar  314  PHE314     -0.0000
    111  N         34.4800   16.8440   30.8010 N.3   392  LYS392     -0.1245
    112  CA        33.1200   17.2870   31.1280 C.3   392  LYS392      0.1561
    113  C         33.0290   18.6550   31.8270 C.2   392  LYS392      0.2260
    114  O         31.9510   19.0560   32.2640 O.2   392  LYS392     -0.2867
    115  CB        32.3380   16.2030   31.9070 C.3   392  LYS392      0.0271
    116  CG        32.1250   14.8890   31.1420 C.3   392  LYS392      0.0035
    117  CD        31.2940   15.1140   29.8800 C.3   392  LYS392      0.0206
    118  CE        31.2660   13.8860   28.9660 C.3   392  LYS392      0.1093
    119  NZ        30.6380   14.2340   27.6380 N.3   392  LYS392     -0.1314
    120  N         33.5240   21.3710   30.0550 N.3   394  LEU394     -0.1231
    121  CA        32.8090   22.0690   28.9860 C.3   394  LEU394      0.1693
    122  C         31.2970   21.9600   29.1680 C.2   394  LEU394      0.2592
    123  O         30.5790   22.9500   29.0240 O.2   394  LEU394     -0.2718
    124  CB        33.2200   21.5140   27.6160 C.3   394  LEU394      0.0284
    125  CG        32.9320   22.3790   26.3790 C.3   394  LEU394      0.0019
    126  CD1       33.9170   22.0970   25.2490 C.3   394  LEU394      0.0001
    127  CD2       31.4900   22.2300   25.8900 C.3   394  LEU394      0.0001
    128  N         30.8320   20.7540   29.5020 N.am  395  ASP395     -0.1974
    129  CA        29.4110   20.4560   29.6670 C.3   395  ASP395      0.1709
    130  C         28.8260   21.2010   30.8650 C.2   395  ASP395      0.2293
    131  O         27.6880   21.6570   30.8200 O.2   395  ASP395     -0.2864
    132  CB        29.1880   18.9450   29.8680 C.3   395  ASP395      0.1436
    133  CG        29.9160   18.0840   28.8370 C.2   395  ASP395      0.3671
    134  OD1       31.1130   18.3470   28.5310 O.co2 395  ASP395     -0.2456
    135  OD2       29.2870   17.1110   28.3500 O.co2 395  ASP395     -0.2456
    136  N         28.6150   24.9090   30.0110 N.3   398  ASP398     -0.1239
    137  CA        27.5540   25.0700   29.0170 C.3   398  ASP398      0.1674
    138  C         26.1810   24.9530   29.6490 C.2   398  ASP398      0.2266
    139  O         25.2280   25.5990   29.2000 O.2   398  ASP398     -0.2867
    140  CB        27.6970   24.0590   27.8750 C.3   398  ASP398      0.1410
    141  CG        26.4870   24.0550   26.9450 C.2   398  ASP398      0.3668
    142  OD1       26.3470   24.9820   26.1260 O.co2 398  ASP398     -0.2456
    143  OD2       25.6720   23.1270   27.0420 O.co2 398  ASP398     -0.2456
    144  N         22.9630   27.4160   29.2860 N.3   403  THR403     -0.1218
    145  CA        21.6640   26.7450   29.2630 C.3   403  THR403      0.1862
    146  C         20.6910   27.2890   30.3170 C.2   403  THR403      0.2287
    147  O         19.6460   27.8380   29.9640 O.2   403  THR403     -0.2866
    148  CB        21.8140   25.1920   29.3570 C.3   403  THR403      0.1770
    149  OG1       22.7350   24.7370   28.3570 O.3   403  THR403     -0.2211
    150  CG2       20.4800   24.4910   29.1400 C.3   403  THR403      0.0375
@<TRIPOS>BOND
     1    13    14    1
     2    20    18    1
     3    18    17    1
     4    18    19    1
     5    14    17    1
     6    14    15    1
     7     8     6    1
     8     1     2    1
     9     2     3    1
    10     2     5    1
    11     4     3    2
    12    32    33    1
    13    11    12    2
    14    11    10    1
    15    15    16    2
    16    15    21   am
    17     3     9   am
    18   103   102    2
    19     6     5    1
    20     6     7    1
    21     9    10    1
    22    21    22    1
    23    33    36    1
    24    33    34    1
    25    38    36    1
    26   102   101    1
    27    23    24    2
    28    23    22    1
    29    36    37    1
    30    34    39   am
    31    34    35    2
    32    75    74    2
    33    22    25    1
    34    71    70    1
    35    39    40    1
    36    41    42    2
    37    41    40    1
    38   101   104    1
    39   101   100    1
    40    98    97    2
    41    74    73    1
    42    40    43    1
    43    25    26    1
    44   104   105    1
    45    70    69   ar
    46    70    68   ar
    47    43    44    1
    48    97   100   am
    49    97    96    1
    50    69    67   ar
    51    78    76    1
    52   106   105   ar
    53   106   108   ar
    54    94    93    2
    55   105   107   ar
    56    44    45    1
    57    73    76    1
    58    73    72    1
    59    68    66   ar
    60    26    27    1
    61    96    95    1
    62    96    99    1
    63   108   110   ar
    64    76    77    1
    65    67    65   ar
    66    89    87   ar
    67    89    90   ar
    68    93    95   am
    69    93    92    1
    70    83    82    2
    71    87    85   ar
    72    91    92    1
    73    63    62    2
    74    82    81    1
    75    27    28    1
    76   107   109   ar
    77    66    65   ar
    78    65    64    1
    79    45    47   am
    80    45    46    2
    81    90    88   ar
    82   110   109   ar
    83    77    79    1
    84    62    61    1
    85    85    84    1
    86    85    86   ar
    87    30    29    1
    88    81    84    1
    89    81    80    1
    90    28    29    2
    91    64    61    1
    92    61    60    1
    93    88    86   ar
    94    29    31    1
    95    51    50    2
    96    60    50   am
    97    50    49    1
    98   126   125    1
    99    56    54   ar
   100    56    58   ar
   101    54    53   ar
   102   127   125    1
   103   142   141   ar
   104    49    52    1
   105    49    48    1
   106   125   124    1
   107    59    58    1
   108    58    57   ar
   109    53    52    1
   110    53    55   ar
   111   141   143   ar
   112   141   140    1
   113   124   121    1
   114   119   118    1
   115    57    55   ar
   116   140   137    1
   117   135   133   ar
   118   149   148    1
   119   134   133   ar
   120   133   132    1
   121   118   117    1
   122   121   122    1
   123   121   120    1
   124   137   138    1
   125   137   136    1
   126   123   122    2
   127   150   148    1
   128   122   128   am
   129   139   138    2
   130   145   144    1
   131   145   148    1
   132   145   146    1
   133   128   129    1
   134   129   132    1
   135   129   130    1
   136   117   116    1
   137   147   146    2
   138   111   112    1
   139   131   130    2
   140   112   113    1
   141   112   115    1
   142   116   115    1
   143   113   114    2
