@<TRIPOS>MOLECULE
tmp/3gwxB00.pdb
 215 203 0 0 0
SMALL
GASTEIGER

@<TRIPOS>ATOM
      1  N         11.3600   -5.2610   19.9200 N.3    20  PHE20      -0.1227
      2  CA        10.8100   -4.2350   19.0450 C.3    20  PHE20       0.1736
      3  C         11.9580   -3.5660   18.3050 C.2    20  PHE20       0.2595
      4  O         12.7810   -2.8840   18.9100 O.2    20  PHE20      -0.2718
      5  CB        10.0330   -3.2030   19.8650 C.3    20  PHE20       0.0547
      6  CG         8.7710   -3.7430   20.4700 C.ar   20  PHE20      -0.0202
      7  CD1        7.7810   -4.2970   19.6590 C.ar   20  PHE20      -0.0042
      8  CD2        8.5790   -3.7230   21.8570 C.ar   20  PHE20      -0.0042
      9  CE1        6.6110   -4.8270   20.2080 C.ar   20  PHE20      -0.0003
     10  CE2        7.4110   -4.2500   22.4310 C.ar   20  PHE20      -0.0003
     11  CZ         6.4210   -4.8070   21.5970 C.ar   20  PHE20      -0.0000
     12  N         12.0000   -3.7590   16.9920 N.am   21  ASN21      -0.1960
     13  CA        13.0720   -3.2100   16.1570 C.3    21  ASN21       0.1819
     14  C         13.1360   -1.6810   16.1100 C.2    21  ASN21       0.2621
     15  O         14.2220   -1.1070   16.1750 O.2    21  ASN21      -0.2715
     16  CB        12.9650   -3.7800   14.7310 C.3    21  ASN21       0.1195
     17  CG        14.3220   -3.8970   14.0380 C.2    21  ASN21       0.2630
     18  OD1       14.4260   -4.4550   12.9440 O.2    21  ASN21      -0.2716
     19  ND2       15.3640   -3.3730   14.6760 N.am   21  ASN21      -0.0877
     20  N         11.9880   -1.0220   15.9960 N.am   22  MET22      -0.1977
     21  CA        11.9630    0.4370   15.9410 C.3    22  MET22       0.1605
     22  C         11.4900    1.0280   17.2770 C.2    22  MET22       0.2287
     23  O         10.3360    0.8550   17.6790 O.2    22  MET22      -0.2864
     24  CB        11.0590    0.8980   14.7870 C.3    22  MET22       0.0413
     25  CG        10.9170    2.4090   14.6230 C.3    22  MET22       0.0598
     26  SD        12.4490    3.2980   14.2350 S.3    22  MET22      -0.1393
     27  CE        12.4190    3.3560   12.4890 C.3    22  MET22       0.0692
     28  N         -4.7330   -0.9310    3.1880 N.3    76  PHE76      -0.1241
     29  CA        -5.3320   -1.7570    4.2190 C.3    76  PHE76       0.1605
     30  C         -4.5290   -3.0420    4.4220 C.2    76  PHE76       0.2264
     31  O         -4.1420   -3.3510    5.5400 O.2    76  PHE76      -0.2867
     32  CB        -6.7710   -2.0950    3.8430 C.3    76  PHE76       0.0534
     33  CG        -7.5470   -2.7320    4.9550 C.ar   76  PHE76      -0.0203
     34  CD1       -7.7310   -2.0550    6.1540 C.ar   76  PHE76      -0.0042
     35  CD2       -8.0890   -4.0180    4.8080 C.ar   76  PHE76      -0.0042
     36  CE1       -8.4340   -2.6380    7.1850 C.ar   76  PHE76      -0.0003
     37  CE2       -8.8010   -4.6160    5.8460 C.ar   76  PHE76      -0.0003
     38  CZ        -8.9720   -3.9230    7.0360 C.ar   76  PHE76      -0.0000
     39  N         -1.3680   -2.2840    6.0260 N.3    79  CYS79      -0.1221
     40  CA        -1.5830   -2.0340    7.4330 C.3    79  CYS79       0.1808
     41  C         -1.7990   -3.2940    8.2640 C.2    79  CYS79       0.2601
     42  O         -1.2500   -3.4090    9.3630 O.2    79  CYS79      -0.2717
     43  CB        -2.7700   -1.0920    7.6160 C.3    79  CYS79       0.0970
     44  SG        -2.4050    0.6390    7.2830 S.3    79  CYS79      -0.0800
     45  N         -2.5720   -4.2520    7.7530 N.am   80  GLN80      -0.1979
     46  CA        -2.8330   -5.4430    8.5480 C.3    80  GLN80       0.1601
     47  C         -1.6790   -6.4180    8.5710 C.2    80  GLN80       0.2287
     48  O         -1.5940   -7.2710    9.4510 O.2    80  GLN80      -0.2864
     49  CB        -4.1350   -6.1310    8.1120 C.3    80  GLN80       0.0394
     50  CG        -4.0480   -7.1010    6.9980 C.3    80  GLN80       0.0908
     51  CD        -5.3540   -7.8590    6.8320 C.2    80  GLN80       0.2608
     52  OE1       -5.5580   -8.9070    7.4360 O.2    80  GLN80      -0.2717
     53  NE2       -6.2590   -7.3090    6.0300 N.am   80  GLN80      -0.0878
     54  N          1.4450   -5.3440    8.8620 N.3    82  THR82      -0.1203
     55  CA         2.2730   -4.7710    9.9250 C.3    82  THR82       0.1994
     56  C          1.7160   -5.1870   11.2840 C.2    82  THR82       0.2618
     57  O          2.4470   -5.6620   12.1440 O.2    82  THR82      -0.2717
     58  CB         2.3060   -3.2190    9.8700 C.3    82  THR82       0.1784
     59  OG1        3.0030   -2.7860    8.6990 O.3    82  THR82      -0.2211
     60  CG2        3.0290   -2.6680   11.0830 C.3    82  THR82       0.0376
     61  N          0.4160   -4.9830   11.4620 N.am   83  THR83      -0.1952
     62  CA        -0.2810   -5.3460   12.6890 C.3    83  THR83       0.1897
     63  C         -0.0500   -6.7960   13.1030 C.2    83  THR83       0.2313
     64  O          0.1520   -7.0770   14.2880 O.2    83  THR83      -0.2863
     65  CB        -1.7850   -5.1370   12.5360 C.3    83  THR83       0.1794
     66  OG1       -2.0480   -3.7380   12.4120 O.3    83  THR83      -0.2208
     67  CG2       -2.5280   -5.6890   13.7270 C.3    83  THR83       0.0378
     68  N          3.4170   -6.9520   14.4820 N.3    86  THR86      -0.1218
     69  CA         3.5480   -6.3400   15.7920 C.3    86  THR86       0.1862
     70  C          2.9730   -7.2700   16.8460 C.2    86  THR86       0.2287
     71  O          3.4430   -7.2800   17.9880 O.2    86  THR86      -0.2866
     72  CB         2.8240   -4.9980   15.8910 C.3    86  THR86       0.1770
     73  OG1        3.2470   -4.1440   14.8230 O.3    86  THR86      -0.2211
     74  CG2        3.1650   -4.3270   17.2080 C.3    86  THR86       0.0375
     75  N          5.7550   -9.6630   17.8970 N.3    89  GLU89      -0.1245
     76  CA         6.7380   -9.0850   18.7910 C.3    89  GLU89       0.1567
     77  C          6.1030   -8.9460   20.1610 C.2    89  GLU89       0.2260
     78  O          6.7380   -9.2330   21.1630 O.2    89  GLU89      -0.2867
     79  CB         7.1990   -7.7230   18.2650 C.3    89  GLU89       0.0388
     80  CG         7.4320   -7.6900   16.7560 C.3    89  GLU89       0.1160
     81  CD         8.0330   -6.3780   16.2680 C.2    89  GLU89       0.3649
     82  OE1        9.2630   -6.2120   16.3980 O.co2  89  GLU89      -0.2457
     83  OE2        7.2820   -5.5110   15.7600 O.co2  89  GLU89      -0.2457
     84  N         -3.9980   -4.9080   20.4130 N.3   117  HIS117     -0.1241
     85  CA        -4.3300   -3.7000   19.6590 C.3   117  HIS117      0.1621
     86  C         -4.1730   -2.4320   20.5080 C.2   117  HIS117      0.2264
     87  O         -3.8450   -1.3650   19.9700 O.2   117  HIS117     -0.2867
     88  CB        -5.7570   -3.7450   19.0970 C.3   117  HIS117      0.0745
     89  CG        -5.8770   -4.4920   17.8070 C.ar  117  HIS117      0.0817
     90  ND1       -6.4220   -5.7550   17.7260 N.ar  117  HIS117     -0.2268
     91  CD2       -5.4620   -4.1800   16.5550 C.ar  117  HIS117      0.1154
     92  CE1       -6.3340   -6.1900   16.4810 C.ar  117  HIS117      0.1986
     93  NE2       -5.7530   -5.2550   15.7510 N.ar  117  HIS117     -0.2212
     94  N         -0.5580   -1.8390   20.4920 N.3   120  ILE120     -0.1231
     95  CA        -0.1760   -1.4270   19.1620 C.3   120  ILE120      0.1692
     96  C         -0.4860    0.0460   18.9380 C.2   120  ILE120      0.2592
     97  O          0.4010    0.8260   18.6010 O.2   120  ILE120     -0.2718
     98  CB        -0.8810   -2.2830   18.0900 C.3   120  ILE120      0.0266
     99  CG1       -0.2660   -3.6800   18.0780 C.3   120  ILE120      0.0019
    100  CG2       -0.7790   -1.6110   16.7220 C.3   120  ILE120      0.0020
    101  CD1       -0.7840   -4.5700   16.9780 C.3   120  ILE120      0.0001
    102  N         -1.7290    0.4500   19.1530 N.am  121  PHE121     -0.1976
    103  CA        -2.0540    1.8470   18.9270 C.3   121  PHE121      0.1639
    104  C         -1.2760    2.8150   19.8190 C.2   121  PHE121      0.2290
    105  O         -1.2090    4.0040   19.5280 O.2   121  PHE121     -0.2864
    106  CB        -3.5650    2.0610   19.0480 C.3   121  PHE121      0.0560
    107  CG        -4.3580    1.2740   18.0390 C.ar  121  PHE121     -0.0200
    108  CD1       -3.8150    0.9770   16.7920 C.ar  121  PHE121     -0.0042
    109  CD2       -5.6350    0.8210   18.3340 C.ar  121  PHE121     -0.0042
    110  CE1       -4.5270    0.2410   15.8680 C.ar  121  PHE121     -0.0003
    111  CE2       -6.3520    0.0820   17.4060 C.ar  121  PHE121     -0.0003
    112  CZ        -5.8030   -0.2070   16.1810 C.ar  121  PHE121     -0.0000
    113  N          2.0830    2.2260   20.6900 N.3   123  MET123     -0.1230
    114  CA         3.4140    2.2700   20.1090 C.3   123  MET123      0.1702
    115  C          3.3760    3.0980   18.8370 C.2   123  MET123      0.2592
    116  O          4.3780    3.7130   18.4540 O.2   123  MET123     -0.2718
    117  CB         3.9100    0.8510   19.8140 C.3   123  MET123      0.0401
    118  CG         4.0010   -0.0110   21.0560 C.3   123  MET123      0.0596
    119  SD         4.7360   -1.6320   20.8160 S.3   123  MET123     -0.1393
    120  CE         6.4420   -1.2250   20.9420 C.3   123  MET123      0.0692
    121  N          2.2030    3.1270   18.2090 N.am  124  LEU124     -0.1980
    122  CA         1.9950    3.8690   16.9710 C.3   124  LEU124      0.1596
    123  C          2.4140    5.3360   17.0580 C.2   124  LEU124      0.2287
    124  O          2.8730    5.9180   16.0720 O.2   124  LEU124     -0.2864
    125  CB         0.5230    3.7940   16.5590 C.3   124  LEU124      0.0297
    126  CG         0.2210    4.4730   15.2210 C.3   124  LEU124      0.0022
    127  CD1        1.0410    3.8080   14.1150 C.3   124  LEU124      0.0001
    128  CD2       -1.2610    4.3840   14.9210 C.3   124  LEU124      0.0001
    129  N          6.1600    6.3150   16.2750 N.3   127  ILE127     -0.1245
    130  CA         6.6190    6.4530   14.8920 C.3   127  ILE127      0.1561
    131  C          5.7980    7.4680   14.0980 C.2   127  ILE127      0.2260
    132  O          6.0620    7.7120   12.9190 O.2   127  ILE127     -0.2867
    133  CB         6.5520    5.1130   14.1470 C.3   127  ILE127      0.0252
    134  CG1        5.1220    4.5670   14.1810 C.3   127  ILE127      0.0019
    135  CG2        7.5050    4.1340   14.7720 C.3   127  ILE127      0.0019
    136  CD1        4.8610    3.4600   13.1720 C.3   127  ILE127      0.0001
    137  N          3.1860    9.3490    9.0620 N.3   133  LEU133     -0.1245
    138  CA         3.6030    8.1650    9.7930 C.3   133  LEU133      0.1561
    139  C          4.8690    7.5950    9.1850 C.2   133  LEU133      0.2260
    140  O          5.0340    7.5940    7.9740 O.2   133  LEU133     -0.2867
    141  CB         2.5000    7.0970    9.7420 C.3   133  LEU133      0.0270
    142  CG         2.8780    5.7620   10.3990 C.3   133  LEU133      0.0019
    143  CD1        3.0910    5.9660   11.8880 C.3   133  LEU133      0.0001
    144  CD2        1.7950    4.7410   10.1770 C.3   133  LEU133      0.0001
    145  N        -10.5160    5.0650    9.4170 N.3   157  ILE157     -0.1231
    146  CA       -10.2030    4.0210   10.3820 C.3   157  ILE157      0.1692
    147  C         -8.7810    4.2480   10.9070 C.2   157  ILE157      0.2591
    148  O         -8.3590    3.6420   11.8890 O.2   157  ILE157     -0.2718
    149  CB       -10.2570    2.6410    9.7360 C.3   157  ILE157      0.0266
    150  CG1      -10.0900    1.5710   10.8120 C.3   157  ILE157      0.0019
    151  CG2       -9.1530    2.5140    8.6870 C.3   157  ILE157      0.0020
    152  CD1      -10.0600    0.1790   10.2750 C.3   157  ILE157      0.0001
    153  N         -8.0470    5.1220   10.2250 N.am  158  ILE158     -0.1980
    154  CA        -6.6800    5.4520   10.6030 C.3   158  ILE158      0.1595
    155  C         -6.6220    6.8650   11.1800 C.2   158  ILE158      0.2287
    156  O         -5.7520    7.1800   11.9820 O.2   158  ILE158     -0.2864
    157  CB        -5.7260    5.3650    9.3810 C.3   158  ILE158      0.0276
    158  CG1       -6.2330    6.2630    8.2600 C.3   158  ILE158      0.0022
    159  CG2       -5.6660    3.9550    8.8500 C.3   158  ILE158      0.0022
    160  CD1       -5.5530    6.0240    6.9420 C.3   158  ILE158      0.0001
    161  N         -6.7610    7.3620   15.0130 N.3   161  LYS161     -0.1245
    162  CA        -5.5390    6.9460   15.6740 C.3   161  LYS161      0.1561
    163  C         -4.5830    8.1280   15.7710 C.2   161  LYS161      0.2260
    164  O         -4.0550    8.4140   16.8410 O.2   161  LYS161     -0.2867
    165  CB        -4.9020    5.8020   14.9020 C.3   161  LYS161      0.0271
    166  CG        -5.8870    4.7250   14.4900 C.3   161  LYS161      0.0035
    167  CD        -6.3360    3.8860   15.6490 C.3   161  LYS161      0.0206
    168  CE        -7.0350    2.6190   15.1590 C.3   161  LYS161      0.1093
    169  NZ        -8.2880    2.8570   14.4180 N.3   161  LYS161     -0.1314
    170  N        -12.3860    0.7100   16.9910 N.3   243  HIS243     -0.1241
    171  CA       -11.6160    0.0700   15.9410 C.3   243  HIS243      0.1621
    172  C        -12.2380   -1.2750   15.5650 C.2   243  HIS243      0.2264
    173  O        -12.3960   -1.5770   14.3940 O.2   243  HIS243     -0.2867
    174  CB       -10.1630   -0.1290   16.3860 C.3   243  HIS243      0.0745
    175  CG        -9.2890   -0.7150   15.3220 C.ar  243  HIS243      0.0817
    176  ND1       -9.0750   -0.0880   14.1120 N.ar  243  HIS243     -0.2268
    177  CD2       -8.6280   -1.8960   15.2580 C.ar  243  HIS243      0.1154
    178  CE1       -8.3250   -0.8620   13.3470 C.ar  243  HIS243      0.1986
    179  NE2       -8.0410   -1.9640   14.0180 N.ar  243  HIS243     -0.2212
    180  N        -13.9070   -2.6450   11.9740 N.3   247  MET247     -0.1245
    181  CA       -13.4170   -3.8780   11.3610 C.3   247  MET247      0.1570
    182  C        -14.5350   -4.8240   10.9300 C.2   247  MET247      0.2261
    183  O        -14.5120   -5.3330    9.8110 O.2   247  MET247     -0.2867
    184  CB       -12.4470   -4.6210   12.3000 C.3   247  MET247      0.0387
    185  CG       -11.0260   -4.0470   12.3370 C.3   247  MET247      0.0595
    186  SD       -10.1660   -4.1000   10.7350 S.3   247  MET247     -0.1393
    187  CE       -10.8350   -2.7570    9.9760 C.3   247  MET247      0.0692
    188  N         -9.4800  -10.5040    5.1530 N.3   259  LEU259     -0.1245
    189  CA        -9.0230  -10.2010    6.5080 C.3   259  LEU259      0.1561
    190  C         -8.1600  -11.3680    6.9760 C.2   259  LEU259      0.2260
    191  O         -8.5260  -12.5200    6.7910 O.2   259  LEU259     -0.2867
    192  CB       -10.2180  -10.0140    7.4560 C.3   259  LEU259      0.0270
    193  CG        -9.9250   -9.7080    8.9370 C.3   259  LEU259      0.0019
    194  CD1       -9.2000   -8.3640    9.1070 C.3   259  LEU259      0.0001
    195  CD2      -11.2280   -9.6790    9.7010 C.3   259  LEU259      0.0001
    196  N         -6.5090  -11.8350   12.8290 N.3   263  LEU263     -0.1245
    197  CA        -7.2550  -10.6550   13.2420 C.3   263  LEU263      0.1561
    198  C         -8.7280  -11.0350   13.3530 C.2   263  LEU263      0.2260
    199  O         -9.4810  -10.4230   14.1110 O.2   263  LEU263     -0.2867
    200  CB        -7.0530   -9.5220   12.2430 C.3   263  LEU263      0.0270
    201  CG        -5.8840   -8.5650   12.4780 C.3   263  LEU263      0.0019
    202  CD1       -4.6840   -9.2430   13.1090 C.3   263  LEU263      0.0001
    203  CD2       -5.5060   -8.0310   11.1650 C.3   263  LEU263      0.0001
    204  N        -11.0900  -10.6000   16.5700 N.3   267  TYR267     -0.1241
    205  CA       -12.3840   -9.9480   16.4330 C.3   267  TYR267      0.1605
    206  C        -13.4880  -10.9690   16.2380 C.2   267  TYR267      0.2264
    207  O        -13.5420  -11.6290   15.2010 O.2   267  TYR267     -0.2867
    208  CB       -12.4010   -9.0200   15.2220 C.3   267  TYR267      0.0534
    209  CG       -11.3460   -7.9500   15.2040 C.ar  267  TYR267     -0.0201
    210  CD1      -11.1950   -7.0710   16.2710 C.ar  267  TYR267     -0.0009
    211  CD2      -10.5350   -7.7810   14.0870 C.ar  267  TYR267     -0.0009
    212  CE1      -10.2630   -6.0470   16.2190 C.ar  267  TYR267      0.0417
    213  CE2       -9.6060   -6.7660   14.0250 C.ar  267  TYR267      0.0417
    214  CZ        -9.4810   -5.9030   15.0880 C.ar  267  TYR267      0.1957
    215  OH        -8.6020   -4.8620   14.9690 O.3   267  TYR267     -0.2866
@<TRIPOS>BOND
     1    28    29    1
     2    32    29    1
     3    32    33    1
     4    29    30    1
     5    30    31    2
     6    35    33   ar
     7    35    37   ar
     8    33    34   ar
     9   188   189    1
    10    37    38   ar
    11    39    40    1
    12    53    51   am
    13    34    36   ar
    14   189   190    1
    15   189   192    1
    16   191   190    2
    17    51    50    1
    18    51    52    2
    19   160   158    1
    20    50    49    1
    21    38    36   ar
    22    44    43    1
    23    40    43    1
    24    40    41    1
    25   192   193    1
    26    45    41   am
    27    45    46    1
    28   140   139    2
    29    49    46    1
    30   158   157    1
    31    41    42    2
    32    46    47    1
    33    47    48    2
    34   151   149    1
    35    59    58    1
    36   159   157    1
    37    54    55    1
    38   193   194    1
    39   193   195    1
    40   137   138    1
    41   139   138    1
    42   157   154    1
    43   145   146    1
    44   149   146    1
    45   149   150    1
    46   141   138    1
    47   141   142    1
    48   183   182    2
    49    58    55    1
    50    58    60    1
    51    55    56    1
    52   187   186    1
    53   144   142    1
    54   153   154    1
    55   153   147   am
    56   152   150    1
    57   146   147    1
    58   142   143    1
    59   154   155    1
    60   186   185    1
    61   147   148    2
    62   182   181    1
    63   203   201    1
    64   155   156    2
    65    56    61   am
    66    56    57    2
    67   181   180    1
    68   181   184    1
    69    61    62    1
    70   200   201    1
    71   200   197    1
    72   184   185    1
    73    66    65    1
    74   201   202    1
    75    27    26    1
    76    65    62    1
    77    65    67    1
    78    62    63    1
    79   196   197    1
    80   132   131    2
    81    18    17    2
    82    63    64    2
    83   136   134    1
    84   197   198    1
    85   178   179   ar
    86   178   176   ar
    87   198   199    2
    88   179   177   ar
    89   213   211   ar
    90   213   214   ar
    91    17    19   am
    92    17    16    1
    93   211   209   ar
    94   131   130    1
    95   176   175   ar
    96   127   126    1
    97   133   134    1
    98   133   135    1
    99   133   130    1
   100    26    25    1
   101   173   172    2
   102   169   168    1
   103    68    69    1
   104   166   165    1
   105   166   167    1
   106    25    24    1
   107    16    13    1
   108    24    21    1
   109    73    72    1
   110   130   129    1
   111   165   162    1
   112   128   126    1
   113   215   214    1
   114   161   162    1
   115   214   212   ar
   116   168   167    1
   117   207   206    2
   118   209   208    1
   119   209   210   ar
   120   126   125    1
   121   208   205    1
   122   177   175   ar
   123   175   174    1
   124   172   171    1
   125   162   163    1
   126    93    92   ar
   127    93    91   ar
   128    83    81   ar
   129   163   164    2
   130    69    72    1
   131    69    70    1
   132   110   112   ar
   133   110   108   ar
   134    72    74    1
   135    21    20    1
   136    21    22    1
   137   171   174    1
   138   171   170    1
   139    20    14   am
   140   124   123    2
   141    14    13    1
   142    14    15    2
   143    13    12    1
   144   112   111   ar
   145   212   210   ar
   146   206   205    1
   147    81    82   ar
   148    81    80    1
   149   205   204    1
   150    92    90   ar
   151    91    89   ar
   152   125   122    1
   153   100    98    1
   154    80    79    1
   155   108   107   ar
   156    70    71    2
   157   122   123    1
   158   122   121    1
   159   101    99    1
   160    12     3   am
   161    22    23    2
   162   111   109   ar
   163    90    89   ar
   164    89    88    1
   165    75    76    1
   166   107   109   ar
   167   107   106    1
   168    99    98    1
   169    98    95    1
   170   121   115   am
   171    79    76    1
   172     3     4    2
   173     3     2    1
   174   116   115    2
   175    97    96    2
   176    76    77    1
   177   115   114    1
   178   103   106    1
   179   103   102    1
   180   103   104    1
   181    96   102   am
   182    96    95    1
   183     2     5    1
   184     2     1    1
   185    88    85    1
   186    95    94    1
   187   105   104    2
   188     7     9   ar
   189     7     6   ar
   190    85    84    1
   191    85    86    1
   192   117   114    1
   193   117   118    1
   194     5     6    1
   195    87    86    2
   196   114   113    1
   197    77    78    2
   198     9    11   ar
   199     6     8   ar
   200   119   120    1
   201   119   118    1
   202    11    10   ar
   203     8    10   ar
