@<TRIPOS>MOLECULE
tmp/3gwzD00.pdb
 126 123 0 0 0
SMALL
GASTEIGER

@<TRIPOS>ATOM
      1  N         11.3690  129.1730   -5.5940 N.3   100  ASP100     -0.1239
      2  CA        12.0180  128.3380   -4.5890 C.3   100  ASP100      0.1674
      3  C         12.1270  126.8840   -5.0800 C.2   100  ASP100      0.2266
      4  O         13.1260  126.2200   -4.8460 O.2   100  ASP100     -0.2867
      5  CB        11.2680  128.4060   -3.2630 C.3   100  ASP100      0.1410
      6  CG        12.1730  128.1430   -2.0660 C.2   100  ASP100      0.3668
      7  OD1       13.3950  127.9580   -2.2690 O.co2 100  ASP100     -0.2456
      8  OD2       11.6570  128.1230   -0.9280 O.co2 100  ASP100     -0.2456
      9  N         15.1220  126.6520   -7.3690 N.3   103  PHE103     -0.1241
     10  CA        16.3320  126.8250   -6.5610 C.3   103  PHE103      0.1605
     11  C         16.6620  125.4930   -5.8820 C.2   103  PHE103      0.2264
     12  O         17.7930  125.0070   -5.9440 O.2   103  PHE103     -0.2867
     13  CB        16.0320  127.9420   -5.5380 C.3   103  PHE103      0.0534
     14  CG        17.1210  128.2250   -4.5320 C.ar  103  PHE103     -0.0203
     15  CD1       18.4250  128.4850   -4.9200 C.ar  103  PHE103     -0.0042
     16  CD2       16.8020  128.3200   -3.1780 C.ar  103  PHE103     -0.0042
     17  CE1       19.4060  128.7860   -3.9730 C.ar  103  PHE103     -0.0003
     18  CE2       17.7740  128.6200   -2.2260 C.ar  103  PHE103     -0.0003
     19  CZ        19.0760  128.8570   -2.6240 C.ar  103  PHE103     -0.0000
     20  N         28.0680  128.7900    0.5100 N.3   135  PHE135     -0.1227
     21  CA        26.9450  129.2780   -0.2860 C.3   135  PHE135      0.1736
     22  C         27.2920  130.6250   -0.9180 C.2   135  PHE135      0.2595
     23  O         27.0450  130.8490   -2.1010 O.2   135  PHE135     -0.2718
     24  CB        25.6640  129.3850    0.5610 C.3   135  PHE135      0.0547
     25  CG        24.4500  129.8270   -0.2260 C.ar  135  PHE135     -0.0202
     26  CD1       23.7390  128.9220   -0.9960 C.ar  135  PHE135     -0.0042
     27  CD2       24.0220  131.1440   -0.1890 C.ar  135  PHE135     -0.0042
     28  CE1       22.6250  129.3280   -1.7300 C.ar  135  PHE135     -0.0003
     29  CE2       22.9120  131.5490   -0.9070 C.ar  135  PHE135     -0.0003
     30  CZ        22.2170  130.6360   -1.6850 C.ar  135  PHE135     -0.0000
     31  N         27.8800  131.5250   -0.1400 N.am  136  TRP136     -0.1976
     32  CA        28.2230  132.8400   -0.6830 C.3   136  TRP136      0.1640
     33  C         29.2540  132.7610   -1.8150 C.2   136  TRP136      0.2290
     34  O         29.1320  133.4540   -2.8250 O.2   136  TRP136     -0.2864
     35  CB        28.6680  133.8040    0.4260 C.3   136  TRP136      0.0576
     36  CG        27.5640  134.0250    1.4230 C.ar  136  TRP136      0.0006
     37  CD1       27.6250  133.8590    2.7770 C.ar  136  TRP136      0.0946
     38  CD2       26.2170  134.4080    1.1250 C.ar  136  TRP136      0.0152
     39  NE1       26.3990  134.1390    3.3430 N.ar  136  TRP136     -0.2442
     40  CE2       25.5190  134.4760    2.3470 C.ar  136  TRP136      0.0810
     41  CE3       25.5370  134.7170   -0.0610 C.ar  136  TRP136      0.0012
     42  CZ2       24.1750  134.8320    2.4190 C.ar  136  TRP136      0.0191
     43  CZ3       24.2090  135.0670    0.0110 C.ar  136  TRP136      0.0001
     44  CH2       23.5370  135.1180    1.2430 C.ar  136  TRP136      0.0015
     45  N         19.1890  131.7770   -6.8480 N.3   149  PHE149     -0.1241
     46  CA        19.0610  132.3710   -5.5220 C.3   149  PHE149      0.1605
     47  C         18.4190  133.7530   -5.5670 C.2   149  PHE149      0.2264
     48  O         17.4680  134.0260   -4.8470 O.2   149  PHE149     -0.2867
     49  CB        20.4260  132.4620   -4.8420 C.3   149  PHE149      0.0534
     50  CG        20.4280  133.3360   -3.6100 C.ar  149  PHE149     -0.0203
     51  CD1       19.7280  132.9610   -2.4820 C.ar  149  PHE149     -0.0042
     52  CD2       21.1400  134.5270   -3.5870 C.ar  149  PHE149     -0.0042
     53  CE1       19.7280  133.7640   -1.3450 C.ar  149  PHE149     -0.0003
     54  CE2       21.1430  135.3310   -2.4580 C.ar  149  PHE149     -0.0003
     55  CZ        20.4330  134.9460   -1.3380 C.ar  149  PHE149     -0.0000
     56  N         14.7590  133.4070   -6.2140 N.3   152  ALA152     -0.1245
     57  CA        14.0300  132.8640   -5.0720 C.3   152  ALA152      0.1562
     58  C         13.8380  133.9460   -4.0040 C.2   152  ALA152      0.2260
     59  O         12.7610  134.0750   -3.4200 O.2   152  ALA152     -0.2867
     60  CB        14.7550  131.6520   -4.4960 C.3   152  ALA152      0.0290
     61  N         16.0760  140.2380    5.9650 N.3   244  HIS244     -0.1241
     62  CA        16.4610  138.8570    5.6750 C.3   244  HIS244      0.1621
     63  C         17.9580  138.7760    5.4080 C.2   244  HIS244      0.2264
     64  O         18.4080  138.0840    4.4860 O.2   244  HIS244     -0.2867
     65  CB        15.6640  138.3140    4.4830 C.3   244  HIS244      0.0745
     66  CG        14.1930  138.1860    4.7440 C.ar  244  HIS244      0.0817
     67  ND1       13.6870  137.6840    5.9240 N.ar  244  HIS244     -0.2268
     68  CD2       13.1190  138.4810    3.9700 C.ar  244  HIS244      0.1154
     69  CE1       12.3670  137.6820    5.8700 C.ar  244  HIS244      0.1986
     70  NE2       11.9970  138.1550    4.6910 N.ar  244  HIS244     -0.2212
     71  N         19.5420  136.9620    9.7340 N.3   247  HIS247     -0.1226
     72  CA        19.2820  135.5510   10.0170 C.3   247  HIS247      0.1752
     73  C         20.2070  134.5990    9.2430 C.2   247  HIS247      0.2596
     74  O         20.2510  133.4080    9.5310 O.2   247  HIS247     -0.2718
     75  CB        17.7910  135.2090    9.8530 C.3   247  HIS247      0.0759
     76  CG        17.3020  135.2020    8.4380 C.ar  247  HIS247      0.0818
     77  ND1       16.0300  134.7910    8.1020 N.ar  247  HIS247     -0.2268
     78  CD2       17.9110  135.5290    7.2720 C.ar  247  HIS247      0.1154
     79  CE1       15.8710  134.8790    6.7930 C.ar  247  HIS247      0.1986
     80  NE2       16.9980  135.3210    6.2650 N.ar  247  HIS247     -0.2212
     81  N         20.9650  135.1360    8.2890 N.am  248  ASP248     -0.1974
     82  CA        21.9690  134.3480    7.5680 C.3   248  ASP248      0.1709
     83  C         23.2140  134.1020    8.4070 C.2   248  ASP248      0.2293
     84  O         24.0680  133.2900    8.0350 O.2   248  ASP248     -0.2864
     85  CB        22.4180  135.0630    6.2870 C.3   248  ASP248      0.1436
     86  CG        21.3260  135.1450    5.2420 C.2   248  ASP248      0.3671
     87  OD1       20.3410  134.3820    5.3310 O.co2 248  ASP248     -0.2456
     88  OD2       21.4670  135.9730    4.3230 O.co2 248  ASP248     -0.2456
     89  N         12.2130  126.8690    7.8670 N.3   288  VAL288     -0.1245
     90  CA        13.1170  127.8700    7.3070 C.3   288  VAL288      0.1561
     91  C         14.3240  128.0740    8.2150 C.2   288  VAL288      0.2260
     92  O         15.4460  128.2420    7.7480 O.2   288  VAL288     -0.2867
     93  CB        12.3770  129.2000    7.0160 C.3   288  VAL288      0.0252
     94  CG1       13.3570  130.3030    6.6140 C.3   288  VAL288      0.0019
     95  CG2       11.3350  128.9750    5.9160 C.3   288  VAL288      0.0019
     96  N         16.6890  125.3250    7.2890 N.3   291  LEU291     -0.1231
     97  CA        17.2910  125.6410    5.9890 C.3   291  LEU291      0.1693
     98  C         18.4190  126.6600    6.1280 C.2   291  LEU291      0.2591
     99  O         19.4640  126.5430    5.4950 O.2   291  LEU291     -0.2718
    100  CB        16.2300  126.1700    5.0150 C.3   291  LEU291      0.0284
    101  CG        16.7730  126.6370    3.6540 C.3   291  LEU291      0.0019
    102  CD1       17.2500  125.4270    2.8270 C.3   291  LEU291      0.0001
    103  CD2       15.7300  127.4300    2.8910 C.3   291  LEU291      0.0001
    104  N         18.2050  127.6780    6.9530 N.am  292  LEU292     -0.1980
    105  CA        19.2540  128.6740    7.1940 C.3   292  LEU292      0.1596
    106  C         20.5150  128.0270    7.7530 C.2   292  LEU292      0.2287
    107  O         21.6370  128.3650    7.3640 O.2   292  LEU292     -0.2864
    108  CB        18.7590  129.7160    8.1870 C.3   292  LEU292      0.0297
    109  CG        17.6940  130.6710    7.6630 C.3   292  LEU292      0.0022
    110  CD1       17.1640  131.4980    8.8350 C.3   292  LEU292      0.0001
    111  CD2       18.2880  131.5430    6.5980 C.3   292  LEU292      0.0001
    112  N         22.1800  125.8660    4.7380 N.3   295  LEU295     -0.1231
    113  CA        22.7990  126.6510    3.6690 C.3   295  LEU295      0.1693
    114  C         23.9410  127.5710    4.1160 C.2   295  LEU295      0.2591
    115  O         25.0080  127.5790    3.4910 O.2   295  LEU295     -0.2718
    116  CB        21.7480  127.4790    2.9280 C.3   295  LEU295      0.0284
    117  CG        20.6160  126.7460    2.2190 C.3   295  LEU295      0.0019
    118  CD1       19.7610  127.7370    1.4670 C.3   295  LEU295      0.0001
    119  CD2       21.1670  125.6830    1.2690 C.3   295  LEU295      0.0001
    120  N         23.7120  128.3500    5.1780 N.am  296  VAL296     -0.1980
    121  CA        24.6440  129.4150    5.5560 C.3   296  VAL296      0.1595
    122  C         25.0600  129.4430    7.0300 C.2   296  VAL296      0.2287
    123  O         25.7880  130.3410    7.4380 O.2   296  VAL296     -0.2864
    124  CB        24.0930  130.8170    5.1780 C.3   296  VAL296      0.0276
    125  CG1       24.0450  130.9880    3.6600 C.3   296  VAL296      0.0022
    126  CG2       22.7170  131.0530    5.8020 C.3   296  VAL296      0.0022
@<TRIPOS>BOND
     1     9    10    1
     2    45    46    1
     3    10    11    1
     4    10    13    1
     5    56    57    1
     6    12    11    2
     7     1     2    1
     8    47    46    1
     9    47    48    2
    10    13    14    1
    11    46    49    1
    12     3     4    2
    13     3     2    1
    14    57    60    1
    15    57    58    1
    16    15    14   ar
    17    15    17   ar
    18    49    50    1
    19     2     5    1
    20    14    16   ar
    21    58    59    2
    22    17    19   ar
    23    50    52   ar
    24    50    51   ar
    25    52    54   ar
    26     5     6    1
    27    16    18   ar
    28    34    33    2
    29    19    18   ar
    30    51    53   ar
    31    54    55   ar
    32     7     6   ar
    33    23    22    2
    34     6     8   ar
    35    33    32    1
    36    28    30   ar
    37    28    26   ar
    38    30    29   ar
    39    53    55   ar
    40    26    25   ar
    41    22    21    1
    42    22    31   am
    43    29    27   ar
    44    32    31    1
    45    32    35    1
    46    21    20    1
    47    21    24    1
    48    25    27   ar
    49    25    24    1
    50    41    43   ar
    51    41    38   ar
    52    43    44   ar
    53    35    36    1
    54    38    36   ar
    55    38    40   ar
    56    44    42   ar
    57   119   117    1
    58    36    37   ar
    59   118   117    1
    60   117   116    1
    61    40    42   ar
    62    40    39   ar
    63    37    39   ar
    64   102   101    1
    65   103   101    1
    66   116   113    1
    67   115   114    2
    68   101   100    1
    69   125   124    1
    70   113   114    1
    71   113   112    1
    72    68    70   ar
    73    68    66   ar
    74   114   120   am
    75    88    86   ar
    76    65    66    1
    77    65    62    1
    78    64    63    2
    79    70    69   ar
    80    66    67   ar
    81   100    97    1
    82   120   121    1
    83   124   121    1
    84   124   126    1
    85    86    87   ar
    86    86    85    1
    87    63    62    1
    88    99    98    2
    89   121   122    1
    90    62    61    1
    91    69    67   ar
    92    95    93    1
    93    97    98    1
    94    97    96    1
    95    98   104   am
    96    80    79   ar
    97    80    78   ar
    98    85    82    1
    99   111   109    1
   100    94    93    1
   101    79    77   ar
   102   104   105    1
   103    93    90    1
   104   122   123    2
   105   105   106    1
   106   105   108    1
   107    78    76   ar
   108    90    89    1
   109    90    91    1
   110   107   106    2
   111    82    81    1
   112    82    83    1
   113   109   108    1
   114   109   110    1
   115    92    91    2
   116    84    83    2
   117    77    76   ar
   118    81    73   am
   119    76    75    1
   120    73    74    2
   121    73    72    1
   122    71    72    1
   123    75    72    1
