@<TRIPOS>MOLECULE
tmp/3gwzD01.pdb
 199 196 0 0 0
SMALL
GASTEIGER

@<TRIPOS>ATOM
      1  N         27.8800  131.5250   -0.1400 N.3   136  TRP136     -0.1241
      2  CA        28.2230  132.8400   -0.6830 C.3   136  TRP136      0.1605
      3  C         29.2540  132.7610   -1.8150 C.2   136  TRP136      0.2264
      4  O         29.1320  133.4540   -2.8250 O.2   136  TRP136     -0.2867
      5  CB        28.6680  133.8040    0.4260 C.3   136  TRP136      0.0550
      6  CG        27.5640  134.0250    1.4230 C.ar  136  TRP136      0.0003
      7  CD1       27.6250  133.8590    2.7770 C.ar  136  TRP136      0.0946
      8  CD2       26.2170  134.4080    1.1250 C.ar  136  TRP136      0.0152
      9  NE1       26.3990  134.1390    3.3430 N.ar  136  TRP136     -0.2442
     10  CE2       25.5190  134.4760    2.3470 C.ar  136  TRP136      0.0810
     11  CE3       25.5370  134.7170   -0.0610 C.ar  136  TRP136      0.0012
     12  CZ2       24.1750  134.8320    2.4190 C.ar  136  TRP136      0.0191
     13  CZ3       24.2090  135.0670    0.0110 C.ar  136  TRP136      0.0001
     14  CH2       23.5370  135.1180    1.2430 C.ar  136  TRP136      0.0015
     15  N         19.1890  131.7770   -6.8480 N.3   149  PHE149     -0.1227
     16  CA        19.0610  132.3710   -5.5220 C.3   149  PHE149      0.1736
     17  C         18.4190  133.7530   -5.5670 C.2   149  PHE149      0.2595
     18  O         17.4680  134.0260   -4.8470 O.2   149  PHE149     -0.2718
     19  CB        20.4260  132.4620   -4.8420 C.3   149  PHE149      0.0547
     20  CG        20.4280  133.3360   -3.6100 C.ar  149  PHE149     -0.0202
     21  CD1       19.7280  132.9610   -2.4820 C.ar  149  PHE149     -0.0042
     22  CD2       21.1400  134.5270   -3.5870 C.ar  149  PHE149     -0.0042
     23  CE1       19.7280  133.7640   -1.3450 C.ar  149  PHE149     -0.0003
     24  CE2       21.1430  135.3310   -2.4580 C.ar  149  PHE149     -0.0003
     25  CZ        20.4330  134.9460   -1.3380 C.ar  149  PHE149     -0.0000
     26  N         18.9470  134.6340   -6.4040 N.am  150  ASN150     -0.1974
     27  CA        18.4020  135.9850   -6.4590 C.3   150  ASN150      0.1688
     28  C         16.9200  136.0010   -6.8540 C.2   150  ASN150      0.2292
     29  O         16.1500  136.8360   -6.3740 O.2   150  ASN150     -0.2864
     30  CB        19.2610  136.8820   -7.3580 C.3   150  ASN150      0.1181
     31  CG        20.6420  137.1620   -6.7530 C.2   150  ASN150      0.2629
     32  OD1       20.8080  137.1650   -5.5380 O.2   150  ASN150     -0.2716
     33  ND2       21.6310  137.3910   -7.6050 N.am  150  ASN150     -0.0877
     34  N         14.1650  137.3300   -4.5350 N.3   153  GLY153     -0.1225
     35  CA        13.4390  138.4390   -5.1280 C.3   153  GLY153      0.1811
     36  C         11.9290  138.2910   -5.1370 C.2   153  GLY153      0.2280
     37  O         11.2020  139.2780   -5.0290 O.2   153  GLY153     -0.2866
     38  N         10.6480  138.9050   -1.7260 N.3   156  SER156     -0.1217
     39  CA        10.8340  140.3120   -1.3960 C.3   156  SER156      0.1889
     40  C          9.7400  141.1780   -2.0210 C.2   156  SER156      0.2288
     41  O          9.2960  142.1560   -1.4160 O.2   156  SER156     -0.2866
     42  CB        12.2250  140.7920   -1.8150 C.3   156  SER156      0.2089
     43  OG        12.4830  142.1100   -1.3400 O.3   156  SER156     -0.2183
     44  N         19.5460  150.6640    2.2630 N.3   177  ASP177     -0.1225
     45  CA        19.1940  149.2540    2.3750 C.3   177  ASP177      0.1805
     46  C         20.4510  148.4100    2.2930 C.2   177  ASP177      0.2598
     47  O         21.1040  148.3540    1.2570 O.2   177  ASP177     -0.2718
     48  CB        18.2140  148.8220    1.2820 C.3   177  ASP177      0.1424
     49  CG        17.4980  147.5250    1.6360 C.2   177  ASP177      0.3668
     50  OD1       17.8530  146.9370    2.6840 O.co2 177  ASP177     -0.2456
     51  OD2       16.5850  147.1010    0.8840 O.co2 177  ASP177     -0.2456
     52  N         20.7730  147.7610    3.4050 N.am  178  ILE178     -0.1966
     53  CA        22.0040  147.0140    3.5550 C.3   178  ILE178      0.1727
     54  C         21.7530  145.5950    3.0660 C.2   178  ILE178      0.2617
     55  O         20.9490  144.8730    3.6620 O.2   178  ILE178     -0.2715
     56  CB        22.4070  146.9740    5.0390 C.3   178  ILE178      0.0290
     57  CG1       22.4400  148.3950    5.6140 C.3   178  ILE178      0.0022
     58  CG2       23.7410  146.2570    5.2250 C.3   178  ILE178      0.0023
     59  CD1       22.4540  148.4360    7.1280 C.3   178  ILE178      0.0001
     60  N         22.4200  145.2080    1.9830 N.am  179  GLY179     -0.1940
     61  CA        22.1950  143.9000    1.3720 C.3   179  GLY179      0.2014
     62  C         20.7650  143.7800    0.8610 C.2   179  GLY179      0.2639
     63  O         20.0610  142.8050    1.1620 O.2   179  GLY179     -0.2714
     64  N         20.3380  144.7790    0.0920 N.am  180  GLY180     -0.1939
     65  CA        18.9480  144.9060   -0.3170 C.3   180  GLY180      0.2014
     66  C         18.5500  144.1010   -1.5470 C.2   180  GLY180      0.2639
     67  O         17.5460  144.3910   -2.1880 O.2   180  GLY180     -0.2714
     68  N         19.3320  143.0810   -1.8750 N.am  181  GLY181     -0.1939
     69  CA        19.0030  142.1980   -2.9870 C.3   181  GLY181      0.2014
     70  C         18.7870  142.9030   -4.3140 C.2   181  GLY181      0.2638
     71  O         19.6150  143.7040   -4.7490 O.2   181  GLY181     -0.2714
     72  N         17.6710  142.5980   -4.9670 N.am  182  ARG182     -0.1977
     73  CA        17.3580  143.1970   -6.2630 C.3   182  ARG182      0.1597
     74  C         16.6540  144.5540   -6.1480 C.2   182  ARG182      0.2287
     75  O         16.2580  145.1370   -7.1550 O.2   182  ARG182     -0.2864
     76  CB        16.5410  142.2310   -7.1240 C.3   182  ARG182      0.0334
     77  CG        17.3820  141.1040   -7.7080 C.3   182  ARG182      0.0492
     78  CD        16.5230  140.1060   -8.4610 C.3   182  ARG182      0.2205
     79  NE        17.3280  139.2470   -9.3210 N.pl3 182  ARG182     -0.0865
     80  CZ        16.8130  138.3980  -10.2050 C.cat 182  ARG182      0.5346
     81  NH1       15.4960  138.2970  -10.3360 N.pl3 182  ARG182      0.1354
     82  NH2       17.6150  137.6550  -10.9570 N.pl3 182  ARG182      0.1354
     83  N         12.5620  146.2170   -2.1430 N.3   185  LEU185     -0.1245
     84  CA        12.1780  146.9110   -0.9190 C.3   185  LEU185      0.1561
     85  C         12.4070  148.4070   -1.0930 C.2   185  LEU185      0.2260
     86  O         11.5220  149.2130   -0.8140 O.2   185  LEU185     -0.2867
     87  CB        12.9410  146.3990    0.3030 C.3   185  LEU185      0.0270
     88  CG        12.7420  147.2390    1.5710 C.3   185  LEU185      0.0019
     89  CD1       11.2760  147.2820    1.9910 C.3   185  LEU185      0.0001
     90  CD2       13.6070  146.7090    2.7070 C.3   185  LEU185      0.0001
     91  N         24.9830  146.1730   -2.0260 N.3   201  GLU201     -0.1231
     92  CA        24.9100  144.7590   -2.3700 C.3   201  GLU201      0.1699
     93  C         26.2030  144.3200   -3.0160 C.2   201  GLU201      0.2592
     94  O         26.9890  145.1500   -3.4910 O.2   201  GLU201     -0.2718
     95  CB        23.7570  144.4980   -3.3380 C.3   201  GLU201      0.0402
     96  CG        22.5130  143.9180   -2.6870 C.3   201  GLU201      0.1161
     97  CD        22.7280  142.4930   -2.2130 C.2   201  GLU201      0.3649
     98  OE1       23.8350  141.9410   -2.4370 O.co2 201  GLU201     -0.2457
     99  OE2       21.7940  141.9340   -1.6110 O.co2 201  GLU201     -0.2457
    100  N         26.4230  143.0110   -3.0330 N.am  202  ARG202     -0.1980
    101  CA        27.5000  142.4350   -3.8250 C.3   202  ARG202      0.1597
    102  C         27.3120  142.8970   -5.2580 C.2   202  ARG202      0.2287
    103  O         26.1790  143.1220   -5.6960 O.2   202  ARG202     -0.2864
    104  CB        27.4750  140.9070   -3.7320 C.3   202  ARG202      0.0334
    105  CG        27.5790  140.3950   -2.2990 C.3   202  ARG202      0.0492
    106  CD        27.8010  138.8870   -2.2650 C.3   202  ARG202      0.2205
    107  NE        26.6250  138.1340   -2.7010 N.pl3 202  ARG202     -0.0865
    108  CZ        26.6390  136.8300   -2.9660 C.cat 202  ARG202      0.5346
    109  NH1       27.7690  136.1440   -2.8510 N.pl3 202  ARG202      0.1354
    110  NH2       25.5280  136.2110   -3.3480 N.pl3 202  ARG202      0.1354
    111  N         24.4460  141.3420   -8.0470 N.3   205  VAL205     -0.1245
    112  CA        23.0290  141.6330   -7.8190 C.3   205  VAL205      0.1561
    113  C         22.7820  143.1420   -7.6890 C.2   205  VAL205      0.2260
    114  O         21.6780  143.6240   -7.9450 O.2   205  VAL205     -0.2867
    115  CB        22.4390  140.8540   -6.6020 C.3   205  VAL205      0.0252
    116  CG1       23.0260  141.3500   -5.3040 C.3   205  VAL205      0.0019
    117  CG2       20.9130  140.9640   -6.5740 C.3   205  VAL205      0.0019
    118  N         29.6250  146.1890   -3.6160 N.3   227  GLY227     -0.1210
    119  CA        30.7510  145.7920   -2.7970 C.3   227  GLY227      0.1956
    120  C         30.3530  145.1620   -1.4790 C.2   227  GLY227      0.2612
    121  O         29.1860  144.8450   -1.2390 O.2   227  GLY227     -0.2717
    122  N         31.3510  144.9630   -0.6310 N.am  228  ASP228     -0.1959
    123  CA        31.1420  144.4540    0.7100 C.3   228  ASP228      0.1840
    124  C         30.5360  145.5880    1.5060 C.2   228  ASP228      0.2622
    125  O         31.1160  146.6770    1.5650 O.2   228  ASP228     -0.2715
    126  CB        32.4940  144.0570    1.3010 C.3   228  ASP228      0.1450
    127  CG        32.3720  143.3520    2.6350 C.2   228  ASP228      0.3671
    128  OD1       31.2390  143.1730    3.1290 O.co2 228  ASP228     -0.2456
    129  OD2       33.4240  142.9740    3.1900 O.co2 228  ASP228     -0.2456
    130  N         29.3760  145.3710    2.1180 N.am  229  PHE229     -0.1960
    131  CA        28.7510  146.4860    2.8310 C.3   229  PHE229      0.1771
    132  C         29.5500  146.9840    4.0410 C.2   229  PHE229      0.2619
    133  O         29.3180  148.0990    4.5110 O.2   229  PHE229     -0.2715
    134  CB        27.2580  146.2610    3.1600 C.3   229  PHE229      0.0574
    135  CG        26.9650  145.0130    3.9550 C.ar  229  PHE229     -0.0200
    136  CD1       27.5550  144.7960    5.1870 C.ar  229  PHE229     -0.0042
    137  CD2       26.0420  144.0860    3.4860 C.ar  229  PHE229     -0.0042
    138  CE1       27.2660  143.6520    5.9120 C.ar  229  PHE229     -0.0003
    139  CE2       25.7450  142.9450    4.2120 C.ar  229  PHE229     -0.0003
    140  CZ        26.3620  142.7290    5.4250 C.ar  229  PHE229     -0.0000
    141  N         30.5020  146.1800    4.5220 N.am  230  PHE230     -0.1974
    142  CA        31.3790  146.6170    5.6130 C.3   230  PHE230      0.1639
    143  C         32.2010  147.8300    5.2120 C.2   230  PHE230      0.2290
    144  O         32.5640  148.6540    6.0480 O.2   230  PHE230     -0.2864
    145  CB        32.3110  145.4930    6.0680 C.3   230  PHE230      0.0560
    146  CG        31.7630  144.6880    7.1970 C.ar  230  PHE230     -0.0200
    147  CD1       31.9280  145.1090    8.5050 C.ar  230  PHE230     -0.0042
    148  CD2       31.0590  143.5260    6.9530 C.ar  230  PHE230     -0.0042
    149  CE1       31.4070  144.3800    9.5580 C.ar  230  PHE230     -0.0003
    150  CE2       30.5420  142.7840    7.9960 C.ar  230  PHE230     -0.0003
    151  CZ        30.7160  143.2130    9.3030 C.ar  230  PHE230     -0.0000
    152  N         16.9410  143.5910    5.6670 N.3   243  LYS243     -0.1231
    153  CA        15.8670  142.6200    5.5590 C.3   243  LYS243      0.1693
    154  C         16.3930  141.2440    5.1530 C.2   243  LYS243      0.2592
    155  O         17.0720  141.1070    4.1380 O.2   243  LYS243     -0.2718
    156  CB        14.8060  143.1050    4.5530 C.3   243  LYS243      0.0285
    157  CG        13.6400  142.1170    4.3450 C.3   243  LYS243      0.0035
    158  CD        12.4020  142.7860    3.7140 C.3   243  LYS243      0.0206
    159  CE        12.6080  143.0830    2.2390 C.3   243  LYS243      0.1093
    160  NZ        12.5950  141.8160    1.4310 N.3   243  LYS243     -0.1314
    161  N         16.0760  140.2380    5.9650 N.am  244  HIS244     -0.1962
    162  CA        16.4610  138.8570    5.6750 C.3   244  HIS244      0.1787
    163  C         17.9580  138.7760    5.4080 C.2   244  HIS244      0.2620
    164  O         18.4080  138.0840    4.4860 O.2   244  HIS244     -0.2715
    165  CB        15.6640  138.3140    4.4830 C.3   244  HIS244      0.0785
    166  CG        14.1930  138.1860    4.7440 C.ar  244  HIS244      0.0821
    167  ND1       13.6870  137.6840    5.9240 N.ar  244  HIS244     -0.2267
    168  CD2       13.1190  138.4810    3.9700 C.ar  244  HIS244      0.1154
    169  CE1       12.3670  137.6820    5.8700 C.ar  244  HIS244      0.1986
    170  NE2       11.9970  138.1550    4.6910 N.ar  244  HIS244     -0.2212
    171  N         18.7250  139.5050    6.2130 N.am  245  VAL245     -0.1977
    172  CA        20.1810  139.4500    6.1410 C.3   245  VAL245      0.1596
    173  C         20.7340  138.8490    7.4280 C.2   245  VAL245      0.2287
    174  O         21.5040  137.8810    7.3930 O.2   245  VAL245     -0.2864
    175  CB        20.8080  140.8490    5.8850 C.3   245  VAL245      0.0276
    176  CG1       22.3250  140.8240    6.1080 C.3   245  VAL245      0.0022
    177  CG2       20.4820  141.3320    4.4730 C.3   245  VAL245      0.0022
    178  N         20.9650  135.1360    8.2890 N.3   248  ASP248     -0.1225
    179  CA        21.9690  134.3480    7.5680 C.3   248  ASP248      0.1805
    180  C         23.2140  134.1020    8.4070 C.2   248  ASP248      0.2597
    181  O         24.0680  133.2900    8.0350 O.2   248  ASP248     -0.2718
    182  CB        22.4180  135.0630    6.2870 C.3   248  ASP248      0.1424
    183  CG        21.3260  135.1450    5.2420 C.2   248  ASP248      0.3668
    184  OD1       20.3410  134.3820    5.3310 O.co2 248  ASP248     -0.2456
    185  OD2       21.4670  135.9730    4.3230 O.co2 248  ASP248     -0.2456
    186  N         23.3280  134.8020    9.5320 N.am  249  TRP249     -0.1976
    187  CA        24.6040  134.8690   10.2420 C.3   249  TRP249      0.1640
    188  C         24.4920  134.3750   11.6710 C.2   249  TRP249      0.2290
    189  O         23.4300  134.4900   12.2880 O.2   249  TRP249     -0.2864
    190  CB        25.1480  136.3070   10.2000 C.3   249  TRP249      0.0576
    191  CG        25.3410  136.8010    8.7960 C.ar  249  TRP249      0.0006
    192  CD1       24.4740  137.5530    8.0690 C.ar  249  TRP249      0.0946
    193  CD2       26.4620  136.5400    7.9410 C.ar  249  TRP249      0.0152
    194  NE1       24.9850  137.7880    6.8150 N.ar  249  TRP249     -0.2442
    195  CE2       26.2020  137.1710    6.7090 C.ar  249  TRP249      0.0810
    196  CE3       27.6560  135.8260    8.0960 C.ar  249  TRP249      0.0012
    197  CZ2       27.0990  137.1250    5.6370 C.ar  249  TRP249      0.0191
    198  CZ3       28.5460  135.7810    7.0330 C.ar  249  TRP249      0.0001
    199  CH2       28.2610  136.4260    5.8190 C.ar  249  TRP249      0.0015
@<TRIPOS>BOND
     1    82    80    1
     2    81    80    1
     3    80    79    2
     4    79    78    1
     5    78    77    1
     6   111   112    1
     7   114   113    2
     8   112   113    1
     9   112   115    1
    10    77    76    1
    11    33    31   am
    12    30    31    1
    13    30    27    1
    14    75    74    2
    15    76    73    1
    16    28    27    1
    17    28    29    2
    18    15    16    1
    19    31    32    2
    20   115   117    1
    21   115   116    1
    22    27    26    1
    23    26    17   am
    24    73    74    1
    25    73    72    1
    26   103   102    2
    27    17    16    1
    28    17    18    2
    29    16    19    1
    30   102   101    1
    31    36    35    1
    32    36    37    2
    33    35    34    1
    34    72    70   am
    35    19    20    1
    36    71    70    2
    37    70    69    1
    38   101   104    1
    39   101   100    1
    40   104   105    1
    41   118   119    1
    42    20    22   ar
    43    20    21   ar
    44    22    24   ar
    45    94    93    2
    46   110   108    1
    47    95    96    1
    48    95    92    1
    49   100    93   am
    50    93    92    1
    51    69    68    1
    52   108   109    1
    53   108   107    2
    54     4     3    2
    55   119   120    1
    56   107   106    1
    57    96    97    1
    58    21    23   ar
    59    24    25   ar
    60    98    97   ar
    61    92    91    1
    62   105   106    1
    63    97    99   ar
    64    67    66    2
    65    83    84    1
    66    40    41    2
    67    40    39    1
    68    68    66   am
    69    42    39    1
    70    42    43    1
    71     3     2    1
    72    38    39    1
    73    66    65    1
    74   120   121    2
    75   120   122   am
    76    23    25   ar
    77    85    84    1
    78    85    86    2
    79    84    87    1
    80     2     1    1
    81     2     5    1
    82   122   123    1
    83    65    64    1
    84    11    13   ar
    85    11     8   ar
    86    13    14   ar
    87    64    62   am
    88    87    88    1
    89     5     6    1
    90   123   126    1
    91   123   124    1
    92    62    63    2
    93    62    61    1
    94    51    49   ar
    95     8     6   ar
    96     8    10   ar
    97    14    12   ar
    98    47    46    2
    99    48    49    1
   100    48    45    1
   101   126   127    1
   102    61    60    1
   103     6     7   ar
   104   160   159    1
   105   124   125    2
   106   124   130   am
   107    88    89    1
   108    88    90    1
   109    49    50   ar
   110    60    54   am
   111   130   131    1
   112   159   158    1
   113    44    45    1
   114    46    45    1
   115    46    52   am
   116    10    12   ar
   117    10     9   ar
   118   127   128   ar
   119   127   129   ar
   120     7     9   ar
   121   131   134    1
   122   131   132    1
   123    54    53    1
   124    54    55    2
   125   134   135    1
   126    52    53    1
   127   137   135   ar
   128   137   139   ar
   129    53    56    1
   130   158   157    1
   131   135   136   ar
   132   168   170   ar
   133   168   166   ar
   134   132   133    2
   135   132   141   am
   136   155   154    2
   137   139   140   ar
   138   185   183   ar
   139   157   156    1
   140   177   175    1
   141   165   166    1
   142   165   162    1
   143   164   163    2
   144   141   142    1
   145   156   153    1
   146   170   169   ar
   147   166   167   ar
   148    56    58    1
   149    56    57    1
   150   154   153    1
   151   154   161   am
   152   136   138   ar
   153   143   142    1
   154   143   144    2
   155   183   184   ar
   156   183   182    1
   157   163   162    1
   158   163   171   am
   159   140   138   ar
   160   153   152    1
   161   142   145    1
   162    57    59    1
   163   197   199   ar
   164   197   195   ar
   165   162   161    1
   166   199   198   ar
   167   169   167   ar
   168   175   176    1
   169   175   172    1
   170   145   146    1
   171   172   171    1
   172   172   173    1
   173   182   179    1
   174   195   194   ar
   175   195   193   ar
   176   194   192   ar
   177   148   146   ar
   178   148   150   ar
   179   198   196   ar
   180   146   147   ar
   181   174   173    2
   182   179   178    1
   183   179   180    1
   184   193   196   ar
   185   193   191   ar
   186   150   151   ar
   187   181   180    2
   188   192   191   ar
   189   180   186   am
   190   147   149   ar
   191   191   190    1
   192   151   149   ar
   193   186   187    1
   194   190   187    1
   195   187   188    1
   196   188   189    2
