@<TRIPOS>MOLECULE
tmp/3gx0A00.pdb
 183 180 0 0 0
SMALL
GASTEIGER

@<TRIPOS>ATOM
      1  N         23.7500   37.5660   41.5480 N.3     9  THR9       -0.1204
      2  CA        24.9140   37.3060   42.3550 C.3     9  THR9        0.1979
      3  C         25.0370   35.7990   42.3310 C.2     9  THR9        0.2460
      4  O         24.1100   35.1350   41.8700 O.2     9  THR9       -0.2732
      5  CB        24.6960   37.7400   43.8370 C.3     9  THR9        0.1783
      6  OG1       23.5230   37.0830   44.3550 O.3     9  THR9       -0.2211
      7  CG2       24.5610   39.2850   43.9780 C.3     9  THR9        0.0376
      8  N         26.1790   35.2600   42.8080 N.am   10  PRO10      -0.2717
      9  CA        26.3090   33.8200   42.9300 C.3    10  PRO10       0.1535
     10  C         25.2230   33.2110   43.8210 C.2    10  PRO10       0.2598
     11  O         24.6580   32.1800   43.4670 O.2    10  PRO10      -0.2715
     12  CB        27.6950   33.6310   43.5460 C.3    10  PRO10       0.0310
     13  CG        28.4370   34.9000   43.2230 C.3    10  PRO10       0.0237
     14  CD        27.4170   35.9730   43.1980 C.3    10  PRO10       0.0939
     15  N         24.9330   33.8570   44.9400 N.am   11  ASN11      -0.1973
     16  CA        24.0350   33.3170   45.8940 C.3    11  ASN11       0.1688
     17  C         22.5960   33.3150   45.4140 C.2    11  ASN11       0.2292
     18  O         21.8370   32.3830   45.7390 O.2    11  ASN11      -0.2864
     19  CB        24.1680   34.0530   47.2080 C.3    11  ASN11       0.1181
     20  CG        25.4170   33.6610   47.9630 C.2    11  ASN11       0.2629
     21  OD1       25.8200   32.4750   48.0030 O.2    11  ASN11      -0.2716
     22  ND2       26.0580   34.6500   48.5630 N.am   11  ASN11      -0.0877
     23  N         22.1310   30.4880   42.7910 N.3    14  LYS14      -0.1245
     24  CA        21.9140   29.1390   43.3100 C.3    14  LYS14       0.1561
     25  C         20.4600   28.7680   43.2720 C.2    14  LYS14       0.2260
     26  O         20.1050   27.6200   42.9430 O.2    14  LYS14      -0.2867
     27  CB        22.3900   29.0450   44.7330 C.3    14  LYS14       0.0271
     28  CG        23.9060   29.0790   44.9100 C.3    14  LYS14       0.0035
     29  CD        24.1540   29.1480   46.4790 C.3    14  LYS14       0.0206
     30  CE        25.5850   29.6240   46.8440 C.3    14  LYS14       0.1093
     31  NZ        25.7240   29.7030   48.3090 N.3    14  LYS14      -0.1314
     32  N         20.4270   46.1810   45.9700 N.3    33  LEU33      -0.1245
     33  CA        21.3480   46.0730   47.0850 C.3    33  LEU33       0.1561
     34  C         22.2490   47.3000   47.2260 C.2    33  LEU33       0.2260
     35  O         22.6970   47.6210   48.3330 O.2    33  LEU33      -0.2867
     36  CB        22.1680   44.7610   46.9940 C.3    33  LEU33       0.0270
     37  CG        21.4590   43.3880   46.9810 C.3    33  LEU33       0.0019
     38  CD1       22.4590   42.2180   46.8260 C.3    33  LEU33       0.0001
     39  CD2       20.5670   43.1730   48.2030 C.3    33  LEU33       0.0001
     40  N         17.6540   45.7570   50.9160 N.3    38  GLN38      -0.1231
     41  CA        17.7330   44.6440   51.8610 C.3    38  GLN38       0.1698
     42  C         17.4610   45.0800   53.2880 C.2    38  GLN38       0.2592
     43  O         17.3700   44.2420   54.2020 O.2    38  GLN38      -0.2718
     44  CB        19.0940   43.9340   51.7840 C.3    38  GLN38       0.0381
     45  CG        20.3190   44.7730   52.2200 C.3    38  GLN38       0.0905
     46  CD        20.9110   45.5750   51.0470 C.2    38  GLN38       0.2608
     47  OE1       20.1790   46.1380   50.2210 O.2    38  GLN38      -0.2717
     48  NE2       22.2390   45.5920   50.9540 N.am   38  GLN38      -0.0878
     49  N         17.3470   46.3980   53.4750 N.am   39  PHE39      -0.1976
     50  CA        16.9720   46.9610   54.7710 C.3    39  PHE39       0.1639
     51  C         15.5070   47.4580   54.8370 C.2    39  PHE39       0.2290
     52  O         15.0700   47.9200   55.8890 O.2    39  PHE39      -0.2864
     53  CB        17.9620   48.0560   55.1870 C.3    39  PHE39       0.0560
     54  CG        19.4020   47.6150   55.1490 C.ar   39  PHE39      -0.0200
     55  CD1       19.9070   46.7480   56.1230 C.ar   39  PHE39      -0.0042
     56  CD2       20.2550   48.0680   54.1360 C.ar   39  PHE39      -0.0042
     57  CE1       21.2470   46.3360   56.0810 C.ar   39  PHE39      -0.0003
     58  CE2       21.6000   47.6550   54.0880 C.ar   39  PHE39      -0.0003
     59  CZ        22.0910   46.7900   55.0580 C.ar   39  PHE39      -0.0000
     60  N         18.3490   38.6890   58.3370 N.3    49  ASN49      -0.1225
     61  CA        19.8020   38.8440   58.2120 C.3    49  ASN49       0.1785
     62  C         20.2130   39.8810   57.1580 C.2    49  ASN49       0.2597
     63  O         21.3870   39.9900   56.8340 O.2    49  ASN49      -0.2718
     64  CB        20.4210   37.4980   57.8590 C.3    49  ASN49       0.1169
     65  CG        21.9330   37.5240   57.8840 C.2    49  ASN49       0.2627
     66  OD1       22.5410   38.0810   58.8160 O.2    49  ASN49      -0.2716
     67  ND2       22.5570   36.9300   56.8630 N.am   49  ASN49      -0.0877
     68  N         19.2360   40.6230   56.6290 N.am   50  ASN50      -0.1960
     69  CA        19.4290   41.6000   55.5480 C.3    50  ASN50       0.1819
     70  C         20.1190   41.0930   54.2710 C.2    50  ASN50       0.2621
     71  O         20.8830   41.8390   53.6460 O.2    50  ASN50      -0.2715
     72  CB        20.0220   42.9570   56.0540 C.3    50  ASN50       0.1195
     73  CG        21.4970   42.8570   56.5940 C.2    50  ASN50       0.2630
     74  OD1       21.7350   42.9600   57.8320 O.2    50  ASN50      -0.2716
     75  ND2       22.4820   42.6870   55.6680 N.am   50  ASN50      -0.0877
     76  N         19.8480   39.8440   53.8740 N.am   51  LYS51      -0.1963
     77  CA        20.4340   39.3070   52.6120 C.3    51  LYS51       0.1728
     78  C         19.4930   38.6060   51.6550 C.2    51  LYS51       0.2616
     79  O         18.4780   38.1050   52.0310 O.2    51  LYS51      -0.2715
     80  CB        21.6700   38.4130   52.8800 C.3    51  LYS51       0.0311
     81  CG        22.7590   39.1920   53.5480 C.3    51  LYS51       0.0038
     82  CD        23.9990   38.4190   53.8760 C.3    51  LYS51       0.0206
     83  CE        24.8640   39.3640   54.6980 C.3    51  LYS51       0.1093
     84  NZ        26.1380   38.7300   55.0450 N.3    51  LYS51      -0.1314
     85  N         19.8700   38.5880   50.3890 N.am   52  ILE52      -0.1964
     86  CA        19.2220   37.7360   49.4200 C.3    52  ILE52       0.1712
     87  C         20.1680   36.5640   49.1910 C.2    52  ILE52       0.2458
     88  O         21.3770   36.6740   49.4490 O.2    52  ILE52      -0.2730
     89  CB        18.8690   38.4950   48.0920 C.3    52  ILE52       0.0289
     90  CG1       20.1300   38.9930   47.3500 C.3    52  ILE52       0.0022
     91  CG2       17.8790   39.5910   48.3710 C.3    52  ILE52       0.0023
     92  CD1       20.7950   37.9160   46.4080 C.3    52  ILE52       0.0001
     93  N         19.6450   35.4360   48.7140 N.am   53  PRO53      -0.2727
     94  CA        18.2450   35.1800   48.4090 C.3    53  PRO53       0.1402
     95  C         17.3530   34.9370   49.6320 C.2    53  PRO53       0.2269
     96  O         17.8270   34.5710   50.7440 O.2    53  PRO53      -0.2865
     97  CB        18.3040   33.9310   47.5420 C.3    53  PRO53       0.0296
     98  CG        19.5060   33.2100   48.0610 C.3    53  PRO53       0.0237
     99  CD        20.5050   34.2920   48.3690 C.3    53  PRO53       0.0939
    100  N         18.6810   32.3450   53.5510 N.3    71  GLU71      -0.1231
    101  CA        19.8670   31.4700   53.4830 C.3    71  GLU71       0.1699
    102  C         19.7850   30.4860   52.3380 C.2    71  GLU71       0.2593
    103  O         18.9820   29.5180   52.3900 O.2    71  GLU71      -0.2718
    104  CB        20.2410   30.7230   54.8100 C.3    71  GLU71       0.0402
    105  CG        20.8030   31.6050   55.9150 C.3    71  GLU71       0.1161
    106  CD        22.2220   32.1660   55.5860 C.2    71  GLU71       0.3649
    107  OE1       23.0180   31.4590   54.8720 O.co2  71  GLU71      -0.2457
    108  OE2       22.5220   33.3100   56.0340 O.co2  71  GLU71      -0.2457
    109  N         20.6500   30.7020   51.3390 N.am   72  SER72      -0.1938
    110  CA        20.6340   29.9060   50.1100 C.3    72  SER72       0.2055
    111  C         20.6670   28.3950   50.3950 C.2    72  SER72       0.2643
    112  O         19.9070   27.6100   49.7830 O.2    72  SER72      -0.2714
    113  CB        21.7390   30.3690   49.1310 C.3    72  SER72       0.2130
    114  OG        23.0260   30.2950   49.7300 O.3    72  SER72      -0.2179
    115  N         21.4690   28.0050   51.3930 N.am   73  GLY73      -0.1954
    116  CA        21.6220   26.5990   51.7700 C.3    73  GLY73       0.1869
    117  C         20.3340   26.0130   52.3200 C.2    73  GLY73       0.2309
    118  O         20.0210   24.8880   52.0290 O.2    73  GLY73      -0.2863
    119  N         28.7710   26.5370   51.9160 N.3   105  VAL105     -0.1245
    120  CA        28.1100   27.5800   52.6820 C.3   105  VAL105      0.1561
    121  C         29.0600   28.1440   53.7410 C.2   105  VAL105      0.2260
    122  O         29.0530   29.3410   53.9710 O.2   105  VAL105     -0.2867
    123  CB        26.8330   27.0490   53.3900 C.3   105  VAL105      0.0252
    124  CG1       26.3620   28.0380   54.4790 C.3   105  VAL105      0.0019
    125  CG2       25.6830   26.7100   52.3680 C.3   105  VAL105      0.0019
    126  N         31.8760   29.9760   49.8400 N.3   109  GLY109     -0.1210
    127  CA        31.1780   31.2030   49.5610 C.3   109  GLY109      0.1940
    128  C         31.7090   32.3250   50.4020 C.2   109  GLY109      0.2453
    129  O         31.9300   33.4000   49.8510 O.2   109  GLY109     -0.2732
    130  N         31.8090   32.1180   51.7580 N.am  110  PRO110     -0.2728
    131  CA        32.4200   33.1520   52.6180 C.3   110  PRO110      0.1401
    132  C         33.8390   33.4920   52.1620 C.2   110  PRO110      0.2269
    133  O         34.1630   34.6570   52.0460 O.2   110  PRO110     -0.2865
    134  CB        32.3760   32.5460   54.0520 C.3   110  PRO110      0.0296
    135  CG        31.3320   31.4870   53.9740 C.3   110  PRO110      0.0237
    136  CD        31.2670   30.9890   52.5490 C.3   110  PRO110      0.0939
    137  N         33.9910   35.2770   48.7110 N.3   113  GLY113     -0.1210
    138  CA        33.3810   36.5750   48.9420 C.3   113  GLY113      0.1956
    139  C         34.3560   37.5800   49.5310 C.2   113  GLY113      0.2611
    140  O         34.3430   38.7480   49.1240 O.2   113  GLY113     -0.2717
    141  N         35.1700   37.1430   50.5000 N.am  114  GLN114     -0.1979
    142  CA        36.2280   37.9870   51.0990 C.3   114  GLN114      0.1601
    143  C         37.2550   38.3300   50.0390 C.2   114  GLN114      0.2287
    144  O         37.7130   39.4580   49.9650 O.2   114  GLN114     -0.2864
    145  CB        36.9480   37.3350   52.2930 C.3   114  GLN114      0.0394
    146  CG        36.0910   36.9790   53.5230 C.3   114  GLN114      0.0908
    147  CD        34.8220   37.8080   53.6280 C.2   114  GLN114      0.2608
    148  OE1       33.7450   37.3780   53.1760 O.2   114  GLN114     -0.2717
    149  NE2       34.9400   39.0070   54.1990 N.am  114  GLN114     -0.0878
    150  N         36.5520   38.4290   46.6880 N.3   116  HIS116     -0.1226
    151  CA        35.9180   39.4530   45.8260 C.3   116  HIS116      0.1752
    152  C         35.9730   40.8360   46.5360 C.2   116  HIS116      0.2596
    153  O         36.1440   41.8550   45.8760 O.2   116  HIS116     -0.2718
    154  CB        34.4390   39.1620   45.4680 C.3   116  HIS116      0.0759
    155  CG        34.1870   37.9180   44.6400 C.ar  116  HIS116      0.0818
    156  ND1       32.9040   37.4720   44.3540 N.ar  116  HIS116     -0.2268
    157  CD2       35.0260   37.0290   44.0470 C.ar  116  HIS116      0.1154
    158  CE1       32.9680   36.3730   43.6190 C.ar  116  HIS116      0.1986
    159  NE2       34.2410   36.0810   43.4200 N.ar  116  HIS116     -0.2212
    160  N         35.8240   40.8630   47.8710 N.am  117  HIS117     -0.1975
    161  CA        35.8070   42.1390   48.5880 C.3   117  HIS117      0.1656
    162  C         37.1520   42.8830   48.5600 C.2   117  HIS117      0.2291
    163  O         37.1900   44.0660   48.2270 O.2   117  HIS117     -0.2864
    164  CB        35.3210   42.0320   50.0300 C.3   117  HIS117      0.0771
    165  CG        35.4810   43.3180   50.7910 C.ar  117  HIS117      0.0820
    166  ND1       34.6500   44.4070   50.6020 N.ar  117  HIS117     -0.2267
    167  CD2       36.4020   43.7080   51.7020 C.ar  117  HIS117      0.1154
    168  CE1       35.0370   45.3980   51.3840 C.ar  117  HIS117      0.1986
    169  NE2       36.0990   45.0030   52.0570 N.ar  117  HIS117     -0.2212
    170  N         29.4520   30.0450   42.2960 N.3   169  TRP169     -0.1241
    171  CA        30.6970   30.6110   42.8490 C.3   169  TRP169      0.1605
    172  C         31.8750   30.2670   41.9560 C.2   169  TRP169      0.2264
    173  O         32.7790   31.0740   41.7880 O.2   169  TRP169     -0.2867
    174  CB        30.9720   30.1730   44.3030 C.3   169  TRP169      0.0550
    175  CG        30.1720   30.9950   45.3230 C.ar  169  TRP169      0.0003
    176  CD1       29.0300   30.6140   45.9310 C.ar  169  TRP169      0.0946
    177  CD2       30.4400   32.3330   45.7990 C.ar  169  TRP169      0.0152
    178  NE1       28.5730   31.6080   46.7600 N.ar  169  TRP169     -0.2442
    179  CE2       29.4110   32.6770   46.6810 C.ar  169  TRP169      0.0810
    180  CE3       31.4480   33.2690   45.5580 C.ar  169  TRP169      0.0012
    181  CZ2       29.3490   33.9050   47.3240 C.ar  169  TRP169      0.0191
    182  CZ3       31.3830   34.5080   46.2310 C.ar  169  TRP169      0.0001
    183  CH2       30.3370   34.8000   47.0840 C.ar  169  TRP169      0.0015
@<TRIPOS>BOND
     1     1     2    1
     2   173   172    2
     3     4     3    2
     4   172   171    1
     5   170   171    1
     6     3     2    1
     7     3     8   am
     8     2     5    1
     9    23    24    1
    10     8     9    1
    11     8    14    1
    12   171   174    1
    13     9    12    1
    14     9    10    1
    15    26    25    2
    16    14    13    1
    17    13    12    1
    18    25    24    1
    19    24    27    1
    20   159   158   ar
    21   159   157   ar
    22    11    10    2
    23   158   156   ar
    24    10    15   am
    25     5     7    1
    26     5     6    1
    27   157   155   ar
    28   174   175    1
    29   156   155   ar
    30   155   154    1
    31    27    28    1
    32    28    29    1
    33    15    16    1
    34   175   177   ar
    35   175   176   ar
    36    17    18    2
    37    17    16    1
    38   154   151    1
    39   180   177   ar
    40   180   182   ar
    41   177   179   ar
    42   151   152    1
    43   151   150    1
    44   153   152    2
    45    16    19    1
    46   176   178   ar
    47    32    33    1
    48   182   183   ar
    49    92    90    1
    50    29    30    1
    51   152   160   am
    52   179   178   ar
    53   179   181   ar
    54    38    37    1
    55    30    31    1
    56    37    36    1
    57    37    39    1
    58    36    33    1
    59   183   181   ar
    60    33    34    1
    61    19    20    1
    62    34    35    2
    63    90    89    1
    64    97    98    1
    65    97    94    1
    66   160   161    1
    67    20    21    2
    68    20    22   am
    69    98    99    1
    70    89    91    1
    71    89    86    1
    72   163   162    2
    73    99    93    1
    74    94    93    1
    75    94    95    1
    76   162   161    1
    77   161   164    1
    78   137   138    1
    79    93    87   am
    80   138   139    1
    81   140   139    2
    82   113   114    1
    83   113   110    1
    84    87    86    1
    85    87    88    2
    86    86    85    1
    87   139   141   am
    88   127   126    1
    89   127   128    1
    90    95    96    2
    91   112   111    2
    92   129   128    2
    93   144   143    2
    94   164   165    1
    95   143   142    1
    96   110   111    1
    97   110   109    1
    98    47    46    2
    99    85    78   am
   100   111   115   am
   101   128   130   am
   102   141   142    1
   103   166   165   ar
   104   166   168   ar
   105   165   167   ar
   106    40    41    1
   107    48    46   am
   108    46    45    1
   109   142   145    1
   110   109   102   am
   111   168   169   ar
   112   115   116    1
   113    78    79    2
   114    78    77    1
   115   167   169   ar
   116   130   136    1
   117   130   131    1
   118   116   117    1
   119    44    41    1
   120    44    45    1
   121    41    42    1
   122   119   120    1
   123   118   117    2
   124   133   132    2
   125   132   131    1
   126   145   146    1
   127   102   103    2
   128   102   101    1
   129   125   123    1
   130   136   135    1
   131    77    80    1
   132    77    76    1
   133   131   134    1
   134   120   123    1
   135   120   121    1
   136    80    81    1
   137   148   147    2
   138    42    49   am
   139    42    43    2
   140   123   124    1
   141    49    50    1
   142   101   100    1
   143   101   104    1
   144   146   147    1
   145    81    82    1
   146   147   149   am
   147    71    70    2
   148   121   122    2
   149    76    70   am
   150    82    83    1
   151   135   134    1
   152    58    56   ar
   153    58    59   ar
   154    56    54   ar
   155    70    69    1
   156    83    84    1
   157    50    51    1
   158    50    53    1
   159   104   105    1
   160    51    52    2
   161   107   106   ar
   162    59    57   ar
   163    54    53    1
   164    54    55   ar
   165    69    72    1
   166    69    68    1
   167   106   105    1
   168   106   108   ar
   169    75    73   am
   170    72    73    1
   171    57    55   ar
   172    73    74    2
   173    68    62   am
   174    63    62    2
   175    67    65   am
   176    62    61    1
   177    64    65    1
   178    64    61    1
   179    65    66    2
   180    61    60    1
