@<TRIPOS>MOLECULE
tmp/3gx9A01.pdb
 99 96 0 0 0
SMALL
GASTEIGER

@<TRIPOS>ATOM
      1  N         10.5100   55.5310   24.2590 N.3    25  THR25      -0.1218
      2  CA         9.9130   56.3260   23.2090 C.3    25  THR25       0.1862
      3  C          8.3870   56.2770   23.4010 C.2    25  THR25       0.2287
      4  O          7.8350   55.1980   23.5130 O.2    25  THR25      -0.2866
      5  CB        10.3430   55.7030   21.8680 C.3    25  THR25       0.1770
      6  OG1       11.6890   56.1290   21.5650 O.3    25  THR25      -0.2211
      7  CG2        9.4070   56.0960   20.7080 C.3    25  THR25       0.0375
      8  N          6.4500   59.1160   21.7690 N.3    27  SER27      -0.1217
      9  CA         5.9550   59.9320   20.6600 C.3    27  SER27       0.1889
     10  C          4.7810   60.8400   21.0540 C.2    27  SER27       0.2288
     11  O          3.7140   60.7610   20.4360 O.2    27  SER27      -0.2866
     12  CB         5.5220   59.0530   19.4760 C.3    27  SER27       0.2089
     13  OG         6.4490   57.9910   19.2900 O.3    27  SER27      -0.2183
     14  N         11.6310   58.5000   13.5450 N.3    65  TYR65      -0.1227
     15  CA        10.2590   58.4230   14.0990 C.3    65  TYR65       0.1736
     16  C          9.6920   59.8070   14.4130 C.2    65  TYR65       0.2595
     17  O         10.2650   60.5490   15.2350 O.2    65  TYR65      -0.2718
     18  CB        10.2280   57.5340   15.3630 C.3    65  TYR65       0.0548
     19  CG        10.7170   56.1320   15.0650 C.ar   65  TYR65      -0.0200
     20  CD1        9.8200   55.1050   14.7940 C.ar   65  TYR65      -0.0009
     21  CD2       12.0780   55.8570   14.9890 C.ar   65  TYR65      -0.0009
     22  CE1       10.2540   53.8380   14.4740 C.ar   65  TYR65       0.0417
     23  CE2       12.5320   54.5900   14.6740 C.ar   65  TYR65       0.0417
     24  CZ        11.6310   53.5830   14.4110 C.ar   65  TYR65       0.1957
     25  OH        12.1140   52.3190   14.1240 O.3    65  TYR65      -0.2866
     26  N          8.5640   60.1610   13.7800 N.am   66  VAL66      -0.1966
     27  CA         7.9780   61.4970   13.9810 C.3    66  VAL66       0.1727
     28  C          7.2760   61.5400   15.3390 C.2    66  VAL66       0.2616
     29  O          6.8730   60.4890   15.8590 O.2    66  VAL66      -0.2715
     30  CB         6.9700   61.9200   12.8180 C.3    66  VAL66       0.0290
     31  CG1        7.7280   62.0520   11.4480 C.3    66  VAL66       0.0023
     32  CG2        5.7800   60.9360   12.7060 C.3    66  VAL66       0.0023
     33  N          7.1200   62.7590   15.8620 N.am   67  TYR67      -0.1974
     34  CA         6.5310   63.0510   17.1620 C.3    67  TYR67       0.1639
     35  C          7.4690   62.7150   18.3710 C.2    67  TYR67       0.2290
     36  O          7.0600   62.7290   19.5230 O.2    67  TYR67      -0.2864
     37  CB         5.0970   62.4670   17.2820 C.3    67  TYR67       0.0560
     38  CG         4.2410   62.6240   16.0250 C.ar   67  TYR67      -0.0198
     39  CD1        4.4480   63.6820   15.1300 C.ar   67  TYR67      -0.0009
     40  CD2        3.2260   61.7280   15.7370 C.ar   67  TYR67      -0.0009
     41  CE1        3.6940   63.8050   13.9870 C.ar   67  TYR67       0.0417
     42  CE2        2.4560   61.8490   14.5810 C.ar   67  TYR67       0.0417
     43  CZ         2.7050   62.8860   13.7220 C.ar   67  TYR67       0.1957
     44  OH         1.9510   63.0150   12.5870 O.3    67  TYR67      -0.2866
     45  N         10.6410   48.8890    9.7550 N.3   128  GLU128     -0.1245
     46  CA         9.6860   49.9820    9.5810 C.3   128  GLU128      0.1567
     47  C         10.0660   51.1900   10.4860 C.2   128  GLU128      0.2260
     48  O         10.4710   51.0240   11.6630 O.2   128  GLU128     -0.2867
     49  CB         8.2470   49.4950    9.8510 C.3   128  GLU128      0.0388
     50  CG         7.8040   48.3450    8.9330 C.3   128  GLU128      0.1160
     51  CD         6.3060   48.3500    8.6330 C.2   128  GLU128      0.3649
     52  OE1        5.5470   47.9110    9.5160 O.co2 128  GLU128     -0.2457
     53  OE2        5.9010   48.7710    7.5100 O.co2 128  GLU128     -0.2457
     54  N          8.4840   55.3070   11.5800 N.3   130  PHE130     -0.1241
     55  CA         7.1800   55.8990   11.7420 C.3   130  PHE130      0.1605
     56  C          7.1580   57.2810   11.1130 C.2   130  PHE130      0.2264
     57  O          7.9360   58.1750   11.4870 O.2   130  PHE130     -0.2867
     58  CB         6.7350   55.9210   13.2200 C.3   130  PHE130      0.0534
     59  CG         5.2520   56.2490   13.4090 C.ar  130  PHE130     -0.0203
     60  CD1        4.2730   55.2430   13.3260 C.ar  130  PHE130     -0.0042
     61  CD2        4.8460   57.5330   13.6540 C.ar  130  PHE130     -0.0042
     62  CE1        2.9240   55.5280   13.4740 C.ar  130  PHE130     -0.0003
     63  CE2        3.4880   57.8290   13.8080 C.ar  130  PHE130     -0.0003
     64  CZ         2.5320   56.8200   13.7070 C.ar  130  PHE130     -0.0000
     65  N          3.5110   53.4720   10.3380 N.3   140  LEU140     -0.1245
     66  CA         4.6630   52.6730   10.0250 C.3   140  LEU140      0.1561
     67  C          4.8400   52.5470    8.4980 C.2   140  LEU140      0.2260
     68  O          3.8430   52.4900    7.7380 O.2   140  LEU140     -0.2867
     69  CB         4.5320   51.2870   10.6410 C.3   140  LEU140      0.0270
     70  CG         4.4270   51.1510   12.1710 C.3   140  LEU140      0.0019
     71  CD1        3.7800   49.7530   12.4950 C.3   140  LEU140      0.0001
     72  CD2        5.7510   51.3630   12.8910 C.3   140  LEU140      0.0001
     73  N         15.6590   44.9580   13.8000 N.3   239  PHE239     -0.1241
     74  CA        15.6760   45.8940   12.6750 C.3   239  PHE239      0.1605
     75  C         16.6690   45.4790   11.5960 C.2   239  PHE239      0.2264
     76  O         17.3640   46.3260   10.9910 O.2   239  PHE239     -0.2867
     77  CB        15.9720   47.3280   13.1690 C.3   239  PHE239      0.0534
     78  CG        14.9330   47.8600   14.1430 C.ar  239  PHE239     -0.0203
     79  CD1       13.7650   48.4390   13.6800 C.ar  239  PHE239     -0.0042
     80  CD2       15.1240   47.7600   15.5230 C.ar  239  PHE239     -0.0042
     81  CE1       12.7960   48.9340   14.5930 C.ar  239  PHE239     -0.0003
     82  CE2       14.1770   48.2380   16.4300 C.ar  239  PHE239     -0.0003
     83  CZ        13.0100   48.8370   15.9590 C.ar  239  PHE239     -0.0000
     84  N          2.3560   54.6230   22.0660 N.3   344  TYR344     -0.1227
     85  CA         2.8690   55.6580   21.1440 C.3   344  TYR344      0.1736
     86  C          1.8500   56.6690   20.6440 C.2   344  TYR344      0.2596
     87  O          0.7320   56.3060   20.3100 O.2   344  TYR344     -0.2718
     88  CB         3.5000   55.0270   19.9140 C.3   344  TYR344      0.0548
     89  CG         4.4060   53.8710   20.2250 C.ar  344  TYR344     -0.0200
     90  CD1        5.6440   54.0600   20.8480 C.ar  344  TYR344     -0.0009
     91  CD2        4.0270   52.5950   19.9060 C.ar  344  TYR344     -0.0009
     92  CE1        6.4840   52.9600   21.1420 C.ar  344  TYR344      0.0417
     93  CE2        4.8410   51.5080   20.1840 C.ar  344  TYR344      0.0417
     94  CZ         6.0580   51.6920   20.8020 C.ar  344  TYR344      0.1957
     95  OH         6.8080   50.5750   21.0670 O.3   344  TYR344     -0.2866
     96  N          2.2410   57.9330   20.5640 N.am  345  GLY345     -0.1957
     97  CA         1.3620   58.9570   20.0540 C.3   345  GLY345      0.1869
     98  C          0.2250   59.3210   20.9870 C.2   345  GLY345      0.2309
     99  O          0.0540   58.7380   22.0900 O.2   345  GLY345     -0.2863
@<TRIPOS>BOND
     1    53    51   ar
     2    68    67    2
     3    67    66    1
     4    51    50    1
     5    51    52   ar
     6    50    49    1
     7    46    45    1
     8    46    49    1
     9    46    47    1
    10    66    65    1
    11    66    69    1
    12    47    48    2
    13    69    70    1
    14    76    75    2
    15    56    57    2
    16    56    55    1
    17    31    30    1
    18    54    55    1
    19    75    74    1
    20    55    58    1
    21    70    71    1
    22    70    72    1
    23    44    43    1
    24    74    77    1
    25    74    73    1
    26    32    30    1
    27    30    27    1
    28    77    78    1
    29    58    59    1
    30    60    59   ar
    31    60    62   ar
    32    59    61   ar
    33    62    64   ar
    34    14    15    1
    35    61    63   ar
    36    79    78   ar
    37    79    81   ar
    38    64    63   ar
    39    43    41   ar
    40    43    42   ar
    41    26    27    1
    42    26    16   am
    43    27    28    1
    44    41    39   ar
    45    15    16    1
    46    15    18    1
    47    25    24    1
    48    78    80   ar
    49    24    22   ar
    50    24    23   ar
    51    16    17    2
    52    22    20   ar
    53    42    40   ar
    54    81    83   ar
    55    23    21   ar
    56    20    19   ar
    57    21    19   ar
    58    19    18    1
    59    39    38   ar
    60    28    29    2
    61    28    33   am
    62    80    82   ar
    63    40    38   ar
    64    33    34    1
    65    83    82   ar
    66    38    37    1
    67    34    37    1
    68    34    35    1
    69    35    36    2
    70    13    12    1
    71    12     9    1
    72    91    93   ar
    73    91    89   ar
    74    88    89    1
    75    88    85    1
    76    97    96    1
    77    97    98    1
    78    93    94   ar
    79    89    90   ar
    80    87    86    2
    81    11    10    2
    82    96    86   am
    83    86    85    1
    84     9    10    1
    85     9     8    1
    86     7     5    1
    87    94    95    1
    88    94    92   ar
    89    90    92   ar
    90    98    99    2
    91    85    84    1
    92     6     5    1
    93     5     2    1
    94     2     3    1
    95     2     1    1
    96     3     4    2
