@<TRIPOS>MOLECULE
tmp/3gxaF00.pdb
 144 139 0 0 0
SMALL
GASTEIGER

@<TRIPOS>ATOM
      1  N          0.3800   91.6650  -18.1770 N.3    12  PHE12      -0.1241
      2  CA         0.7600   92.8110  -18.9890 C.3    12  PHE12       0.1605
      3  C         -0.2250   93.0420  -20.1360 C.2    12  PHE12       0.2264
      4  O         -0.4820   94.1850  -20.5310 O.2    12  PHE12      -0.2867
      5  CB         2.1860   92.6460  -19.5160 C.3    12  PHE12       0.0534
      6  CG         3.2410   92.7900  -18.4510 C.ar   12  PHE12      -0.0203
      7  CD1        3.1080   93.7490  -17.4520 C.ar   12  PHE12      -0.0042
      8  CD2        4.3640   91.9750  -18.4470 C.ar   12  PHE12      -0.0042
      9  CE1        4.0770   93.8940  -16.4690 C.ar   12  PHE12      -0.0003
     10  CE2        5.3460   92.1120  -17.4640 C.ar   12  PHE12      -0.0003
     11  CZ         5.1990   93.0730  -16.4740 C.ar   12  PHE12      -0.0000
     12  N          9.8260   84.8790  -23.9530 N.3    39  TYR39      -0.1241
     13  CA        10.5760   86.1080  -23.7280 C.3    39  TYR39       0.1605
     14  C         11.4440   86.4980  -24.9240 C.2    39  TYR39       0.2264
     15  O         11.9870   87.5970  -24.9590 O.2    39  TYR39      -0.2867
     16  CB        11.5120   85.9660  -22.5210 C.3    39  TYR39       0.0534
     17  CG        10.8630   85.8350  -21.1590 C.ar   39  TYR39      -0.0201
     18  CD1        9.6010   86.3690  -20.9000 C.ar   39  TYR39      -0.0009
     19  CD2       11.5640   85.2620  -20.0990 C.ar   39  TYR39      -0.0009
     20  CE1        9.0580   86.3400  -19.6170 C.ar   39  TYR39       0.0417
     21  CE2       11.0410   85.2280  -18.8160 C.ar   39  TYR39       0.0417
     22  CZ         9.7890   85.7720  -18.5770 C.ar   39  TYR39       0.1957
     23  OH         9.2920   85.7780  -17.2950 O.3    39  TYR39      -0.2866
     24  N          7.1650   93.6150  -21.2010 N.3    56  PHE56      -0.1227
     25  CA         7.3020   92.2450  -20.7090 C.3    56  PHE56       0.1736
     26  C          8.6220   91.9310  -20.0040 C.2    56  PHE56       0.2595
     27  O          8.7840   90.8460  -19.4470 O.2    56  PHE56      -0.2718
     28  CB         7.1760   91.2830  -21.8880 C.3    56  PHE56       0.0547
     29  CG         8.4330   91.1800  -22.7140 C.ar   56  PHE56      -0.0202
     30  CD1        9.3000   90.1080  -22.5460 C.ar   56  PHE56      -0.0042
     31  CD2        8.7650   92.1720  -23.6320 C.ar   56  PHE56      -0.0042
     32  CE1       10.4840   90.0240  -23.2720 C.ar   56  PHE56      -0.0003
     33  CE2        9.9520   92.1020  -24.3670 C.ar   56  PHE56      -0.0003
     34  CZ        10.8130   91.0230  -24.1890 C.ar   56  PHE56      -0.0000
     35  N          9.5600   92.8680  -20.0240 N.am   57  GLN57      -0.1965
     36  CA        10.8750   92.6010  -19.4540 C.3    57  GLN57       0.1733
     37  C         11.4240   93.6600  -18.5070 C.2    57  GLN57       0.2616
     38  O         10.9220   94.7860  -18.4540 O.2    57  GLN57      -0.2715
     39  CB        11.8660   92.4380  -20.6100 C.3    57  GLN57       0.0408
     40  CG        12.2440   93.7830  -21.2260 C.3    57  GLN57       0.0908
     41  CD        12.6370   93.7040  -22.6900 C.2    57  GLN57       0.2608
     42  OE1       11.9790   94.3010  -23.5470 O.2    57  GLN57      -0.2717
     43  NE2       13.7080   92.9740  -22.9850 N.am   57  GLN57      -0.0878
     44  N         12.4530   93.2790  -17.7510 N.am   58  HIS58      -0.1973
     45  CA        13.1350   94.2300  -16.8860 C.3    58  HIS58       0.1656
     46  C         14.3590   94.7250  -17.6820 C.2    58  HIS58       0.2291
     47  O         14.7030   94.1530  -18.7200 O.2    58  HIS58      -0.2864
     48  CB        13.5530   93.6010  -15.5430 C.3    58  HIS58       0.0771
     49  CG        14.1460   92.2320  -15.6540 C.ar   58  HIS58       0.0820
     50  ND1       15.3390   91.9820  -16.3010 N.ar   58  HIS58      -0.2267
     51  CD2       13.7140   91.0360  -15.1840 C.ar   58  HIS58       0.1154
     52  CE1       15.6140   90.6910  -16.2220 C.ar   58  HIS58       0.1986
     53  NE2       14.6450   90.0960  -15.5500 N.ar   58  HIS58      -0.2212
     54  N         17.3910   92.2290  -18.6250 N.3    61  TYR61      -0.1241
     55  CA        17.0830   91.3150  -19.7190 C.3    61  TYR61       0.1605
     56  C         17.1320   92.0880  -21.0410 C.2    61  TYR61       0.2264
     57  O         17.6700   91.6130  -22.0350 O.2    61  TYR61      -0.2867
     58  CB        15.7000   90.6860  -19.5240 C.3    61  TYR61       0.0534
     59  CG        15.3300   89.7260  -20.6300 C.ar   61  TYR61      -0.0201
     60  CD1       14.7680   90.1880  -21.8230 C.ar   61  TYR61      -0.0009
     61  CD2       15.6020   88.3570  -20.5100 C.ar   61  TYR61      -0.0009
     62  CE1       14.4910   89.3180  -22.8650 C.ar   61  TYR61       0.0417
     63  CE2       15.3310   87.4770  -21.5510 C.ar   61  TYR61       0.0417
     64  CZ        14.7760   87.9630  -22.7240 C.ar   61  TYR61       0.1957
     65  OH        14.5050   87.0960  -23.7540 O.3    61  TYR61      -0.2866
     66  N          4.8200   95.3140  -11.7990 N.3    81  THR81      -0.1203
     67  CA         5.2330   93.9770  -12.1920 C.3    81  THR81       0.1994
     68  C          5.1290   92.9270  -11.0920 C.2    81  THR81       0.2617
     69  O          5.4000   93.2020   -9.9260 O.2    81  THR81      -0.2717
     70  CB         6.6810   94.0010  -12.8030 C.3    81  THR81       0.1784
     71  OG1        7.5620   93.1620  -12.0520 O.3    81  THR81      -0.2211
     72  CG2        7.2260   95.3910  -12.8260 C.3    81  THR81       0.0376
     73  N          4.6990   91.7270  -11.4760 N.am   82  ALA82      -0.1979
     74  CA         4.5720   90.6060  -10.5510 C.3    82  ALA82       0.1597
     75  C          5.9910   90.2480  -10.1080 C.2    82  ALA82       0.2287
     76  O          6.8730   90.0530  -10.9340 O.2    82  ALA82      -0.2864
     77  CB         3.9220   89.4310  -11.2510 C.3    82  ALA82       0.0319
     78  N          9.3930   88.2640   -8.5090 N.3    84  LEU84      -0.1245
     79  CA        10.0380   86.9660   -8.6220 C.3    84  LEU84       0.1561
     80  C          9.9110   86.3050   -7.2620 C.2    84  LEU84       0.2260
     81  O         10.1470   86.9410   -6.2380 O.2    84  LEU84      -0.2867
     82  CB        11.5250   87.1290   -8.9620 C.3    84  LEU84       0.0270
     83  CG        12.3080   85.8440   -9.2180 C.3    84  LEU84       0.0019
     84  CD1       11.7100   85.1210  -10.4120 C.3    84  LEU84       0.0001
     85  CD2       13.7690   86.1580   -9.4860 C.3    84  LEU84       0.0001
     86  N         17.9600   86.5700  -15.7990 N.3   111  ASN111     -0.1240
     87  CA        17.0370   86.0240  -14.8150 C.3   111  ASN111      0.1653
     88  C         17.7290   85.0010  -13.9120 C.2   111  ASN111      0.2266
     89  O         17.3780   84.8560  -12.7430 O.2   111  ASN111     -0.2867
     90  CB        15.8210   85.4090  -15.5170 C.3   111  ASN111      0.1155
     91  CG        14.8140   86.4680  -15.9660 C.2   111  ASN111      0.2627
     92  OD1       14.1810   87.1200  -15.1390 O.2   111  ASN111     -0.2716
     93  ND2       14.6810   86.6550  -17.2730 N.am  111  ASN111     -0.0877
     94  N         19.3900   86.5050  -10.9060 N.3   114  ARG114     -0.1245
     95  CA        18.4310   86.8480   -9.8600 C.3   114  ARG114      0.1563
     96  C         18.2330   85.7190   -8.8570 C.2   114  ARG114      0.2260
     97  O         18.0900   85.9600   -7.6590 O.2   114  ARG114     -0.2867
     98  CB        17.0740   87.2020  -10.4690 C.3   114  ARG114      0.0307
     99  CG        17.0560   88.4510  -11.3160 C.3   114  ARG114      0.0489
    100  CD        15.7060   89.1520  -11.1570 C.3   114  ARG114      0.2205
    101  NE        14.6810   88.6670  -12.0640 N.pl3 114  ARG114     -0.0865
    102  CZ        13.3760   88.8920  -11.9230 C.cat 114  ARG114      0.5346
    103  NH1       12.9110   89.5920  -10.9000 N.pl3 114  ARG114      0.1354
    104  NH2       12.5340   88.4290  -12.8360 N.pl3 114  ARG114      0.1354
    105  N          9.1090   83.2330  -12.5150 N.3   171  ASN171     -0.1225
    106  CA         8.8640   84.6190  -12.9150 C.3   171  ASN171      0.1785
    107  C          7.3850   84.9440  -12.6750 C.2   171  ASN171      0.2598
    108  O          6.5020   84.1270  -12.9590 O.2   171  ASN171     -0.2718
    109  CB         9.1880   84.8370  -14.3970 C.3   171  ASN171      0.1169
    110  CG        10.6660   84.6730  -14.7070 C.2   171  ASN171      0.2627
    111  OD1       11.1120   83.6010  -15.1150 O.2   171  ASN171     -0.2716
    112  ND2       11.4340   85.7420  -14.5080 N.am  171  ASN171     -0.0877
    113  N          7.1240   86.1430  -12.1680 N.am  172  GLY172     -0.1942
    114  CA         5.7630   86.5530  -11.8740 C.3   172  GLY172      0.2014
    115  C          4.7010   86.3300  -12.9390 C.2   172  GLY172      0.2638
    116  O          3.6100   85.8400  -12.6330 O.2   172  GLY172     -0.2714
    117  N          4.9990   86.6890  -14.1860 N.am  173  ASN173     -0.1972
    118  CA         4.0230   86.5360  -15.2610 C.3   173  ASN173      0.1688
    119  C          3.6460   85.0790  -15.5150 C.2   173  ASN173      0.2292
    120  O          2.4820   84.7670  -15.7260 O.2   173  ASN173     -0.2864
    121  CB         4.5470   87.1710  -16.5510 C.3   173  ASN173      0.1181
    122  CG         5.7280   86.4220  -17.1240 C.2   173  ASN173      0.2629
    123  OD1        6.8540   86.5490  -16.6400 O.2   173  ASN173     -0.2716
    124  ND2        5.4810   85.6470  -18.1710 N.am  173  ASN173     -0.0877
    125  N         14.4280   95.0080  -10.8090 N.3   194  TYR194     -0.1241
    126  CA        13.7730   94.2550  -11.8620 C.3   194  TYR194      0.1605
    127  C         12.3400   94.6190  -12.2220 C.2   194  TYR194      0.2264
    128  O         11.6460   93.8560  -12.8910 O.2   194  TYR194     -0.2867
    129  CB        13.8950   92.7670  -11.5300 C.3   194  TYR194      0.0534
    130  CG        15.3350   92.3230  -11.5450 C.ar  194  TYR194     -0.0201
    131  CD1       15.9740   92.0270  -12.7500 C.ar  194  TYR194     -0.0009
    132  CD2       16.0830   92.2580  -10.3620 C.ar  194  TYR194     -0.0009
    133  CE1       17.3190   91.6750  -12.7850 C.ar  194  TYR194      0.0417
    134  CE2       17.4390   91.9080  -10.3810 C.ar  194  TYR194      0.0417
    135  CZ        18.0460   91.6170  -11.6020 C.ar  194  TYR194      0.1957
    136  OH        19.3640   91.2540  -11.6520 O.3   194  TYR194     -0.2866
    137  N          9.7660   95.6940  -14.3750 N.3   196  ASN196     -0.1240
    138  CA         9.7640   95.7240  -15.8360 C.3   196  ASN196      0.1653
    139  C          9.5840   97.1090  -16.4600 C.2   196  ASN196      0.2266
    140  O          9.0480   98.0240  -15.8320 O.2   196  ASN196     -0.2867
    141  CB         8.6890   94.7650  -16.3700 C.3   196  ASN196      0.1155
    142  CG         9.0010   93.3180  -16.0510 C.2   196  ASN196      0.2627
    143  OD1        8.4980   92.4070  -16.7130 O.2   196  ASN196     -0.2716
    144  ND2        9.8360   93.0930  -15.0490 N.am  196  ASN196     -0.0877
@<TRIPOS>BOND
     1    15    14    2
     2    14    13    1
     3    33    34   ar
     4    33    31   ar
     5    34    32   ar
     6    12    13    1
     7    65    64    1
     8    13    16    1
     9    31    29   ar
    10    42    41    2
    11    32    30   ar
    12    43    41   am
    13    62    64   ar
    14    62    60   ar
    15    64    63   ar
    16    29    30   ar
    17    29    28    1
    18    41    40    1
    19    16    17    1
    20    57    56    2
    21    28    25    1
    22    60    59   ar
    23    63    61   ar
    24    40    39    1
    25    24    25    1
    26    17    18   ar
    27    17    19   ar
    28    56    55    1
    29    18    20   ar
    30    25    26    1
    31    59    61   ar
    32    59    58    1
    33    39    36    1
    34     4     3    2
    35     3     2    1
    36    19    21   ar
    37    35    26   am
    38    35    36    1
    39    26    27    2
    40    55    58    1
    41    55    54    1
    42    20    22   ar
    43     5     2    1
    44     5     6    1
    45    36    37    1
    46     2     1    1
    47    21    22   ar
    48    47    46    2
    49    22    23    1
    50    37    38    2
    51    37    44   am
    52     6     8   ar
    53     6     7   ar
    54     8    10   ar
    55   124   122   am
    56    44    45    1
    57    46    45    1
    58    10    11   ar
    59     7     9   ar
    60    93    91   am
    61   122   123    2
    62   122   121    1
    63    45    48    1
    64   143   142    2
    65   121   118    1
    66    11     9   ar
    67   139   138    1
    68   139   140    2
    69   141   142    1
    70   141   138    1
    71    50    52   ar
    72    50    49   ar
    73    52    53   ar
    74   142   144   am
    75    91    90    1
    76    91    92    2
    77   138   137    1
    78    86    87    1
    79   120   119    2
    80    49    48    1
    81    49    51   ar
    82    53    51   ar
    83    90    87    1
    84   119   118    1
    85   118   117    1
    86   111   110    2
    87    87    88    1
    88   110   112   am
    89   110   109    1
    90   109   106    1
    91   117   115   am
    92    88    89    2
    93   108   107    2
    94   115   116    2
    95   115   114    1
    96   106   107    1
    97   106   105    1
    98   128   127    2
    99   104   102    1
   100    72    70    1
   101    70    67    1
   102    70    71    1
   103   133   131   ar
   104   133   135   ar
   105   131   130   ar
   106   107   113   am
   107   127   126    1
   108    67    66    1
   109    67    68    1
   110   113   114    1
   111   101   102    2
   112   101   100    1
   113   102   103    1
   114   126   129    1
   115   126   125    1
   116   136   135    1
   117   135   134   ar
   118   130   129    1
   119   130   132   ar
   120    73    68   am
   121    73    74    1
   122    99   100    1
   123    99    98    1
   124    77    74    1
   125    68    69    2
   126    76    75    2
   127    94    95    1
   128    74    75    1
   129    98    95    1
   130    84    83    1
   131   134   132   ar
   132    95    96    1
   133    85    83    1
   134    83    82    1
   135    82    79    1
   136    96    97    2
   137    79    78    1
   138    79    80    1
   139    80    81    2
