@<TRIPOS>MOLECULE
tmp/3gxfD01.pdb
 144 139 0 0 0
SMALL
GASTEIGER

@<TRIPOS>ATOM
      1  N        -14.4270  -31.8730   43.3330 N.3   127  ASP127     -0.1225
      2  CA       -13.3750  -30.8970   43.0110 C.3   127  ASP127      0.1805
      3  C        -13.7050  -30.0210   41.7520 C.2   127  ASP127      0.2597
      4  O        -13.3740  -28.8230   41.7040 O.2   127  ASP127     -0.2718
      5  CB       -11.9840  -31.5330   42.9460 C.3   127  ASP127      0.1424
      6  CG       -11.8860  -32.6410   41.9070 C.2   127  ASP127      0.3668
      7  OD1      -12.9560  -33.2470   41.6050 O.co2 127  ASP127     -0.2456
      8  OD2      -10.7460  -32.9040   41.4270 O.co2 127  ASP127     -0.2456
      9  N        -14.4230  -30.5970   40.7830 N.am  128  PHE128     -0.1976
     10  CA       -14.8800  -29.8490   39.6090 C.3   128  PHE128      0.1639
     11  C        -16.1140  -29.0550   39.8620 C.2   128  PHE128      0.2290
     12  O        -17.1750  -29.2150   39.2240 O.2   128  PHE128     -0.2864
     13  CB       -14.8930  -30.7100   38.3610 C.3   128  PHE128      0.0560
     14  CG       -13.5320  -30.9710   37.9030 C.ar  128  PHE128     -0.0200
     15  CD1      -12.7840  -32.0180   38.4870 C.ar  128  PHE128     -0.0042
     16  CD2      -12.9000  -30.0680   37.0290 C.ar  128  PHE128     -0.0042
     17  CE1      -11.4400  -32.2310   38.1060 C.ar  128  PHE128     -0.0003
     18  CE2      -11.5960  -30.2530   36.6820 C.ar  128  PHE128     -0.0003
     19  CZ       -10.8570  -31.3420   37.2130 C.ar  128  PHE128     -0.0000
     20  N        -19.8330  -37.4710   46.2990 N.3   179  TRP179     -0.1241
     21  CA       -18.4440  -37.3770   46.7440 C.3   179  TRP179      0.1605
     22  C        -18.4710  -37.2540   48.2430 C.2   179  TRP179      0.2264
     23  O        -17.7780  -38.0020   48.9280 O.2   179  TRP179     -0.2867
     24  CB       -17.7410  -36.1610   46.1210 C.3   179  TRP179      0.0550
     25  CG       -16.9940  -36.4270   44.8040 C.ar  179  TRP179      0.0003
     26  CD1      -15.6550  -36.2520   44.5760 C.ar  179  TRP179      0.0946
     27  CD2      -17.5460  -36.8730   43.5670 C.ar  179  TRP179      0.0152
     28  NE1      -15.3520  -36.5500   43.3000 N.ar  179  TRP179     -0.2442
     29  CE2      -16.4760  -36.9660   42.6530 C.ar  179  TRP179      0.0810
     30  CE3      -18.8490  -37.2180   43.1360 C.ar  179  TRP179      0.0012
     31  CZ2      -16.6550  -37.3740   41.3380 C.ar  179  TRP179      0.0191
     32  CZ3      -19.0260  -37.6260   41.8380 C.ar  179  TRP179      0.0001
     33  CH2      -17.9440  -37.6680   40.9410 C.ar  179  TRP179      0.0015
     34  N        -18.3850  -42.0990   45.3980 N.3   234  ASN234     -0.1225
     35  CA       -17.1890  -41.8930   44.6360 C.3   234  ASN234      0.1785
     36  C        -15.9210  -42.2410   45.3900 C.2   234  ASN234      0.2597
     37  O        -15.6330  -41.6960   46.4700 O.2   234  ASN234     -0.2718
     38  CB       -17.0940  -40.4790   44.1180 C.3   234  ASN234      0.1169
     39  CG       -15.8950  -40.2990   43.2120 C.2   234  ASN234      0.2627
     40  OD1      -15.8880  -40.7620   42.0660 O.2   234  ASN234     -0.2716
     41  ND2      -14.8460  -39.6820   43.7460 N.am  234  ASN234     -0.0877
     42  N        -15.1370  -43.1510   44.8230 N.am  235  GLU235     -0.1979
     43  CA       -13.8220  -43.4420   45.4310 C.3   235  GLU235      0.1602
     44  C        -13.9560  -43.4700   46.9340 C.2   235  GLU235      0.2287
     45  O        -13.4590  -42.5640   47.6410 O.2   235  GLU235     -0.2864
     46  CB       -12.7520  -42.4350   44.9790 C.3   235  GLU235      0.0415
     47  CG       -12.8470  -42.1940   43.4750 C.3   235  GLU235      0.1163
     48  CD       -11.6200  -41.5380   42.8590 C.2   235  GLU235      0.3649
     49  OE1      -10.9510  -40.7820   43.5930 O.co2 235  GLU235     -0.2457
     50  OE2      -11.3510  -41.7680   41.6350 O.co2 235  GLU235     -0.2457
     51  N         -6.8910  -35.6720   52.8430 N.3   244  TYR244     -0.1241
     52  CA        -7.4860  -35.7450   51.5070 C.3   244  TYR244      0.1605
     53  C         -8.1390  -34.4190   51.1620 C.2   244  TYR244      0.2264
     54  O         -8.9250  -33.8580   51.9730 O.2   244  TYR244     -0.2867
     55  CB        -8.4470  -36.9080   51.3280 C.3   244  TYR244      0.0534
     56  CG        -8.6640  -37.2150   49.8510 C.ar  244  TYR244     -0.0201
     57  CD1       -7.7490  -37.9760   49.1350 C.ar  244  TYR244     -0.0009
     58  CD2       -9.7680  -36.7080   49.1740 C.ar  244  TYR244     -0.0009
     59  CE1       -7.9330  -38.2330   47.7630 C.ar  244  TYR244      0.0417
     60  CE2       -9.9680  -36.9440   47.8510 C.ar  244  TYR244      0.0417
     61  CZ        -9.0430  -37.7130   47.1290 C.ar  244  TYR244      0.1957
     62  OH        -9.2780  -37.9640   45.7910 O.3   244  TYR244     -0.2866
     63  N        -10.1160  -32.7370   48.7430 N.3   246  PHE246     -0.1241
     64  CA       -11.4590  -32.3180   48.3110 C.3   246  PHE246      0.1605
     65  C        -12.5200  -33.3170   48.7590 C.2   246  PHE246      0.2264
     66  O        -12.2170  -34.2180   49.5370 O.2   246  PHE246     -0.2867
     67  CB       -11.5410  -32.0600   46.8060 C.3   246  PHE246      0.0534
     68  CG       -11.1620  -33.2490   45.9340 C.ar  246  PHE246     -0.0203
     69  CD1      -12.1020  -34.2000   45.5850 C.ar  246  PHE246     -0.0042
     70  CD2       -9.8510  -33.3800   45.4240 C.ar  246  PHE246     -0.0042
     71  CE1      -11.7550  -35.2930   44.7610 C.ar  246  PHE246     -0.0003
     72  CE2       -9.4830  -34.4610   44.6100 C.ar  246  PHE246     -0.0003
     73  CZ       -10.4320  -35.4340   44.2760 C.ar  246  PHE246     -0.0000
     74  N        -10.4910  -47.2080   42.1060 N.3   284  GLN284     -0.1245
     75  CA        -9.4130  -47.7790   41.3170 C.3   284  GLN284      0.1566
     76  C         -9.4970  -49.2750   41.2950 C.2   284  GLN284      0.2260
     77  O         -9.8950  -49.9110   42.2850 O.2   284  GLN284     -0.2867
     78  CB        -8.0360  -47.3500   41.8530 C.3   284  GLN284      0.0367
     79  CG        -7.9240  -45.9200   42.2710 C.3   284  GLN284      0.0905
     80  CD        -8.4170  -44.9310   41.2060 C.2   284  GLN284      0.2608
     81  OE1       -8.2310  -45.1500   40.0070 O.2   284  GLN284     -0.2717
     82  NE2       -9.0390  -43.8180   41.6450 N.am  284  GLN284     -0.0878
     83  N         -7.3850  -44.5170   36.8860 N.3   313  TYR313     -0.1241
     84  CA        -6.1060  -43.9670   37.5270 C.3   313  TYR313      0.1605
     85  C         -4.9690  -44.9130   37.9450 C.2   313  TYR313      0.2264
     86  O         -3.7940  -44.5630   37.7790 O.2   313  TYR313     -0.2867
     87  CB        -6.4000  -42.9490   38.6620 C.3   313  TYR313      0.0534
     88  CG        -7.4320  -41.9890   38.1840 C.ar  313  TYR313     -0.0201
     89  CD1       -8.7900  -42.2660   38.3980 C.ar  313  TYR313     -0.0009
     90  CD2       -7.0830  -40.8820   37.4130 C.ar  313  TYR313     -0.0009
     91  CE1       -9.7900  -41.4690   37.8820 C.ar  313  TYR313      0.0417
     92  CE2       -8.1010  -40.0300   36.8910 C.ar  313  TYR313      0.0417
     93  CZ        -9.4690  -40.3590   37.1360 C.ar  313  TYR313      0.1957
     94  OH       -10.5170  -39.5860   36.6900 O.3   313  TYR313     -0.2866
     95  N        -15.1650  -43.7400   35.2440 N.3   340  GLU340     -0.1245
     96  CA       -14.4690  -42.4860   35.2300 C.3   340  GLU340      0.1567
     97  C        -13.0230  -42.6840   34.8110 C.2   340  GLU340      0.2260
     98  O        -12.3560  -43.5440   35.3620 O.2   340  GLU340     -0.2867
     99  CB       -14.5420  -41.7790   36.6260 C.3   340  GLU340      0.0388
    100  CG       -13.8760  -40.4180   36.6480 C.3   340  GLU340      0.1160
    101  CD       -13.6500  -39.8590   38.0320 C.2   340  GLU340      0.3649
    102  OE1      -14.5610  -39.7870   38.8760 O.co2 340  GLU340     -0.2457
    103  OE2      -12.5260  -39.4250   38.2980 O.co2 340  GLU340     -0.2457
    104  N         -9.4780  -39.8570   33.3720 N.3   342  CYS342     -0.1235
    105  CA        -8.8160  -38.6300   32.8000 C.3   342  CYS342      0.1677
    106  C         -7.3410  -39.0490   32.8390 C.2   342  CYS342      0.2270
    107  O         -6.9360  -39.7150   33.7760 O.2   342  CYS342     -0.2867
    108  CB        -9.2050  -37.3270   33.5120 C.3   342  CYS342      0.0956
    109  SG        -8.8120  -37.3360   35.2520 S.3   342  CYS342     -0.0801
    110  N         -3.2400  -35.1220   35.8730 N.3   345  SER345     -0.1217
    111  CA        -3.6550  -36.1860   36.8110 C.3   345  SER345      0.1889
    112  C         -2.4530  -36.5570   37.6880 C.2   345  SER345      0.2288
    113  O         -2.4600  -36.3200   38.9020 O.2   345  SER345     -0.2866
    114  CB        -4.3140  -37.4310   36.1840 C.3   345  SER345      0.2089
    115  OG        -4.9240  -38.2120   37.2190 O.3   345  SER345     -0.2183
    116  N        -14.4890  -38.4900   32.3730 N.3   381  TRP381     -0.1241
    117  CA       -14.7700  -37.5460   33.4360 C.3   381  TRP381      0.1605
    118  C        -15.4200  -36.3260   32.7810 C.2   381  TRP381      0.2264
    119  O        -16.2740  -36.4670   31.9190 O.2   381  TRP381     -0.2867
    120  CB       -13.4430  -37.2270   34.1480 C.3   381  TRP381      0.0550
    121  CG       -13.4890  -36.5300   35.5040 C.ar  381  TRP381      0.0003
    122  CD1      -12.4540  -35.8730   36.1030 C.ar  381  TRP381      0.0946
    123  CD2      -14.6050  -36.4330   36.4190 C.ar  381  TRP381      0.0152
    124  NE1      -12.8430  -35.3590   37.3180 N.ar  381  TRP381     -0.2442
    125  CE2      -14.1630  -35.6640   37.5300 C.ar  381  TRP381      0.0810
    126  CE3      -15.9440  -36.8740   36.3840 C.ar  381  TRP381      0.0012
    127  CZ2      -15.0040  -35.3500   38.6240 C.ar  381  TRP381      0.0191
    128  CZ3      -16.7850  -36.5620   37.4680 C.ar  381  TRP381      0.0001
    129  CH2      -16.2980  -35.7930   38.5780 C.ar  381  TRP381      0.0015
    130  N         -7.0910  -28.8490   41.0920 N.3   396  ASN396     -0.1240
    131  CA        -6.7370  -30.2070   40.6900 C.3   396  ASN396      0.1653
    132  C         -7.0220  -30.4150   39.2190 C.2   396  ASN396      0.2266
    133  O         -7.7610  -31.3370   38.8340 O.2   396  ASN396     -0.2867
    134  CB        -7.5070  -31.2320   41.5350 C.3   396  ASN396      0.1155
    135  CG        -7.0940  -32.6890   41.2390 C.2   396  ASN396      0.2627
    136  OD1       -5.9090  -32.9910   40.9050 O.2   396  ASN396     -0.2716
    137  ND2       -8.0680  -33.6060   41.3810 N.am  396  ASN396     -0.0877
    138  N         -7.2740  -30.9780   35.1660 N.3   398  VAL398     -0.1245
    139  CA        -7.0120  -32.1470   34.3300 C.3   398  VAL398      0.1561
    140  C         -7.3690  -31.8250   32.8920 C.2   398  VAL398      0.2260
    141  O         -7.6510  -30.6710   32.5940 O.2   398  VAL398     -0.2867
    142  CB        -7.6840  -33.4770   34.8280 C.3   398  VAL398      0.0252
    143  CG1       -7.0590  -33.9360   36.0920 C.3   398  VAL398      0.0019
    144  CG2       -9.1890  -33.3540   34.9380 C.3   398  VAL398      0.0019
@<TRIPOS>BOND
     1   119   118    2
     2   116   117    1
     3   141   140    2
     4   118   117    1
     5   105   106    1
     6   105   104    1
     7   105   108    1
     8   106   107    2
     9   140   139    1
    10   117   120    1
    11   108   109    1
    12   120   121    1
    13   139   142    1
    14   139   138    1
    15    97    96    1
    16    97    98    2
    17   142   144    1
    18   142   143    1
    19    96    95    1
    20    96    99    1
    21   121   122   ar
    22   121   123   ar
    23   110   111    1
    24   122   124   ar
    25   114   111    1
    26   114   115    1
    27   126   123   ar
    28   126   128   ar
    29   123   125   ar
    30    99   100    1
    31   100   101    1
    32    18    16   ar
    33    18    19   ar
    34    94    93    1
    35   111   112    1
    36    83    84    1
    37    92    93   ar
    38    92    90   ar
    39    16    14   ar
    40    93    91   ar
    41    19    17   ar
    42   124   125   ar
    43    90    88   ar
    44   128   129   ar
    45    84    85    1
    46    84    87    1
    47   125   127   ar
    48   112   113    2
    49    86    85    2
    50    91    89   ar
    51    14    13    1
    52    14    15   ar
    53   101   103   ar
    54   101   102   ar
    55    17    15   ar
    56    88    89   ar
    57    88    87    1
    58    13    10    1
    59   129   127   ar
    60   133   132    2
    61   132   131    1
    62    12    11    2
    63    10    11    1
    64    10     9    1
    65    81    80    2
    66   131   130    1
    67   131   134    1
    68     9     3   am
    69   136   135    2
    70    33    31   ar
    71    33    32   ar
    72    80    82   am
    73    80    79    1
    74   135   137   am
    75   135   134    1
    76    76    75    1
    77    76    77    2
    78    75    78    1
    79    75    74    1
    80    31    29   ar
    81     8     6   ar
    82     7     6   ar
    83    50    48   ar
    84     4     3    2
    85     3     2    1
    86    32    30   ar
    87    78    79    1
    88     6     5    1
    89    40    39    2
    90    29    28   ar
    91    29    27   ar
    92    48    47    1
    93    48    49   ar
    94     5     2    1
    95     2     1    1
    96    30    27   ar
    97    39    41   am
    98    39    38    1
    99    28    26   ar
   100    47    46    1
   101    27    25   ar
   102    38    35    1
   103    73    72   ar
   104    73    71   ar
   105    26    25   ar
   106    72    70   ar
   107    35    36    1
   108    35    34    1
   109    71    69   ar
   110    25    24    1
   111    42    36   am
   112    42    43    1
   113    46    43    1
   114    36    37    2
   115    70    68   ar
   116    43    44    1
   117    69    68   ar
   118    62    61    1
   119    68    67    1
   120    24    21    1
   121    20    21    1
   122    21    22    1
   123    67    64    1
   124    44    45    2
   125    61    59   ar
   126    61    60   ar
   127    59    57   ar
   128    60    58   ar
   129    22    23    2
   130    64    63    1
   131    64    65    1
   132    65    66    2
   133    57    56   ar
   134    58    56   ar
   135    56    55    1
   136    53    52    1
   137    53    54    2
   138    55    52    1
   139    52    51    1
