@<TRIPOS>MOLECULE
tmp/3gxlA00.pdb
 207 196 0 0 0
SMALL
GASTEIGER

@<TRIPOS>ATOM
      1  N         24.0330   63.1190    3.5450 N.3    11  ILE11      -0.1231
      2  CA        23.9660   64.5490    3.8320 C.3    11  ILE11       0.1692
      3  C         23.4950   64.9360    5.2270 C.2    11  ILE11       0.2593
      4  O         23.2320   66.1120    5.4830 O.2    11  ILE11      -0.2718
      5  CB        23.0740   65.2850    2.8050 C.3    11  ILE11       0.0266
      6  CG1       21.6600   64.7190    2.8360 C.3    11  ILE11       0.0019
      7  CG2       23.6640   65.1570    1.4100 C.3    11  ILE11       0.0020
      8  CD1       20.7180   65.3980    1.8530 C.3    11  ILE11       0.0001
      9  N         23.3870   63.9600    6.1240 N.am   12  GLY12      -0.1942
     10  CA        22.9580   64.2640    7.4790 C.3    12  GLY12       0.2014
     11  C         22.1780   63.1580    8.1580 C.2    12  GLY12       0.2639
     12  O         22.1600   62.0180    7.6920 O.2    12  GLY12      -0.2714
     13  N         21.5420   63.4950    9.2760 N.am   13  LYS13      -0.1963
     14  CA        20.7420   62.5340   10.0260 C.3    13  LYS13       0.1728
     15  C         19.7490   63.2400   10.9330 C.2    13  LYS13       0.2617
     16  O         20.0330   64.3190   11.4620 O.2    13  LYS13      -0.2715
     17  CB        21.6340   61.6200   10.8680 C.3    13  LYS13       0.0311
     18  CG        22.5260   62.3340   11.8730 C.3    13  LYS13       0.0038
     19  CD        23.2380   61.3260   12.7680 C.3    13  LYS13       0.0206
     20  CE        24.4190   61.9530   13.4980 C.3    13  LYS13       0.1093
     21  NZ        25.5210   62.3180   12.5600 N.3    13  LYS13      -0.1314
     22  N         18.5770   62.6350   11.0980 N.am   14  GLY14      -0.1940
     23  CA        17.5630   63.2200   11.9580 C.3    14  GLY14       0.2014
     24  C         17.7300   62.6690   13.3620 C.2    14  GLY14       0.2638
     25  O         18.7900   62.1300   13.6890 O.2    14  GLY14      -0.2714
     26  N         16.7060   62.8140   14.1980 N.am   15  ARG15      -0.1977
     27  CA        16.7720   62.2900   15.5570 C.3    15  ARG15       0.1597
     28  C         16.9580   60.7820   15.3930 C.2    15  ARG15       0.2287
     29  O         17.6910   60.1340   16.1470 O.2    15  ARG15      -0.2864
     30  CB        15.4800   62.6280   16.3220 C.3    15  ARG15       0.0334
     31  CG        14.2070   61.9820   15.7860 C.3    15  ARG15       0.0492
     32  CD        12.9500   62.7020   16.3020 C.3    15  ARG15       0.2205
     33  NE        13.0890   63.1410   17.6910 N.pl3  15  ARG15      -0.0865
     34  CZ        13.2470   62.3270   18.7340 C.cat  15  ARG15       0.5346
     35  NH1       13.2860   61.0140   18.5580 N.pl3  15  ARG15       0.1354
     36  NH2       13.3710   62.8280   19.9550 N.pl3  15  ARG15       0.1354
     37  N         20.0590   60.8030    6.5680 N.3    19  VAL19      -0.1245
     38  CA        19.6200   61.5660    5.4130 C.3    19  VAL19       0.1561
     39  C         20.5800   61.4450    4.2400 C.2    19  VAL19       0.2260
     40  O         21.7900   61.6110    4.3930 O.2    19  VAL19      -0.2867
     41  CB        19.4420   63.0540    5.7910 C.3    19  VAL19       0.0252
     42  CG1       18.8110   63.8180    4.6270 C.3    19  VAL19       0.0019
     43  CG2       18.5630   63.1560    7.0260 C.3    19  VAL19       0.0019
     44  N         15.6290   64.0510   -1.4860 N.3    27  ALA27      -0.1245
     45  CA        16.2390   63.8100   -0.1900 C.3    27  ALA27       0.1562
     46  C         15.5660   62.5580    0.3440 C.2    27  ALA27       0.2260
     47  O         14.3570   62.3800    0.1920 O.2    27  ALA27      -0.2867
     48  CB        15.9910   64.9930    0.7440 C.3    27  ALA27       0.0290
     49  N         15.3620   59.9050    3.8140 N.3    29  LYS29      -0.1245
     50  CA        15.7130   59.6290    5.2020 C.3    29  LYS29       0.1561
     51  C         15.4230   58.1410    5.4160 C.2    29  LYS29       0.2260
     52  O         14.2960   57.6840    5.2350 O.2    29  LYS29      -0.2867
     53  CB        14.8870   60.4900    6.1680 C.3    29  LYS29       0.0271
     54  CG        15.3670   60.3860    7.6080 C.3    29  LYS29       0.0035
     55  CD        15.0020   61.6140    8.4300 C.3    29  LYS29       0.0206
     56  CE        13.4940   61.7920    8.5720 C.3    29  LYS29       0.1093
     57  NZ        13.2310   62.9950    9.4250 N.3    29  LYS29      -0.1314
     58  N          6.1340   60.0070   11.5810 N.3    42  GLU42      -0.1245
     59  CA         6.4590   61.1560   10.7410 C.3    42  GLU42       0.1567
     60  C          5.7390   61.0140    9.3930 C.2    42  GLU42       0.2260
     61  O          5.2480   61.9940    8.8300 O.2    42  GLU42      -0.2867
     62  CB         7.9760   61.2700   10.5550 C.3    42  GLU42       0.0388
     63  CG         8.3960   62.4490    9.6710 C.3    42  GLU42       0.1160
     64  CD         9.8550   62.8330    9.8360 C.2    42  GLU42       0.3649
     65  OE1       10.6350   62.0140   10.3640 O.co2  42  GLU42      -0.2457
     66  OE2       10.2250   63.9580    9.4240 O.co2  42  GLU42      -0.2457
     67  N          3.1620   63.8760    7.8210 N.3    46  TYR46      -0.1241
     68  CA         3.3040   64.3990    6.4660 C.3    46  TYR46       0.1605
     69  C          2.1250   64.0650    5.5520 C.2    46  TYR46       0.2264
     70  O          1.8860   64.7670    4.5720 O.2    46  TYR46      -0.2867
     71  CB         4.6020   63.8880    5.8310 C.3    46  TYR46       0.0534
     72  CG         5.8020   64.7530    6.1340 C.ar   46  TYR46      -0.0201
     73  CD1        5.9700   65.9830    5.5030 C.ar   46  TYR46      -0.0009
     74  CD2        6.7720   64.3460    7.0490 C.ar   46  TYR46      -0.0009
     75  CE1        7.0750   66.7890    5.7660 C.ar   46  TYR46       0.0417
     76  CE2        7.8870   65.1570    7.3290 C.ar   46  TYR46       0.0417
     77  CZ         8.0260   66.3740    6.6780 C.ar   46  TYR46       0.1957
     78  OH         9.1160   67.1850    6.9340 O.3    46  TYR46      -0.2866
     79  N          8.4350   71.3960    4.1830 N.3    57  LEU57      -0.1245
     80  CA         9.1730   70.5140    3.2780 C.3    57  LEU57       0.1561
     81  C          8.1960   69.6840    2.4640 C.2    57  LEU57       0.2260
     82  O          7.2750   69.0930    3.0190 O.2    57  LEU57      -0.2867
     83  CB        10.1020   69.5830    4.0520 C.3    57  LEU57       0.0270
     84  CG        10.8900   68.5930    3.1900 C.3    57  LEU57       0.0019
     85  CD1       11.8440   69.3440    2.2530 C.3    57  LEU57       0.0001
     86  CD2       11.6760   67.6410    4.0940 C.3    57  LEU57       0.0001
     87  N          6.7170   66.6900    0.8640 N.3    59  PHE59      -0.1241
     88  CA         6.7920   65.2350    1.0510 C.3    59  PHE59       0.1605
     89  C          6.4290   64.5090   -0.2380 C.2    59  PHE59       0.2264
     90  O          5.4430   64.8510   -0.8860 O.2    59  PHE59      -0.2867
     91  CB         5.8200   64.8200    2.1540 C.3    59  PHE59       0.0534
     92  CG         5.9260   63.3720    2.5560 C.ar   59  PHE59      -0.0203
     93  CD1        6.9910   62.9310    3.3350 C.ar   59  PHE59      -0.0042
     94  CD2        4.9330   62.4680    2.2020 C.ar   59  PHE59      -0.0042
     95  CE1        7.0660   61.5990    3.7670 C.ar   59  PHE59      -0.0003
     96  CE2        4.9930   61.1290    2.6270 C.ar   59  PHE59      -0.0003
     97  CZ         6.0620   60.6990    3.4110 C.ar   59  PHE59      -0.0000
     98  N         11.6060   57.5950    3.7100 N.3    75  LEU75      -0.1245
     99  CA        10.7720   58.7920    3.6470 C.3    75  LEU75       0.1561
    100  C         11.5050   59.5950    2.5850 C.2    75  LEU75       0.2260
    101  O         12.7270   59.7740    2.6780 O.2    75  LEU75      -0.2867
    102  CB        10.7500   59.5740    4.9690 C.3    75  LEU75       0.0270
    103  CG        10.0260   58.9390    6.1560 C.3    75  LEU75       0.0019
    104  CD1       10.0280   59.9340    7.3310 C.3    75  LEU75       0.0001
    105  CD2        8.6010   58.5810    5.7670 C.3    75  LEU75       0.0001
    106  N         11.6320   63.1840    0.1190 N.3    77  SER77      -0.1202
    107  CA        11.1600   64.5640    0.0100 C.3    77  SER77       0.2020
    108  C         11.9210   65.3500   -1.0410 C.2    77  SER77       0.2619
    109  O         12.8750   64.8640   -1.6430 O.2    77  SER77      -0.2717
    110  CB        11.3500   65.3090    1.3300 C.3    77  SER77       0.2103
    111  OG        12.7170   65.6430    1.5210 O.3    77  SER77      -0.2182
    112  N         11.4990   66.5970   -1.2250 N.am   78  ASP78      -0.1959
    113  CA        12.1620   67.4950   -2.1530 C.3    78  ASP78       0.1840
    114  C         13.6040   67.6650   -1.6830 C.2    78  ASP78       0.2622
    115  O         13.9220   67.4590   -0.5030 O.2    78  ASP78      -0.2715
    116  CB        11.5270   68.8890   -2.1300 C.3    78  ASP78       0.1450
    117  CG        10.1220   68.9190   -2.6820 C.2    78  ASP78       0.3671
    118  OD1        9.7250   68.0050   -3.4340 O.co2  78  ASP78      -0.2456
    119  OD2        9.4180   69.9010   -2.3740 O.co2  78  ASP78      -0.2456
    120  N         14.4660   68.0660   -2.6090 N.am   79  TYR79      -0.1960
    121  CA        15.8610   68.3080   -2.3000 C.3    79  TYR79       0.1771
    122  C         16.1320   69.8030   -2.4770 C.2    79  TYR79       0.2620
    123  O         15.7590   70.3790   -3.5000 O.2    79  TYR79      -0.2715
    124  CB        16.7600   67.5250   -3.2480 C.3    79  TYR79       0.0574
    125  CG        18.2190   67.8610   -3.0870 C.ar   79  TYR79      -0.0198
    126  CD1       18.9400   67.4200   -1.9820 C.ar   79  TYR79      -0.0009
    127  CD2       18.8740   68.6490   -4.0330 C.ar   79  TYR79      -0.0009
    128  CE1       20.2840   67.7520   -1.8190 C.ar   79  TYR79       0.0417
    129  CE2       20.2170   68.9890   -3.8780 C.ar   79  TYR79       0.0417
    130  CZ        20.9130   68.5370   -2.7740 C.ar   79  TYR79       0.1957
    131  OH        22.2470   68.8560   -2.6360 O.3    79  TYR79      -0.2866
    132  N         16.7660   70.4160   -1.4810 N.am   80  HIS80      -0.1959
    133  CA        17.1210   71.8350   -1.5130 C.3    80  HIS80       0.1787
    134  C         18.6350   71.9100   -1.2680 C.2    80  HIS80       0.2620
    135  O         19.1130   71.5930   -0.1820 O.2    80  HIS80      -0.2715
    136  CB        16.3480   72.5930   -0.4290 C.3    80  HIS80       0.0785
    137  CG        14.8650   72.5460   -0.6170 C.ar   80  HIS80       0.0821
    138  ND1       14.2350   73.1250   -1.6980 N.ar   80  HIS80      -0.2267
    139  CD2       13.8950   71.9340    0.1010 C.ar   80  HIS80       0.1154
    140  CE1       12.9400   72.8670   -1.6390 C.ar   80  HIS80       0.1986
    141  NE2       12.7090   72.1450   -0.5570 N.ar   80  HIS80      -0.2212
    142  N         19.3790   72.3250   -2.2890 N.am   81  GLU81      -0.1977
    143  CA        20.8330   72.3890   -2.2160 C.3    81  GLU81       0.1602
    144  C         21.4230   73.1030   -1.0010 C.2    81  GLU81       0.2287
    145  O         22.4350   72.6530   -0.4590 O.2    81  GLU81      -0.2864
    146  CB        21.3930   73.0040   -3.5050 C.3    81  GLU81       0.0415
    147  CG        22.9120   72.9430   -3.6070 C.3    81  GLU81       0.1163
    148  CD        23.4150   73.1340   -5.0290 C.2    81  GLU81       0.3649
    149  OE1       23.0990   74.1750   -5.6450 O.co2  81  GLU81      -0.2457
    150  OE2       24.1320   72.2390   -5.5310 O.co2  81  GLU81      -0.2457
    151  N         20.3600   73.1830    1.9730 N.3    83  GLY83      -0.1210
    152  CA        20.2580   72.4050    3.1960 C.3    83  GLY83       0.1956
    153  C         19.6160   73.1780    4.3400 C.2    83  GLY83       0.2612
    154  O         18.7400   74.0170    4.1200 O.2    83  GLY83      -0.2717
    155  N         20.0600   72.9140    5.5660 N.am   84  SER84      -0.1952
    156  CA        19.4870   73.5700    6.7390 C.3    84  SER84       0.1924
    157  C         19.7580   75.0600    6.8630 C.2    84  SER84       0.2314
    158  O         20.7350   75.5830    6.3240 O.2    84  SER84      -0.2863
    159  CB        19.9800   72.9020    8.0280 C.3    84  SER84       0.2116
    160  OG        21.3660   73.1490    8.2120 O.3    84  SER84      -0.2180
    161  N         13.8930   74.2560   15.2430 N.3   132  LYS132     -0.1245
    162  CA        15.2470   74.7770   15.4290 C.3   132  LYS132      0.1561
    163  C         15.8180   75.1010   14.0620 C.2   132  LYS132      0.2260
    164  O         15.2540   74.6880   13.0500 O.2   132  LYS132     -0.2867
    165  CB        16.1230   73.7400   16.1380 C.3   132  LYS132      0.0271
    166  CG        16.1720   72.3810   15.4510 C.3   132  LYS132      0.0035
    167  CD        17.0010   71.4200   16.2860 C.3   132  LYS132      0.0206
    168  CE        16.9580   70.0030   15.7420 C.3   132  LYS132      0.1093
    169  NZ        17.7940   69.0930   16.5730 N.3   132  LYS132     -0.1314
    170  N         18.2770   73.8690   12.7080 N.3   134  LYS134     -0.1231
    171  CA        18.7820   72.6530   12.0720 C.3   134  LYS134      0.1693
    172  C         17.7480   71.8080   11.3230 C.2   134  LYS134      0.2592
    173  O         18.1270   70.8690   10.6160 O.2   134  LYS134     -0.2718
    174  CB        19.5180   71.7830   13.0950 C.3   134  LYS134      0.0285
    175  CG        20.8930   72.3270   13.4880 C.3   134  LYS134      0.0035
    176  CD        21.5740   71.4370   14.5190 C.3   134  LYS134      0.0206
    177  CE        22.9050   72.0270   14.9530 C.3   134  LYS134      0.1093
    178  NZ        23.5000   71.2610   16.0790 N.3   134  LYS134     -0.1314
    179  N         16.4580   72.1020   11.4770 N.am  135  ASN135     -0.1974
    180  CA        15.4490   71.3390   10.7300 C.3   135  ASN135      0.1688
    181  C         14.5390   72.2290    9.8860 C.2   135  ASN135      0.2292
    182  O         13.4290   71.8430    9.5030 O.2   135  ASN135     -0.2864
    183  CB        14.6090   70.4410   11.6430 C.3   135  ASN135      0.1181
    184  CG        14.0360   71.1720   12.8280 C.2   135  ASN135      0.2629
    185  OD1       13.7810   72.3730   12.7700 O.2   135  ASN135     -0.2716
    186  ND2       13.8150   70.4400   13.9180 N.am  135  ASN135     -0.0877
    187  N         14.7620   74.2790    6.3420 N.3   137  LEU137     -0.1245
    188  CA        15.6020   74.2440    5.1480 C.3   137  LEU137      0.1561
    189  C         15.4530   75.5090    4.3180 C.2   137  LEU137      0.2260
    190  O         14.3930   76.1190    4.3020 O.2   137  LEU137     -0.2867
    191  CB        15.2420   73.0310    4.2850 C.3   137  LEU137      0.0270
    192  CG        15.3060   71.6700    4.9890 C.3   137  LEU137      0.0019
    193  CD1       14.7490   70.5910    4.0640 C.3   137  LEU137      0.0001
    194  CD2       16.7410   71.3620    5.3900 C.3   137  LEU137      0.0001
    195  N         10.9970   71.3630    8.3280 N.3   147  ALA147     -0.1231
    196  CA        11.1490   69.9150    8.2420 C.3   147  ALA147      0.1694
    197  C         10.9530   69.1850    9.5790 C.2   147  ALA147      0.2592
    198  O         10.5520   69.7830   10.5740 O.2   147  ALA147     -0.2718
    199  CB        12.5120   69.5740    7.6530 C.3   147  ALA147      0.0304
    200  N         11.2760   67.8920    9.5740 N.am  148  ASP148     -0.1974
    201  CA        11.1070   66.9690   10.7060 C.3   148  ASP148      0.1709
    202  C          9.8980   67.2300   11.6030 C.2   148  ASP148      0.2293
    203  O          9.9730   67.9080   12.6310 O.2   148  ASP148     -0.2864
    204  CB        12.3930   66.8140   11.5430 C.3   148  ASP148      0.1436
    205  CG        12.7100   68.0070   12.3950 C.2   148  ASP148      0.3671
    206  OD1       13.6320   67.8970   13.2410 O.co2 148  ASP148     -0.2456
    207  OD2       12.0510   69.0480   12.2370 O.co2 148  ASP148     -0.2456
@<TRIPOS>BOND
     1   149   148   ar
     2   150   148   ar
     3   148   147    1
     4   127   129   ar
     5   127   125   ar
     6   129   130   ar
     7   147   146    1
     8   146   143    1
     9   123   122    2
    10   118   117   ar
    11   124   125    1
    12   124   121    1
    13   125   126   ar
    14   130   131    1
    15   130   128   ar
    16   117   119   ar
    17   117   116    1
    18   120   121    1
    19   120   114   am
    20   122   121    1
    21   122   132   am
    22   142   143    1
    23   142   134   am
    24   143   144    1
    25   113   116    1
    26   113   114    1
    27   113   112    1
    28   126   128   ar
    29   138   140   ar
    30   138   137   ar
    31   114   115    2
    32   109   108    2
    33   140   141   ar
    34   133   132    1
    35   133   134    1
    36   133   136    1
    37    44    45    1
    38   134   135    2
    39   112   108   am
    40   108   107    1
    41   144   145    2
    42    90    89    2
    43   137   136    1
    44   137   139   ar
    45   141   139   ar
    46    89    88    1
    47    45    46    1
    48    45    48    1
    49   107   106    1
    50   107   110    1
    51    47    46    2
    52    87    88    1
    53    88    91    1
    54   110   111    1
    55     7     5    1
    56     8     6    1
    57   151   152    1
    58    91    92    1
    59    94    92   ar
    60    94    96   ar
    61    85    84    1
    62    81    82    2
    63    81    80    1
    64    92    93   ar
    65   100   101    2
    66   100    99    1
    67    96    97   ar
    68     5     6    1
    69     5     2    1
    70    84    83    1
    71    84    86    1
    72   152   153    1
    73    80    83    1
    74    80    79    1
    75    93    95   ar
    76    97    95   ar
    77     1     2    1
    78    99    98    1
    79    99   102    1
    80    49    50    1
    81     2     3    1
    82   193   192    1
    83   154   153    2
    84    39    40    2
    85    39    38    1
    86   191   192    1
    87   191   188    1
    88   190   189    2
    89   189   188    1
    90   153   155   am
    91    70    69    2
    92    42    41    1
    93   102   103    1
    94   192   194    1
    95   188   187    1
    96    50    51    1
    97    50    53    1
    98     3     4    2
    99     3     9   am
   100    52    51    2
   101    38    41    1
   102    38    37    1
   103    73    75   ar
   104    73    72   ar
   105    69    68    1
   106   155   156    1
   107    75    77   ar
   108   105   103    1
   109    41    43    1
   110    71    72    1
   111    71    68    1
   112     9    10    1
   113    72    74   ar
   114   103   104    1
   115    53    54    1
   116   158   157    2
   117    68    67    1
   118    77    78    1
   119    77    76   ar
   120   156   157    1
   121   156   159    1
   122    74    76   ar
   123    10    11    1
   124    54    55    1
   125   199   196    1
   126    12    11    2
   127   159   160    1
   128    11    13   am
   129   196   195    1
   130   196   197    1
   131    55    56    1
   132    56    57    1
   133    61    60    2
   134    13    14    1
   135    60    59    1
   136    66    64   ar
   137   182   181    2
   138   200   197   am
   139   200   201    1
   140   197   198    2
   141    63    64    1
   142    63    62    1
   143    64    65   ar
   144   181   180    1
   145    14    17    1
   146    14    15    1
   147    62    59    1
   148   173   172    2
   149   201   204    1
   150   201   202    1
   151   180   179    1
   152   180   183    1
   153    59    58    1
   154    17    18    1
   155    15    22   am
   156    15    16    2
   157    22    23    1
   158   172   179   am
   159   172   171    1
   160   204   205    1
   161   202   203    2
   162   183   184    1
   163    18    19    1
   164    23    24    1
   165   171   170    1
   166   171   174    1
   167   207   205   ar
   168   205   206   ar
   169    21    20    1
   170    19    20    1
   171   185   184    2
   172   184   186   am
   173   164   163    2
   174   174   175    1
   175    24    25    2
   176    24    26   am
   177   175   176    1
   178   163   162    1
   179    26    27    1
   180   176   177    1
   181   177   178    1
   182   161   162    1
   183    28    27    1
   184    28    29    2
   185   162   165    1
   186   166   165    1
   187   166   167    1
   188    27    30    1
   189   168   167    1
   190   168   169    1
   191    31    32    1
   192    31    30    1
   193    32    33    1
   194    33    34    2
   195    35    34    1
   196    34    36    1
