@<TRIPOS>MOLECULE
tmp/3gxoA01.pdb
 157 150 0 0 0
SMALL
GASTEIGER

@<TRIPOS>ATOM
      1  N         30.0770   -2.0920    6.8890 N.3   100  ASP100     -0.1239
      2  CA        30.0740   -2.9400    5.7130 C.3   100  ASP100      0.1674
      3  C         29.6100   -4.3700    6.0520 C.2   100  ASP100      0.2266
      4  O         28.8500   -4.9760    5.2970 O.2   100  ASP100     -0.2867
      5  CB        31.4500   -2.9490    5.0540 C.3   100  ASP100      0.1410
      6  CG        31.3810   -3.3020    3.5860 C.2   100  ASP100      0.3668
      7  OD1       30.2630   -3.2630    3.0210 O.co2 100  ASP100     -0.2456
      8  OD2       32.4380   -3.6280    2.9980 O.co2 100  ASP100     -0.2456
      9  N         25.9930   -4.1770    6.1810 N.3   103  PHE103     -0.1241
     10  CA        25.4840   -3.9650    4.8320 C.3   103  PHE103      0.1605
     11  C         25.3900   -5.3270    4.1200 C.2   103  PHE103      0.2264
     12  O         24.3270   -5.7220    3.6320 O.2   103  PHE103     -0.2867
     13  CB        26.4400   -3.0030    4.1180 C.3   103  PHE103      0.0534
     14  CG        26.0610   -2.6750    2.7000 C.ar  103  PHE103     -0.0203
     15  CD1       24.7410   -2.4500    2.3480 C.ar  103  PHE103     -0.0042
     16  CD2       27.0460   -2.5400    1.7300 C.ar  103  PHE103     -0.0042
     17  CE1       24.4030   -2.1150    1.0510 C.ar  103  PHE103     -0.0003
     18  CE2       26.7200   -2.2060    0.4370 C.ar  103  PHE103     -0.0003
     19  CZ        25.3930   -1.9970    0.0890 C.ar  103  PHE103     -0.0000
     20  N         19.6770   -1.5100   -7.6130 N.3   135  PHE135     -0.1227
     21  CA        20.2450   -1.0420   -6.3630 C.3   135  PHE135      0.1736
     22  C         19.8020    0.3850   -6.0280 C.2   135  PHE135      0.2595
     23  O         19.4120    0.6700   -4.8920 O.2   135  PHE135     -0.2718
     24  CB        21.7740   -1.1130   -6.3930 C.3   135  PHE135      0.0547
     25  CG        22.4160   -0.7390   -5.0790 C.ar  135  PHE135     -0.0202
     26  CD1       22.4380   -1.6420   -4.0230 C.ar  135  PHE135     -0.0042
     27  CD2       22.9820    0.5160   -4.8970 C.ar  135  PHE135     -0.0042
     28  CE1       23.0200   -1.3000   -2.8080 C.ar  135  PHE135     -0.0003
     29  CE2       23.5730    0.8640   -3.6930 C.ar  135  PHE135     -0.0003
     30  CZ        23.5900   -0.0470   -2.6420 C.ar  135  PHE135     -0.0000
     31  N         19.8650    1.2860   -7.0070 N.am  136  TRP136     -0.1976
     32  CA        19.5430    2.6780   -6.7200 C.3   136  TRP136      0.1640
     33  C         18.0640    2.8250   -6.4100 C.2   136  TRP136      0.2290
     34  O         17.6760    3.6860   -5.6300 O.2   136  TRP136     -0.2864
     35  CB        19.9750    3.6250   -7.8570 C.3   136  TRP136      0.0576
     36  CG        21.4660    3.6970   -8.0430 C.ar  136  TRP136      0.0006
     37  CD1       22.1580    3.4700   -9.1930 C.ar  136  TRP136      0.0946
     38  CD2       22.4480    3.9840   -7.0350 C.ar  136  TRP136      0.0152
     39  NE1       23.5110    3.6070   -8.9700 N.ar  136  TRP136     -0.2442
     40  CE2       23.7120    3.9270   -7.6550 C.ar  136  TRP136      0.0810
     41  CE3       22.3780    4.2850   -5.6710 C.ar  136  TRP136      0.0012
     42  CZ2       24.8930    4.1650   -6.9630 C.ar  136  TRP136      0.0191
     43  CZ3       23.5560    4.5270   -4.9830 C.ar  136  TRP136      0.0001
     44  CH2       24.7980    4.4680   -5.6310 C.ar  136  TRP136      0.0015
     45  N         23.2540    0.9530    3.4240 N.3   149  PHE149     -0.1241
     46  CA        24.2060    1.4520    2.4200 C.3   149  PHE149      0.1605
     47  C         24.8190    2.8070    2.7710 C.2   149  PHE149      0.2264
     48  O         26.0410    2.9900    2.6930 O.2   149  PHE149     -0.2867
     49  CB        23.5920    1.5640    1.0070 C.3   149  PHE149      0.0534
     50  CG        24.4900    2.3010    0.0380 C.ar  149  PHE149     -0.0203
     51  CD1       25.7320    1.7840   -0.2960 C.ar  149  PHE149     -0.0042
     52  CD2       24.1290    3.5380   -0.4770 C.ar  149  PHE149     -0.0042
     53  CE1       26.5890    2.4690   -1.1470 C.ar  149  PHE149     -0.0003
     54  CE2       24.9790    4.2230   -1.3390 C.ar  149  PHE149     -0.0003
     55  CZ        26.2090    3.6900   -1.6700 C.ar  149  PHE149     -0.0000
     56  N         27.4270    2.3840    5.3770 N.3   152  ALA152     -0.1245
     57  CA        28.6430    1.7510    4.8980 C.3   152  ALA152      0.1562
     58  C         29.4770    2.7180    4.0660 C.2   152  ALA152      0.2260
     59  O         30.7060    2.7230    4.1610 O.2   152  ALA152     -0.2867
     60  CB        28.3180    0.4920    4.1080 C.3   152  ALA152      0.0290
     61  N         33.2730    5.1280    5.3540 N.3   155  VAL155     -0.1245
     62  CA        34.4320    5.2260    4.4760 C.3   155  VAL155      0.1561
     63  C         34.7330    6.7050    4.1990 C.2   155  VAL155      0.2260
     64  O         35.8880    7.1350    4.2100 O.2   155  VAL155     -0.2867
     65  CB        34.1980    4.4860    3.1300 C.3   155  VAL155      0.0252
     66  CG1       35.2860    4.8300    2.1540 C.3   155  VAL155      0.0019
     67  CG2       34.1370    2.9780    3.3460 C.3   155  VAL155      0.0019
     68  N         37.9570    9.4580    4.6430 N.3   159  GLU159     -0.1245
     69  CA        38.4600   10.1080    3.4280 C.3   159  GLU159      0.1567
     70  C         38.3210   11.6230    3.4380 C.2   159  GLU159      0.2260
     71  O         39.1930   12.3250    2.9330 O.2   159  GLU159     -0.2867
     72  CB        37.7550    9.5580    2.1800 C.3   159  GLU159      0.0388
     73  CG        38.1120    8.1300    1.8410 C.3   159  GLU159      0.1160
     74  CD        37.2970    7.5970    0.6670 C.2   159  GLU159      0.3649
     75  OE1       36.1760    8.1130    0.4270 O.co2 159  GLU159     -0.2457
     76  OE2       37.7780    6.6650   -0.0210 O.co2 159  GLU159     -0.2457
     77  N         33.8130    8.8290   -5.5090 N.3   244  HIS244     -0.1241
     78  CA        33.2110    7.4950   -5.5540 C.3   244  HIS244      0.1621
     79  C         31.8450    7.5560   -6.2070 C.2   244  HIS244      0.2264
     80  O         30.8880    6.9520   -5.7330 O.2   244  HIS244     -0.2867
     81  CB        33.0580    6.8940   -4.1470 C.3   244  HIS244      0.0745
     82  CG        34.3550    6.6480   -3.4490 C.ar  244  HIS244      0.0817
     83  ND1       35.4740    6.1770   -4.1020 N.ar  244  HIS244     -0.2268
     84  CD2       34.7110    6.7930   -2.1520 C.ar  244  HIS244      0.1154
     85  CE1       36.4670    6.0520   -3.2400 C.ar  244  HIS244      0.1986
     86  NE2       36.0270    6.4150   -2.0480 N.ar  244  HIS244     -0.2212
     87  N         32.8100    5.6250  -10.5920 N.3   247  HIS247     -0.1226
     88  CA        33.0670    4.1910  -10.6720 C.3   247  HIS247      0.1752
     89  C         31.7830    3.3740  -10.6100 C.2   247  HIS247      0.2596
     90  O         31.8080    2.1590  -10.7920 O.2   247  HIS247     -0.2718
     91  CB        34.1110    3.7230   -9.6530 C.3   247  HIS247      0.0759
     92  CG        33.6500    3.7610   -8.2290 C.ar  247  HIS247      0.0818
     93  ND1       34.5110    3.5670   -7.1740 N.ar  247  HIS247     -0.2268
     94  CD2       32.4270    3.9740   -7.6830 C.ar  247  HIS247      0.1154
     95  CE1       33.8380    3.6420   -6.0370 C.ar  247  HIS247      0.1986
     96  NE2       32.5720    3.8890   -6.3180 N.ar  247  HIS247     -0.2212
     97  N         30.6610    4.0580  -10.3880 N.am  248  ASP248     -0.1974
     98  CA        29.3460    3.4190  -10.3380 C.3   248  ASP248      0.1709
     99  C         28.7050    3.2890  -11.7150 C.2   248  ASP248      0.2293
    100  O         27.6840    2.6160  -11.8790 O.2   248  ASP248     -0.2864
    101  CB        28.3980    4.2230   -9.4590 C.3   248  ASP248      0.1436
    102  CG        28.6130    3.9780   -7.9830 C.2   248  ASP248      0.3671
    103  OD1       29.3940    3.0690   -7.6110 O.co2 248  ASP248     -0.2456
    104  OD2       27.9760    4.6910   -7.1900 O.co2 248  ASP248     -0.2456
    105  N         38.9440    5.3990   -6.6910 N.3   275  ASN275     -0.1240
    106  CA        39.9450    4.3480   -6.6740 C.3   275  ASN275      0.1653
    107  C         40.5430    4.1870   -8.0510 C.2   275  ASN275      0.2266
    108  O         39.8310    3.8980   -9.0020 O.2   275  ASN275     -0.2867
    109  CB        39.3050    3.0370   -6.2250 C.3   275  ASN275      0.1155
    110  CG        38.5280    3.1960   -4.9470 C.2   275  ASN275      0.2627
    111  OD1       38.9540    3.9140   -4.0500 O.2   275  ASN275     -0.2716
    112  ND2       37.3770    2.5470   -4.8600 N.am  275  ASN275     -0.0877
    113  N         36.6350   -4.8370   -4.6130 N.3   288  VAL288     -0.1245
    114  CA        35.6820   -3.7480   -4.6220 C.3   288  VAL288      0.1561
    115  C         35.2210   -3.4940   -6.0640 C.2   288  VAL288      0.2260
    116  O         34.0430   -3.2140   -6.3140 O.2   288  VAL288     -0.2867
    117  CB        36.2740   -2.4800   -3.9710 C.3   288  VAL288      0.0252
    118  CG1       35.3360   -1.2970   -4.1380 C.3   288  VAL288      0.0019
    119  CG2       36.5580   -2.7490   -2.5020 C.3   288  VAL288      0.0019
    120  N         32.5310   -5.9840   -6.5380 N.3   291  LEU291     -0.1231
    121  CA        31.3320   -5.4960   -5.8570 C.3   291  LEU291      0.1693
    122  C         30.5870   -4.4630   -6.7160 C.2   291  LEU291      0.2591
    123  O         29.3550   -4.5050   -6.8240 O.2   291  LEU291     -0.2718
    124  CB        31.6810   -4.8720   -4.5000 C.3   291  LEU291      0.0284
    125  CG        30.4810   -4.3660   -3.6870 C.3   291  LEU291      0.0019
    126  CD1       29.5490   -5.5190   -3.2910 C.3   291  LEU291      0.0001
    127  CD2       30.9390   -3.6030   -2.4490 C.3   291  LEU291      0.0001
    128  N         31.3320   -3.5280   -7.3050 N.am  292  LEU292     -0.1980
    129  CA        30.7210   -2.4860   -8.1280 C.3   292  LEU292      0.1596
    130  C         29.9900   -3.1450   -9.2840 C.2   292  LEU292      0.2287
    131  O         28.8390   -2.8120   -9.5910 O.2   292  LEU292     -0.2864
    132  CB        31.7720   -1.5020   -8.6550 C.3   292  LEU292      0.0297
    133  CG        32.4720   -0.5910   -7.6390 C.3   292  LEU292      0.0022
    134  CD1       33.5880    0.2300   -8.2720 C.3   292  LEU292      0.0001
    135  CD2       31.4770    0.3220   -6.9490 C.3   292  LEU292      0.0001
    136  N         26.7350   -4.9180   -7.8740 N.3   295  LEU295     -0.1231
    137  CA        25.7020   -4.0330   -7.3170 C.3   295  LEU295      0.1693
    138  C         25.0790   -3.0590   -8.3100 C.2   295  LEU295      0.2591
    139  O         23.8600   -2.9170   -8.3580 O.2   295  LEU295     -0.2718
    140  CB        26.2200   -3.2580   -6.0950 C.3   295  LEU295      0.0284
    141  CG        26.5300   -4.0640   -4.8300 C.3   295  LEU295      0.0019
    142  CD1       26.8820   -3.1590   -3.6480 C.3   295  LEU295      0.0001
    143  CD2       25.3650   -4.9810   -4.4770 C.3   295  LEU295      0.0001
    144  N         25.9070   -2.3920   -9.1070 N.am  296  VAL296     -0.1980
    145  CA        25.4130   -1.3110   -9.9560 C.3   296  VAL296      0.1595
    146  C         25.9750   -1.3460  -11.3730 C.2   296  VAL296      0.2287
    147  O         25.8140   -0.4000  -12.1350 O.2   296  VAL296     -0.2864
    148  CB        25.7360    0.0740   -9.3460 C.3   296  VAL296      0.0276
    149  CG1       24.9470    0.2820   -8.0640 C.3   296  VAL296      0.0022
    150  CG2       27.2360    0.2250   -9.1180 C.3   296  VAL296      0.0022
    151  N         42.8470    5.1280   -3.5560 N.3   328  VAL328     -0.1245
    152  CA        42.1780    6.4050   -3.7690 C.3   328  VAL328      0.1561
    153  C         43.1640    7.4410   -4.2520 C.2   328  VAL328      0.2260
    154  O         44.3180    7.4730   -3.8250 O.2   328  VAL328     -0.2867
    155  CB        41.5410    6.9620   -2.4890 C.3   328  VAL328      0.0252
    156  CG1       40.6580    8.1530   -2.8360 C.3   328  VAL328      0.0019
    157  CG2       40.7430    5.8800   -1.7680 C.3   328  VAL328      0.0019
@<TRIPOS>BOND
     1   147   146    2
     2   100    99    2
     3    99    98    1
     4   146   145    1
     5    90    89    2
     6    88    89    1
     7    88    87    1
     8    88    91    1
     9    89    97   am
    10    97    98    1
    11    98   101    1
    12   145   148    1
    13   145   144    1
    14    91    92    1
    15   131   130    2
    16   101   102    1
    17   148   150    1
    18   148   149    1
    19   130   129    1
    20    37    39   ar
    21    37    36   ar
    22   144   138   am
    23   108   107    2
    24    39    40   ar
    25   132   129    1
    26   132   133    1
    27   139   138    2
    28   138   137    1
    29   134   133    1
    30    92    94   ar
    31    92    93   ar
    32   129   128    1
    33   107   106    1
    34    36    35    1
    35    36    38   ar
    36   102   103   ar
    37   102   104   ar
    38   136   137    1
    39    35    32    1
    40    94    96   ar
    41    40    38   ar
    42    40    42   ar
    43   133   135    1
    44    20    21    1
    45   137   140    1
    46   128   122   am
    47    93    95   ar
    48    38    41   ar
    49    31    32    1
    50    31    22   am
    51    42    44   ar
    52   123   122    2
    53    32    33    1
    54   122   121    1
    55   105   106    1
    56   106   109    1
    57   120   121    1
    58    33    34    2
    59    24    21    1
    60    24    25    1
    61    21    22    1
    62    96    95   ar
    63   116   115    2
    64   109   110    1
    65    79    80    2
    66    79    78    1
    67   140   141    1
    68   115   114    1
    69    22    23    2
    70   121   124    1
    71    41    43   ar
    72    44    43   ar
    73    78    77    1
    74    78    81    1
    75    25    27   ar
    76    25    26   ar
    77   110   112   am
    78   110   111    2
    79    27    29   ar
    80   141   143    1
    81   141   142    1
    82   114   113    1
    83   114   117    1
    84   124   125    1
    85   153   154    2
    86   153   152    1
    87    81    82    1
    88   118   117    1
    89    83    82   ar
    90    83    85   ar
    91    26    28   ar
    92   117   119    1
    93   152   151    1
    94   152   155    1
    95    29    30   ar
    96   125   126    1
    97   125   127    1
    98    82    84   ar
    99    85    86   ar
   100   156   155    1
   101    28    30   ar
   102   155   157    1
   103    84    86   ar
   104    55    54   ar
   105    55    53   ar
   106    54    52   ar
   107    53    51   ar
   108    52    50   ar
   109    51    50   ar
   110    76    74   ar
   111    50    49    1
   112    19    18   ar
   113    19    17   ar
   114    75    74   ar
   115    18    16   ar
   116    74    73    1
   117    49    46    1
   118    17    15   ar
   119    16    14   ar
   120    73    72    1
   121    66    65    1
   122    72    69    1
   123    15    14   ar
   124    46    47    1
   125    46    45    1
   126    48    47    2
   127    14    13    1
   128    71    70    2
   129     8     6   ar
   130     7     6   ar
   131    65    67    1
   132    65    62    1
   133    69    70    1
   134    69    68    1
   135     6     5    1
   136    12    11    2
   137    58    59    2
   138    58    57    1
   139    60    57    1
   140    13    10    1
   141    11    10    1
   142    63    64    2
   143    63    62    1
   144    62    61    1
   145    10     9    1
   146    57    56    1
   147     5     2    1
   148     4     3    2
   149     2     3    1
   150     2     1    1
