@<TRIPOS>MOLECULE
tmp/3gxyB02.pdb
 99 97 0 0 0
SMALL
GASTEIGER

@<TRIPOS>ATOM
      1  N         31.9030   19.2000  126.4920 N.3     1  LEU1       -0.1231
      2  CA        31.1150   20.4380  126.2260 C.3     1  LEU1        0.1693
      3  C         29.9040   20.6170  127.1610 C.2     1  LEU1        0.2593
      4  O         29.1690   19.6770  127.4460 O.2     1  LEU1       -0.2718
      5  CB        30.7310   20.5350  124.7310 C.3     1  LEU1        0.0284
      6  CG        31.7760   21.3790  123.9640 C.3     1  LEU1        0.0019
      7  CD1       33.1730   20.7210  124.0720 C.3     1  LEU1        0.0001
      8  CD2       31.3960   21.7400  122.4880 C.3     1  LEU1        0.0001
      9  N         29.7190   21.8240  127.6630 N.am    2  GLY2       -0.1942
     10  CA        28.5110   22.1130  128.4430 C.3     2  GLY2        0.2014
     11  C         28.4380   21.3590  129.7510 C.2     2  GLY2        0.2639
     12  O         29.4000   21.3300  130.5000 O.2     2  GLY2       -0.2714
     13  N         27.2880   20.7610  130.0270 N.am    3  LYS3       -0.1963
     14  CA        27.0690   19.9110  131.2170 C.3     3  LYS3        0.1728
     15  C         27.1270   20.6220  132.5850 C.2     3  LYS3        0.2616
     16  O         27.2630   19.9720  133.6470 O.2     3  LYS3       -0.2715
     17  CB        27.9870   18.6820  131.1780 C.3     3  LYS3        0.0311
     18  CG        27.6280   17.7160  130.0570 C.3     3  LYS3        0.0038
     19  CD        28.7810   16.7880  129.7400 C.3     3  LYS3        0.0206
     20  CE        28.4630   15.9390  128.5020 C.3     3  LYS3        0.1093
     21  NZ        29.6800   15.3140  127.8870 N.3     3  LYS3       -0.1314
     22  N         26.9940   21.9500  132.5500 N.am    4  PHE4       -0.1974
     23  CA        27.0820   22.7850  133.7490 C.3     4  PHE4        0.1639
     24  C         26.1970   22.1630  134.8450 C.2     4  PHE4        0.2290
     25  O         26.5000   22.2420  136.0400 O.2     4  PHE4       -0.2864
     26  CB        26.6800   24.2550  133.4280 C.3     4  PHE4        0.0560
     27  CG        25.1940   24.5360  133.5380 C.ar    4  PHE4       -0.0200
     28  CD1       24.3370   24.2930  132.4750 C.ar    4  PHE4       -0.0042
     29  CD2       24.6580   25.0530  134.7030 C.ar    4  PHE4       -0.0042
     30  CE1       22.9530   24.5750  132.5750 C.ar    4  PHE4       -0.0003
     31  CE2       23.2910   25.3140  134.8190 C.ar    4  PHE4       -0.0003
     32  CZ        22.4390   25.0780  133.7450 C.ar    4  PHE4       -0.0000
     33  N         25.6470   19.2120  135.8860 N.3     6  GLN6       -0.1231
     34  CA        26.1750   18.2490  136.8250 C.3     6  GLN6        0.1698
     35  C         26.8640   18.8410  138.0840 C.2     6  GLN6        0.2592
     36  O         27.0000   18.1500  139.0710 O.2     6  GLN6       -0.2718
     37  CB        27.0470   17.2260  136.0810 C.3     6  GLN6        0.0381
     38  CG        26.2700   16.5450  134.9490 C.3     6  GLN6        0.0905
     39  CD        27.1480   15.7750  133.9570 C.2     6  GLN6        0.2608
     40  OE1       28.2890   15.4270  134.2480 O.2     6  GLN6       -0.2717
     41  NE2       26.6140   15.5220  132.7690 N.am    6  GLN6       -0.0878
     42  N         27.2760   20.1110  138.0740 N.am    7  THR7       -0.1953
     43  CA        27.9290   20.7050  139.2680 C.3     7  THR7        0.1897
     44  C         27.4060   22.1070  139.6800 C.2     7  THR7        0.2313
     45  O         28.1190   22.9080  140.2960 O.2     7  THR7       -0.2863
     46  CB        29.4620   20.7710  139.1040 C.3     7  THR7        0.1794
     47  OG1       29.7990   21.5970  137.9670 O.3     7  THR7       -0.2208
     48  CG2       30.0220   19.3880  138.8850 C.3     7  THR7        0.0378
     49  N         30.0690   24.7510  141.6100 N.3    23  GLU23      -0.1231
     50  CA        31.1540   24.4480  142.4810 C.3    23  GLU23       0.1699
     51  C         32.4260   24.8610  141.8220 C.2    23  GLU23       0.2592
     52  O         32.5390   24.8050  140.6020 O.2    23  GLU23      -0.2718
     53  CB        31.1700   22.9760  142.9080 C.3    23  GLU23       0.0402
     54  CG        31.0800   21.9450  141.8220 C.3    23  GLU23       0.1161
     55  CD        31.0690   20.5350  142.3970 C.2    23  GLU23       0.3649
     56  OE1       30.0970   20.1820  143.1120 O.co2  23  GLU23      -0.2457
     57  OE2       32.0370   19.7780  142.1360 O.co2  23  GLU23      -0.2457
     58  N         33.3610   25.3390  142.6320 N.am   24  ARG24      -0.1966
     59  CA        34.6860   25.6650  142.1440 C.3    24  ARG24       0.1729
     60  C         35.4990   24.3900  142.0170 C.2    24  ARG24       0.2617
     61  O         35.1370   23.3450  142.5860 O.2    24  ARG24      -0.2715
     62  CB        35.3600   26.6590  143.0670 C.3    24  ARG24       0.0348
     63  CG        34.6760   27.9850  143.0360 C.3    24  ARG24       0.0492
     64  CD        35.5520   29.0650  143.6080 C.3    24  ARG24       0.2205
     65  NE        35.0870   30.3690  143.1430 N.pl3  24  ARG24      -0.0865
     66  CZ        35.8220   31.4810  143.1260 C.cat  24  ARG24       0.5346
     67  NH1       37.0780   31.4740  143.5580 N.pl3  24  ARG24       0.1354
     68  NH2       35.2940   32.6120  142.6550 N.pl3  24  ARG24       0.1354
     69  N         36.5920   24.4490  141.2660 N.am   25  THR25      -0.1937
     70  CA        37.3070   23.2010  140.9710 C.3    25  THR25       0.2028
     71  C         37.5890   22.3570  142.2150 C.2    25  THR25       0.2642
     72  O         37.8420   21.1570  142.1070 O.2    25  THR25      -0.2714
     73  CB        38.5870   23.4230  140.1370 C.3    25  THR25       0.1808
     74  OG1       38.2240   24.0080  138.8750 O.3    25  THR25      -0.2208
     75  CG2       39.2870   22.0900  139.8850 C.3    25  THR25       0.0379
     76  N         37.5130   22.9730  143.3920 N.am   26  ASN26      -0.1957
     77  CA        37.8070   22.2780  144.6450 C.3    26  ASN26       0.1819
     78  C         37.1210   22.9700  145.8120 C.2    26  ASN26       0.2621
     79  O         37.7660   23.6900  146.5660 O.2    26  ASN26      -0.2715
     80  CB        39.3140   22.2770  144.8910 C.3    26  ASN26       0.1195
     81  CG        39.9380   23.6210  144.5710 C.2    26  ASN26       0.2630
     82  OD1       39.3270   24.6670  144.8010 O.2    26  ASN26      -0.2716
     83  ND2       41.1400   23.6020  144.0080 N.am   26  ASN26      -0.0877
     84  N         35.8110   22.7570  145.9530 N.am   27  GLY27      -0.1954
     85  CA        35.0470   23.3920  147.0270 C.3    27  GLY27       0.1869
     86  C         35.0040   24.9100  146.9010 C.2    27  GLY27       0.2309
     87  O         35.7640   25.5350  146.1370 O.2    27  GLY27      -0.2863
     88  N         31.9620   27.8500  146.2850 N.3    29  TYR29      -0.1241
     89  CA        30.8770   27.8960  145.3670 C.3    29  TYR29       0.1605
     90  C         30.8620   29.2960  144.8930 C.2    29  TYR29       0.2264
     91  O         31.2920   30.1920  145.6100 O.2    29  TYR29      -0.2867
     92  CB        29.5660   27.6050  146.0850 C.3    29  TYR29       0.0534
     93  CG        29.3650   26.1400  146.2460 C.ar   29  TYR29      -0.0201
     94  CD1       29.8500   25.4650  147.3690 C.ar   29  TYR29      -0.0009
     95  CD2       28.7460   25.4120  145.2460 C.ar   29  TYR29      -0.0009
     96  CE1       29.6960   24.1070  147.4930 C.ar   29  TYR29       0.0417
     97  CE2       28.5840   24.0600  145.3610 C.ar   29  TYR29       0.0417
     98  CZ        29.0650   23.4150  146.4720 C.ar   29  TYR29       0.1957
     99  OH        28.8820   22.0610  146.5450 O.3    29  TYR29      -0.2866
@<TRIPOS>BOND
     1     8     6    1
     2     6     7    1
     3     6     5    1
     4     5     2    1
     5     2     1    1
     6     2     3    1
     7     3     4    2
     8     3     9   am
     9     9    10    1
    10    21    20    1
    11    10    11    1
    12    20    19    1
    13    19    18    1
    14    11    13   am
    15    11    12    2
    16    13    14    1
    17    18    17    1
    18    17    14    1
    19    14    15    1
    20    28    30   ar
    21    28    27   ar
    22    22    15   am
    23    22    23    1
    24    30    32   ar
    25    15    16    2
    26    41    39   am
    27    26    27    1
    28    26    23    1
    29    27    29   ar
    30    32    31   ar
    31    23    24    1
    32    39    40    2
    33    39    38    1
    34    29    31   ar
    35    24    25    2
    36    38    37    1
    37    33    34    1
    38    37    34    1
    39    34    35    1
    40    47    46    1
    41    42    35   am
    42    42    43    1
    43    35    36    2
    44    74    73    1
    45    48    46    1
    46    46    43    1
    47    43    44    1
    48    44    45    2
    49    75    73    1
    50    73    70    1
    51    52    51    2
    52    70    69    1
    53    70    71    1
    54    69    60   am
    55    49    50    1
    56    54    55    1
    57    54    53    1
    58    51    50    1
    59    51    58   am
    60    60    59    1
    61    60    61    2
    62    72    71    2
    63    57    55   ar
    64    59    58    1
    65    59    62    1
    66    71    76   am
    67    55    56   ar
    68    50    53    1
    69    68    66    1
    70    63    62    1
    71    63    64    1
    72    66    65    2
    73    66    67    1
    74    65    64    1
    75    76    77    1
    76    83    81   am
    77    81    82    2
    78    81    80    1
    79    77    80    1
    80    77    78    1
    81    90    89    1
    82    90    91    2
    83    95    97   ar
    84    95    93   ar
    85    97    98   ar
    86    89    92    1
    87    89    88    1
    88    78    84   am
    89    78    79    2
    90    84    85    1
    91    92    93    1
    92    87    86    2
    93    93    94   ar
    94    98    99    1
    95    98    96   ar
    96    86    85    1
    97    94    96   ar
