@<TRIPOS>MOLECULE
tmp/3gxzB01.pdb
 89 87 0 0 0
SMALL
GASTEIGER

@<TRIPOS>ATOM
      1  N         31.6570   19.0860  125.8650 N.3     1  LEU1       -0.1231
      2  CA        31.4430   20.5180  126.2690 C.3     1  LEU1        0.1693
      3  C         30.2620   20.7770  127.2370 C.2     1  LEU1        0.2593
      4  O         29.4180   19.9100  127.4660 O.2     1  LEU1       -0.2718
      5  CB        31.2810   21.4170  125.0310 C.3     1  LEU1        0.0284
      6  CG        32.4480   21.7520  124.0760 C.3     1  LEU1        0.0019
      7  CD1       31.9720   22.6770  122.9380 C.3     1  LEU1        0.0001
      8  CD2       33.6750   22.3560  124.7770 C.3     1  LEU1        0.0001
      9  N         30.2240   21.9780  127.8150 N.am    2  GLY2       -0.1942
     10  CA        29.0970   22.4090  128.6570 C.3     2  GLY2        0.2014
     11  C         28.8940   21.6970  129.9940 C.2     2  GLY2        0.2639
     12  O         29.6810   21.8790  130.9470 O.2     2  GLY2       -0.2714
     13  N         27.8120   20.9130  130.0750 N.am    3  LYS3       -0.1963
     14  CA        27.4920   20.0840  131.2660 C.3     3  LYS3        0.1728
     15  C         27.4200   20.8110  132.6300 C.2     3  LYS3        0.2616
     16  O         27.1660   20.1870  133.6650 O.2     3  LYS3       -0.2715
     17  CB        28.4720   18.9000  131.3570 C.3     3  LYS3        0.0311
     18  CG        28.1710   17.7130  130.4140 C.3     3  LYS3        0.0038
     19  CD        29.4830   17.0530  129.9340 C.3     3  LYS3        0.0206
     20  CE        29.2420   16.0310  128.8190 C.3     3  LYS3        0.1093
     21  NZ        30.3850   15.9190  127.8280 N.3     3  LYS3       -0.1314
     22  N         27.6350   22.1240  132.6350 N.am    4  PHE4       -0.1974
     23  CA        27.7320   22.9020  133.8860 C.3     4  PHE4        0.1639
     24  C         26.8740   22.3710  135.0290 C.2     4  PHE4        0.2290
     25  O         27.2670   22.5090  136.1890 O.2     4  PHE4       -0.2864
     26  CB        27.3730   24.3780  133.6590 C.3     4  PHE4        0.0560
     27  CG        25.8970   24.6680  133.7910 C.ar    4  PHE4       -0.0200
     28  CD1       24.9680   24.0390  132.9710 C.ar    4  PHE4       -0.0042
     29  CD2       25.4340   25.5540  134.7360 C.ar    4  PHE4       -0.0042
     30  CE1       23.6050   24.3100  133.0920 C.ar    4  PHE4       -0.0003
     31  CE2       24.0710   25.8040  134.8710 C.ar    4  PHE4       -0.0003
     32  CZ        23.1570   25.1900  134.0520 C.ar    4  PHE4       -0.0000
     33  N         25.9640   19.5610  136.3720 N.3     6  GLN6       -0.1231
     34  CA        26.4250   18.5360  137.2890 C.3     6  GLN6        0.1698
     35  C         27.1060   19.1230  138.5180 C.2     6  GLN6        0.2593
     36  O         26.9080   18.6200  139.6190 O.2     6  GLN6       -0.2718
     37  CB        27.3480   17.5580  136.5710 C.3     6  GLN6        0.0381
     38  CG        26.6200   16.7420  135.5330 C.3     6  GLN6        0.0905
     39  CD        27.5590   16.1600  134.5140 C.2     6  GLN6        0.2608
     40  OE1       27.1230   15.5970  133.5130 O.2     6  GLN6       -0.2717
     41  NE2       28.8670   16.2980  134.7520 N.am    6  GLN6       -0.0878
     42  N         27.8850   20.1890  138.3480 N.am    7  THR7       -0.1939
     43  CA        28.4990   20.8640  139.5010 C.3     7  THR7        0.2028
     44  C         27.9370   22.2750  139.8300 C.2     7  THR7        0.2642
     45  O         28.6840   23.1650  140.2660 O.2     7  THR7       -0.2714
     46  CB        30.0030   21.0350  139.3000 C.3     7  THR7        0.1808
     47  OG1       30.2340   22.1410  138.4090 O.3     7  THR7       -0.2208
     48  CG2       30.6160   19.7720  138.7310 C.3     7  THR7        0.0379
     49  N         26.6380   22.4850  139.6430 N.am    8  CYS8       -0.1967
     50  CA        26.0330   23.7630  140.0240 C.3     8  CYS8        0.1712
     51  C         24.6820   23.5000  140.6410 C.2     8  CYS8        0.2296
     52  O         24.0750   22.4660  140.3960 O.2     8  CYS8       -0.2864
     53  CB        25.8490   24.6780  138.8000 C.3     8  CYS8        0.0983
     54  SG        27.3560   25.0440  137.8720 S.3     8  CYS8       -0.0798
     55  N         30.5700   24.9450  142.0360 N.3    23  GLU23      -0.1231
     56  CA        31.7420   24.6470  142.8370 C.3    23  GLU23       0.1699
     57  C         32.9740   25.2650  142.2060 C.2    23  GLU23       0.2592
     58  O         33.2710   24.9980  141.0470 O.2    23  GLU23      -0.2718
     59  CB        31.9780   23.1440  142.9280 C.3    23  GLU23       0.0402
     60  CG        30.7320   22.2850  142.9000 C.3    23  GLU23       0.1161
     61  CD        31.0520   20.7910  142.7690 C.2    23  GLU23       0.3649
     62  OE1       32.2080   20.4520  142.4100 O.co2  23  GLU23      -0.2457
     63  OE2       30.1400   19.9600  143.0130 O.co2  23  GLU23      -0.2457
     64  N         33.7040   26.0890  142.9460 N.am   24  ARG24      -0.1966
     65  CA        35.0410   26.4300  142.5010 C.3    24  ARG24       0.1729
     66  C         35.7960   25.1280  142.3600 C.2    24  ARG24       0.2617
     67  O         35.4400   24.1120  142.9790 O.2    24  ARG24      -0.2715
     68  CB        35.7460   27.3360  143.4890 C.3    24  ARG24       0.0348
     69  CG        35.8430   28.7530  143.0160 C.3    24  ARG24       0.0492
     70  CD        37.1640   29.0010  142.2970 C.3    24  ARG24       0.2205
     71  NE        37.5950   30.3660  142.5660 N.pl3  24  ARG24      -0.0865
     72  CZ        36.9320   31.1900  143.3780 C.cat  24  ARG24       0.5346
     73  NH1       35.8200   30.7730  143.9800 N.pl3  24  ARG24       0.1354
     74  NH2       37.3670   32.4270  143.5900 N.pl3  24  ARG24       0.1354
     75  N         36.8280   25.1430  141.5310 N.am   25  THR25      -0.1937
     76  CA        37.5240   23.9050  141.2150 C.3    25  THR25       0.2028
     77  C         37.9600   23.2030  142.5180 C.2    25  THR25       0.2642
     78  O         37.5920   22.0440  142.7780 O.2    25  THR25      -0.2714
     79  CB        38.7140   24.1790  140.2910 C.3    25  THR25       0.1808
     80  OG1       38.9810   23.0100  139.5000 O.3    25  THR25      -0.2208
     81  CG2       39.9440   24.5840  141.1190 C.3    25  THR25       0.0379
     82  N         38.7250   23.9270  143.3380 N.am   26  ASN26      -0.1971
     83  CA        39.0980   23.4730  144.6820 C.3    26  ASN26       0.1688
     84  C         38.4850   24.4110  145.7240 C.2    26  ASN26       0.2292
     85  O         38.7740   25.6150  145.7280 O.2    26  ASN26      -0.2864
     86  CB        40.6220   23.4840  144.8290 C.3    26  ASN26       0.1181
     87  CG        41.3210   22.7570  143.6830 C.2    26  ASN26       0.2629
     88  OD1       41.2750   21.5190  143.5990 O.2    26  ASN26      -0.2716
     89  ND2       41.9750   23.5240  142.7900 N.am   26  ASN26      -0.0877
@<TRIPOS>BOND
     1     7     6    1
     2     6     8    1
     3     6     5    1
     4     5     2    1
     5     1     2    1
     6     2     3    1
     7     3     4    2
     8     3     9   am
     9     9    10    1
    10    21    20    1
    11    10    11    1
    12    20    19    1
    13    19    18    1
    14    11    13   am
    15    11    12    2
    16    13    14    1
    17    18    17    1
    18    14    17    1
    19    14    15    1
    20    15    22   am
    21    15    16    2
    22    22    23    1
    23    28    30   ar
    24    28    27   ar
    25    30    32   ar
    26    40    39    2
    27    26    27    1
    28    26    23    1
    29    27    29   ar
    30    23    24    1
    31    32    31   ar
    32    39    41   am
    33    39    38    1
    34    29    31   ar
    35    24    25    2
    36    38    37    1
    37    33    34    1
    38    37    34    1
    39    34    35    1
    40    54    53    1
    41    42    35   am
    42    42    43    1
    43    47    46    1
    44    35    36    2
    45    48    46    1
    46    53    50    1
    47    46    43    1
    48    80    79    1
    49    43    44    1
    50    49    44   am
    51    49    50    1
    52    44    45    2
    53    50    51    1
    54    79    81    1
    55    79    76    1
    56    52    51    2
    57    58    57    2
    58    76    75    1
    59    76    77    1
    60    75    66   am
    61    55    56    1
    62    57    56    1
    63    57    64   am
    64    70    71    1
    65    70    69    1
    66    66    65    1
    67    66    67    2
    68    62    61   ar
    69    65    64    1
    70    65    68    1
    71    77    78    2
    72    77    82   am
    73    71    72    2
    74    61    60    1
    75    61    63   ar
    76    89    87   am
    77    56    59    1
    78    60    59    1
    79    69    68    1
    80    82    83    1
    81    72    74    1
    82    72    73    1
    83    88    87    2
    84    87    86    1
    85    83    86    1
    86    83    84    1
    87    84    85    2
