@<TRIPOS>MOLECULE
tmp/3gy3A00.pdb
 155 151 0 0 0
SMALL
GASTEIGER

@<TRIPOS>ATOM
      1  N        -17.5320   23.0270   43.6070 N.3    40  HIS40      -0.1241
      2  CA       -16.6030   24.1220   43.8720 C.3    40  HIS40       0.1621
      3  C        -15.5340   24.2230   42.7730 C.2    40  HIS40       0.2264
      4  O        -14.7850   25.1930   42.7090 O.2    40  HIS40      -0.2867
      5  CB       -16.0090   24.0360   45.2750 C.3    40  HIS40       0.0745
      6  CG       -14.8820   23.0640   45.4050 C.ar   40  HIS40       0.0817
      7  ND1      -15.0540   21.7920   45.9010 N.ar   40  HIS40      -0.2268
      8  CD2      -13.5550   23.1990   45.1630 C.ar   40  HIS40       0.1154
      9  CE1      -13.8900   21.1710   45.9250 C.ar   40  HIS40       0.1986
     10  NE2      -12.9630   22.0070   45.4880 N.ar   40  HIS40      -0.2212
     11  N        -22.1260   27.0150   48.3020 N.3    78  SER78      -0.1202
     12  CA       -20.6970   27.2570   48.2620 C.3    78  SER78       0.2020
     13  C        -20.1550   27.6610   49.6250 C.2    78  SER78       0.2619
     14  O        -18.9860   27.5130   49.8880 O.2    78  SER78      -0.2717
     15  CB       -20.3630   28.3230   47.2190 C.3    78  SER78       0.2103
     16  OG       -21.0510   29.5050   47.5350 O.3    78  SER78      -0.2182
     17  N        -21.0160   28.1580   50.5030 N.am   79  ASN79      -0.1960
     18  CA       -20.5440   28.5550   51.8270 C.3    79  ASN79       0.1819
     19  C        -20.1530   27.3510   52.6620 C.2    79  ASN79       0.2622
     20  O        -19.1520   27.3930   53.3570 O.2    79  ASN79      -0.2715
     21  CB       -21.5640   29.4290   52.5440 C.3    79  ASN79       0.1195
     22  CG       -21.6700   30.8270   51.9170 C.2    79  ASN79       0.2630
     23  OD1      -22.6580   31.5340   52.1040 O.2    79  ASN79      -0.2716
     24  ND2      -20.6610   31.2040   51.1470 N.am   79  ASN79      -0.0877
     25  N        -20.9330   26.2750   52.5450 N.am   80  THR80      -0.1937
     26  CA       -20.7720   25.0990   53.3910 C.3    80  THR80       0.2028
     27  C        -20.2300   23.9220   52.5990 C.2    80  THR80       0.2642
     28  O        -19.9000   22.8860   53.1770 O.2    80  THR80      -0.2714
     29  CB       -22.1100   24.6300   53.9460 C.3    80  THR80       0.1808
     30  OG1      -22.9670   24.3020   52.8450 O.3    80  THR80      -0.2208
     31  CG2      -22.7530   25.7330   54.7880 C.3    80  THR80       0.0379
     32  N        -20.1750   24.1010   51.2760 N.am   81  LEU81      -0.1977
     33  CA       -19.8960   23.0290   50.3140 C.3    81  LEU81       0.1596
     34  C        -20.8810   21.8630   50.4280 C.2    81  LEU81       0.2287
     35  O        -20.6110   20.7530   49.9840 O.2    81  LEU81      -0.2864
     36  CB       -18.4610   22.5120   50.4310 C.3    81  LEU81       0.0297
     37  CG       -17.3790   23.5780   50.1990 C.3    81  LEU81       0.0022
     38  CD1      -15.9930   22.9690   50.2680 C.3    81  LEU81       0.0001
     39  CD2      -17.5880   24.2900   48.8880 C.3    81  LEU81       0.0001
     40  N        -19.9980   21.1470   60.5260 N.3   155  GLN155     -0.1245
     41  CA       -19.7010   21.3300   59.1010 C.3   155  GLN155      0.1566
     42  C        -20.0730   20.1440   58.2270 C.2   155  GLN155      0.2260
     43  O        -20.2030   20.2840   57.0180 O.2   155  GLN155     -0.2867
     44  CB       -18.2390   21.6490   58.9040 C.3   155  GLN155      0.0367
     45  CG       -17.8370   23.0090   59.4230 C.3   155  GLN155      0.0905
     46  CD       -16.5330   23.4550   58.8040 C.2   155  GLN155      0.2608
     47  OE1      -16.5110   24.3630   57.9840 O.2   155  GLN155     -0.2717
     48  NE2      -15.4480   22.8120   59.1850 N.am  155  GLN155     -0.0878
     49  N         -3.7420   12.0420   52.5790 N.3   171  ASP171     -0.1225
     50  CA        -4.9680   12.7910   52.3470 C.3   171  ASP171      0.1805
     51  C         -4.9560   13.2630   50.9060 C.2   171  ASP171      0.2598
     52  O         -3.9200   13.1840   50.2180 O.2   171  ASP171     -0.2718
     53  CB        -4.9370   13.9870   53.2940 C.3   171  ASP171      0.1424
     54  CG        -6.2750   14.7140   53.4470 C.2   171  ASP171      0.3668
     55  OD1       -6.2430   15.7210   54.1890 O.co2 171  ASP171     -0.2456
     56  OD2       -7.3200   14.3060   52.8850 O.co2 171  ASP171     -0.2456
     57  N         -6.1160   13.7020   50.4310 N.am  172  SER172     -0.1938
     58  CA        -6.1560   14.5070   49.2300 C.3   172  SER172      0.2055
     59  C         -5.8080   15.9260   49.6540 C.2   172  SER172      0.2643
     60  O         -5.6160   16.2050   50.8400 O.2   172  SER172     -0.2714
     61  CB        -7.5330   14.4360   48.5750 C.3   172  SER172      0.2130
     62  OG        -8.5580   14.8140   49.4800 O.3   172  SER172     -0.2179
     63  N         -5.7330   16.8370   48.6980 N.am  173  CYS173     -0.1953
     64  CA        -5.2970   18.1660   49.0320 C.3   173  CYS173      0.1843
     65  C         -5.7900   19.0810   47.9200 C.2   173  CYS173      0.2625
     66  O         -6.4790   18.6200   47.0080 O.2   173  CYS173     -0.2714
     67  CB        -3.7720   18.1550   49.1600 C.3   173  CYS173      0.0997
     68  SG        -3.1570   19.6160   49.9370 S.3   173  CYS173     -0.0797
     69  N         -5.4760   20.3690   48.0000 N.am  174  GLN174     -0.1977
     70  CA        -5.8950   21.2940   46.9490 C.3   174  GLN174      0.1601
     71  C         -5.3160   20.8490   45.6110 C.2   174  GLN174      0.2287
     72  O         -4.1750   20.3930   45.5270 O.2   174  GLN174     -0.2864
     73  CB        -5.4750   22.7260   47.2690 C.3   174  GLN174      0.0394
     74  CG        -6.3690   23.4020   48.3030 C.3   174  GLN174      0.0908
     75  CD        -5.9450   23.1340   49.7400 C.2   174  GLN174      0.2608
     76  OE1       -5.0230   22.3560   50.0000 O.2   174  GLN174     -0.2717
     77  NE2       -6.6160   23.7930   50.6850 N.am  174  GLN174     -0.0878
     78  N         -9.3130   18.4700   44.2580 N.3   177  SER177     -0.1217
     79  CA       -10.7280   18.8530   44.2850 C.3   177  SER177      0.1889
     80  C        -11.4520   18.3260   43.0740 C.2   177  SER177      0.2288
     81  O        -11.0030   18.5200   41.9460 O.2   177  SER177     -0.2866
     82  CB       -10.8420   20.3640   44.2120 C.3   177  SER177      0.2089
     83  OG       -10.5130   20.9410   45.4470 O.3   177  SER177     -0.2183
     84  N        -13.5760   14.5580   45.8210 N.3   191  VAL191     -0.1231
     85  CA       -12.7220   15.3810   46.6410 C.3   191  VAL191      0.1692
     86  C        -13.3740   16.7480   46.8040 C.2   191  VAL191      0.2593
     87  O        -13.6210   17.4580   45.8410 O.2   191  VAL191     -0.2718
     88  CB       -11.2830   15.4980   46.0710 C.3   191  VAL191      0.0266
     89  CG1      -10.4390   16.3500   47.0060 C.3   191  VAL191      0.0020
     90  CG2      -10.6690   14.1150   45.8700 C.3   191  VAL191      0.0020
     91  N        -13.6930   17.0810   48.0440 N.am  192  SER192     -0.1938
     92  CA       -14.5080   18.2530   48.3070 C.3   192  SER192      0.2055
     93  C        -13.7400   19.2180   49.1660 C.2   192  SER192      0.2643
     94  O        -13.3980   20.3050   48.7230 O.2   192  SER192     -0.2714
     95  CB       -15.8480   17.8690   48.9800 C.3   192  SER192      0.2130
     96  OG       -16.7070   18.9930   49.1180 O.3   192  SER192     -0.2179
     97  N        -13.4760   18.8430   50.4100 N.am  193  TRP193     -0.1959
     98  CA       -12.8070   19.8070   51.2730 C.3   193  TRP193      0.1771
     99  C        -12.1290   19.1370   52.4410 C.2   193  TRP193      0.2620
    100  O        -12.0300   17.9180   52.5230 O.2   193  TRP193     -0.2715
    101  CB       -13.8060   20.8600   51.7800 C.3   193  TRP193      0.0590
    102  CG       -14.9100   20.2980   52.6110 C.ar  193  TRP193      0.0006
    103  CD1      -15.9970   19.5770   52.1760 C.ar  193  TRP193      0.0946
    104  CD2      -15.0370   20.3950   54.0370 C.ar  193  TRP193      0.0152
    105  NE1      -16.7880   19.2030   53.2550 N.ar  193  TRP193     -0.2442
    106  CE2      -16.2270   19.7140   54.4030 C.ar  193  TRP193      0.0810
    107  CE3      -14.2550   20.9920   55.0410 C.ar  193  TRP193      0.0012
    108  CZ2      -16.6590   19.6140   55.7370 C.ar  193  TRP193      0.0191
    109  CZ3      -14.6930   20.8880   56.3690 C.ar  193  TRP193      0.0001
    110  CH2      -15.8740   20.2130   56.7000 C.ar  193  TRP193      0.0015
    111  N        -11.6250   19.9560   53.3440 N.am  194  GLY194     -0.1940
    112  CA       -10.9130   19.4130   54.4910 C.3   194  GLY194      0.2014
    113  C        -10.2480   20.6070   55.1080 C.2   194  GLY194      0.2640
    114  O        -10.5330   21.7320   54.7360 O.2   194  GLY194     -0.2714
    115  N         -9.3420   20.3730   56.0010 N.am  195  SER195     -0.1935
    116  CA        -8.6240   21.4770   56.6130 C.3   195  SER195      0.2055
    117  C         -7.1370   21.2270   56.4790 C.2   195  SER195      0.2644
    118  O         -6.7000   20.2420   56.9680 O.2   195  SER195     -0.2714
    119  CB        -9.0800   21.6610   58.0520 C.3   195  SER195      0.2130
    120  OG        -8.2840   22.6300   58.6170 O.3   195  SER195     -0.2179
    121  N         -6.3990   22.0640   55.7310 N.am  196  GLY196     -0.1939
    122  CA        -5.0660   21.7450   55.3920 C.3   196  GLY196      0.2014
    123  C         -5.1050   20.4540   54.6400 C.2   196  GLY196      0.2639
    124  O         -6.0590   20.1610   54.0390 O.2   196  GLY196     -0.2714
    125  N         -4.0230   19.7170   54.6990 N.am  197  CYS197     -0.1967
    126  CA        -3.9900   18.4170   54.0570 C.3   197  CYS197      0.1712
    127  C         -3.1680   17.4660   54.8810 C.2   197  CYS197      0.2296
    128  O         -2.0500   17.7950   55.2930 O.2   197  CYS197     -0.2864
    129  CB        -3.3820   18.5270   52.6750 C.3   197  CYS197      0.0983
    130  SG        -4.1920   19.7240   51.6530 S.3   197  CYS197     -0.0798
    131  N         -7.7810   15.8350   60.9070 N.3   202  LYS202     -0.1245
    132  CA        -8.4770   16.6220   59.8890 C.3   202  LYS202      0.1561
    133  C         -8.5020   15.8310   58.5810 C.2   202  LYS202      0.2260
    134  O         -7.7730   16.1160   57.6350 O.2   202  LYS202     -0.2867
    135  CB        -7.8920   18.0350   59.7560 C.3   202  LYS202      0.0271
    136  CG        -8.0670   18.8950   61.0320 C.3   202  LYS202      0.0035
    137  CD        -9.5430   19.1770   61.3560 C.3   202  LYS202      0.0206
    138  CE        -9.7620   19.5800   62.8240 C.3   202  LYS202      0.1093
    139  NZ        -9.9270   18.4110   63.7490 N.3   202  LYS202     -0.1314
    140  N         -9.8560   14.0870   55.0120 N.3   204  GLY204     -0.1225
    141  CA       -10.4800   14.6290   53.8350 C.3   204  GLY204      0.1811
    142  C        -11.9830   14.4820   53.9530 C.2   204  GLY204      0.2280
    143  O        -12.4970   13.4910   54.4790 O.2   204  GLY204     -0.2866
    144  N        -15.4470   14.4620   51.6100 N.3   206  TYR206     -0.1241
    145  CA       -15.7800   14.0410   50.2770 C.3   206  TYR206      0.1605
    146  C        -17.2620   14.1240   50.1120 C.2   206  TYR206      0.2264
    147  O        -18.0160   13.8150   51.0160 O.2   206  TYR206     -0.2867
    148  CB       -15.2900   12.6010   50.0400 C.3   206  TYR206      0.0534
    149  CG       -13.8050   12.5300   50.2220 C.ar  206  TYR206     -0.0201
    150  CD1      -12.9680   12.9220   49.1900 C.ar  206  TYR206     -0.0009
    151  CD2      -13.2330   12.1910   51.4590 C.ar  206  TYR206     -0.0009
    152  CE1      -11.5990   12.8960   49.3250 C.ar  206  TYR206      0.0417
    153  CE2      -11.8280   12.1740   51.6200 C.ar  206  TYR206      0.0417
    154  CZ       -11.0360   12.5580   50.5440 C.ar  206  TYR206      0.1957
    155  OH        -9.6940   12.5890   50.5870 O.3   206  TYR206     -0.2866
@<TRIPOS>BOND
     1    81    80    2
     2     4     3    2
     3     3     2    1
     4    80    79    1
     5     1     2    1
     6     2     5    1
     7    82    79    1
     8    82    83    1
     9    78    79    1
    10     8     6   ar
    11     8    10   ar
    12     5     6    1
    13     6     7   ar
    14    10     9   ar
    15    72    71    2
    16    71    70    1
    17    84    85    1
    18    87    86    2
    19    90    88    1
    20     7     9   ar
    21    88    85    1
    22    88    89    1
    23    85    86    1
    24    86    91   am
    25    70    73    1
    26    70    69    1
    27    66    65    2
    28    15    16    1
    29    15    12    1
    30    73    74    1
    31    65    69   am
    32    65    64    1
    33    91    92    1
    34    12    11    1
    35    12    13    1
    36    74    75    1
    37    92    95    1
    38    92    93    1
    39    61    58    1
    40    61    62    1
    41    63    64    1
    42    63    59   am
    43    94    93    2
    44    39    37    1
    45    95    96    1
    46    64    67    1
    47    67    68    1
    48    93    97   am
    49   150   152   ar
    50   150   149   ar
    51    58    59    1
    52    58    57    1
    53   152   154   ar
    54    13    14    2
    55    13    17   am
    56    59    60    2
    57    75    76    2
    58    75    77   am
    59    68   130    1
    60    35    34    2
    61   148   149    1
    62   148   145    1
    63   146   145    1
    64   146   147    2
    65    37    38    1
    66    37    36    1
    67    52    51    2
    68   149   151   ar
    69   145   144    1
    70    33    34    1
    71    33    36    1
    72    33    32    1
    73    97    98    1
    74    57    51   am
    75    17    18    1
    76   154   155    1
    77   154   153   ar
    78    51    50    1
    79    24    22   am
    80    98   101    1
    81    98    99    1
    82    32    27   am
    83   151   153   ar
    84   130   129    1
    85   101   102    1
    86    18    21    1
    87    18    19    1
    88    22    23    2
    89    22    21    1
    90   103   102   ar
    91   103   105   ar
    92    50    49    1
    93    50    53    1
    94    99   100    2
    95    99   111   am
    96    25    19   am
    97    25    26    1
    98    27    28    2
    99    27    26    1
   100   102   104   ar
   101    19    20    2
   102   129   126    1
   103    30    29    1
   104    56    54   ar
   105   105   106   ar
   106    53    54    1
   107   111   112    1
   108    26    29    1
   109    54    55   ar
   110   141   142    1
   111   141   140    1
   112    29    31    1
   113   142   143    2
   114   104   106   ar
   115   104   107   ar
   116   124   123    2
   117   126   125    1
   118   126   127    1
   119   106   108   ar
   120   112   113    1
   121   123   125   am
   122   123   122    1
   123   114   113    2
   124   127   128    2
   125   107   109   ar
   126   113   115   am
   127   122   121    1
   128   121   117   am
   129   108   110   ar
   130   115   116    1
   131   109   110   ar
   132   117   116    1
   133   117   118    2
   134   116   119    1
   135    43    42    2
   136   134   133    2
   137    47    46    2
   138   119   120    1
   139    42    41    1
   140   133   132    1
   141    46    48   am
   142    46    45    1
   143    44    41    1
   144    44    45    1
   145    41    40    1
   146   135   132    1
   147   135   136    1
   148   132   131    1
   149   136   137    1
   150   137   138    1
   151   138   139    1
