@<TRIPOS>MOLECULE
tmp/3gy5A00.pdb
 143 139 0 0 0
SMALL
GASTEIGER

@<TRIPOS>ATOM
      1  N          7.1510   16.3950   24.2950 N.3    40  HIS40      -0.1241
      2  CA         6.2430   17.5260   24.3380 C.3    40  HIS40       0.1621
      3  C          5.1640   17.3450   25.4000 C.2    40  HIS40       0.2264
      4  O          4.4210   18.2730   25.6770 O.2    40  HIS40      -0.2867
      5  CB         5.6710   17.8460   22.9700 C.3    40  HIS40       0.0745
      6  CG         4.5150   16.9940   22.5790 C.ar   40  HIS40       0.0817
      7  ND1        4.6330   15.9460   21.6920 N.ar   40  HIS40      -0.2268
      8  CD2        3.2110   17.0510   22.9340 C.ar   40  HIS40       0.1154
      9  CE1        3.4480   15.3880   21.5210 C.ar   40  HIS40       0.1986
     10  NE2        2.5660   16.0460   22.2570 N.ar   40  HIS40      -0.2212
     11  N         15.8580   16.9370   22.1390 N.3    76  TYR76      -0.1241
     12  CA        14.4840   17.2650   21.8310 C.3    76  TYR76       0.1605
     13  C         14.4260   18.7140   21.4030 C.2    76  TYR76       0.2264
     14  O         14.9330   19.5830   22.1040 O.2    76  TYR76      -0.2867
     15  CB        13.6210   17.0610   23.0490 C.3    76  TYR76       0.0534
     16  CG        12.2450   17.6190   22.8610 C.ar   76  TYR76      -0.0201
     17  CD1       11.7340   18.5630   23.7480 C.ar   76  TYR76      -0.0009
     18  CD2       11.4470   17.1960   21.7880 C.ar   76  TYR76      -0.0009
     19  CE1       10.4500   19.0670   23.5740 C.ar   76  TYR76       0.0417
     20  CE2       10.1750   17.6880   21.6100 C.ar   76  TYR76       0.0417
     21  CZ         9.6850   18.6270   22.5070 C.ar   76  TYR76       0.1957
     22  OH         8.4180   19.0990   22.3140 O.3    76  TYR76      -0.2866
     23  N         11.5410   21.3760   20.4980 N.3    78  SER78      -0.1217
     24  CA        10.0950   21.5120   20.6120 C.3    78  SER78       0.1889
     25  C          9.5130   22.2100   19.3970 C.2    78  SER78       0.2288
     26  O          8.3040   22.1590   19.1770 O.2    78  SER78      -0.2866
     27  CB         9.7450   22.2840   21.8770 C.3    78  SER78       0.2089
     28  OG        10.4460   23.5100   21.8870 O.3    78  SER78      -0.2183
     29  N          9.8510   19.1850   16.8150 N.3    81  LEU81      -0.1245
     30  CA         9.4670   17.9520   17.5000 C.3    81  LEU81       0.1561
     31  C         10.4350   16.8190   17.2050 C.2    81  LEU81       0.2260
     32  O         10.1290   15.6530   17.4120 O.2    81  LEU81      -0.2867
     33  CB         8.0090   17.5600   17.2280 C.3    81  LEU81       0.0270
     34  CG         7.0170   18.5500   17.8480 C.3    81  LEU81       0.0019
     35  CD1        5.6070   18.0920   17.5530 C.3    81  LEU81       0.0001
     36  CD2        7.2320   18.6910   19.3470 C.3    81  LEU81       0.0001
     37  N         -6.7910    8.0600   12.9080 N.3   171  ASP171     -0.1225
     38  CA        -5.5640    8.7120   13.3200 C.3   171  ASP171      0.1805
     39  C         -5.5380    8.8320   14.8290 C.2   171  ASP171      0.2598
     40  O         -6.5620    8.7120   15.4960 O.2   171  ASP171     -0.2718
     41  CB        -5.5570   10.1310   12.7360 C.3   171  ASP171      0.1424
     42  CG        -4.1740   10.7470   12.6330 C.2   171  ASP171      0.3668
     43  OD1       -4.1160   11.8880   12.1370 O.co2 171  ASP171     -0.2456
     44  OD2       -3.1700   10.1290   13.0510 O.co2 171  ASP171     -0.2456
     45  N         -4.3590    9.0770   15.3700 N.am  172  SER172     -0.1938
     46  CA        -4.2900    9.5660   16.7230 C.3   172  SER172      0.2055
     47  C         -4.6270   11.0500   16.7020 C.2   172  SER172      0.2643
     48  O         -4.7240   11.6790   15.6440 O.2   172  SER172     -0.2714
     49  CB        -2.9090    9.3250   17.3290 C.3   172  SER172      0.2130
     50  OG        -1.9060    9.9230   16.5410 O.3   172  SER172     -0.2179
     51  N         -4.8060   11.6080   17.8840 N.am  173  CYS173     -0.1953
     52  CA        -5.2350   12.9740   17.9670 C.3   173  CYS173      0.1843
     53  C         -4.7990   13.5770   19.2910 C.2   173  CYS173      0.2625
     54  O         -4.1620   12.9070   20.1010 O.2   173  CYS173     -0.2714
     55  CB        -6.7490   13.0170   17.7880 C.3   173  CYS173      0.0997
     56  SG        -7.3600   14.6310   17.3530 S.3   173  CYS173     -0.0797
     57  N         -5.1290   14.8460   19.5000 N.am  174  GLN174     -0.1977
     58  CA        -4.7480   15.5480   20.7180 C.3   174  GLN174      0.1601
     59  C         -5.2240   14.7730   21.9470 C.2   174  GLN174      0.2287
     60  O         -6.3860   14.3750   22.0410 O.2   174  GLN174     -0.2864
     61  CB        -5.2890   16.9840   20.7020 C.3   174  GLN174      0.0394
     62  CG        -4.5100   17.9340   19.7650 C.3   174  GLN174      0.0908
     63  CD        -4.8910   17.8170   18.2780 C.2   174  GLN174      0.2608
     64  OE1       -6.0340   17.5300   17.9370 O.2   174  GLN174     -0.2717
     65  NE2       -3.9310   18.0800   17.3950 N.am  174  GLN174     -0.0878
     66  N         -1.0730   12.0470   22.5420 N.3   177  SER177     -0.1217
     67  CA         0.3560   12.3420   22.5330 C.3   177  SER177      0.1889
     68  C          1.0620   11.5830   23.5980 C.2   177  SER177      0.2288
     69  O          0.5730   11.4880   24.7190 O.2   177  SER177     -0.2866
     70  CB         0.5980   13.8190   22.7960 C.3   177  SER177      0.2089
     71  OG         0.2580   14.5360   21.6460 O.3   177  SER177     -0.2183
     72  N          3.1780    8.6150   20.0180 N.3   191  VAL191     -0.1231
     73  CA         2.3120    9.5840   19.3670 C.3   191  VAL191      0.1692
     74  C          2.9350   10.9530   19.5350 C.2   191  VAL191      0.2593
     75  O          3.1520   11.4170   20.6490 O.2   191  VAL191     -0.2718
     76  CB         0.9150    9.5900   19.9860 C.3   191  VAL191      0.0266
     77  CG1        0.0550   10.6120   19.2990 C.3   191  VAL191      0.0020
     78  CG2        0.2970    8.2020   19.9040 C.3   191  VAL191      0.0020
     79  N          3.2410   11.5930   18.4140 N.am  192  SER192     -0.1938
     80  CA         4.0200   12.8240   18.4770 C.3   192  SER192      0.2055
     81  C          3.2550   14.0110   17.9280 C.2   192  SER192      0.2643
     82  O          2.9280   14.9490   18.6590 O.2   192  SER192     -0.2714
     83  CB         5.3720   12.6400   17.7790 C.3   192  SER192      0.2130
     84  OG         6.1700   13.7930   17.9220 O.3   192  SER192     -0.2179
     85  N          2.9340   13.9800   16.6480 N.am  193  TRP193     -0.1959
     86  CA         2.2980   15.1360   16.0710 C.3   193  TRP193      0.1771
     87  C          1.6050   14.8070   14.7750 C.2   193  TRP193      0.2620
     88  O          1.6350   13.6850   14.3140 O.2   193  TRP193     -0.2715
     89  CB         3.3050   16.2680   15.8950 C.3   193  TRP193      0.0590
     90  CG         4.4230   16.0060   14.9430 C.ar  193  TRP193      0.0006
     91  CD1        5.6130   15.3870   15.2060 C.ar  193  TRP193      0.0946
     92  CD2        4.4750   16.4080   13.5780 C.ar  193  TRP193      0.0152
     93  NE1        6.4060   15.3630   14.0730 N.ar  193  TRP193     -0.2442
     94  CE2        5.7320   15.9920   13.0610 C.ar  193  TRP193      0.0810
     95  CE3        3.5870   17.0820   12.7370 C.ar  193  TRP193      0.0012
     96  CZ2        6.1090   16.2260   11.7420 C.ar  193  TRP193      0.0191
     97  CZ3        3.9620   17.3140   11.4310 C.ar  193  TRP193      0.0001
     98  CH2        5.2170   16.8980   10.9450 C.ar  193  TRP193      0.0015
     99  N          0.9520   15.8070   14.2100 N.am  194  GLY194     -0.1940
    100  CA         0.3080   15.6450   12.9310 C.3   194  GLY194      0.2014
    101  C         -0.4170   16.9330   12.6980 C.2   194  GLY194      0.2640
    102  O         -0.5520   17.7370   13.6160 O.2   194  GLY194     -0.2714
    103  N         -0.9520   17.1510   11.5210 N.am  195  SER195     -0.1935
    104  CA        -1.6620   18.3320   11.2030 C.3   195  SER195      0.2055
    105  C         -3.1340   18.0440   11.3860 C.2   195  SER195      0.2644
    106  O         -3.6350   17.2960   10.7020 O.2   195  SER195     -0.2714
    107  CB        -1.3500   18.8990    9.8270 C.3   195  SER195      0.2130
    108  OG        -2.1440   20.0560    9.6240 O.3   195  SER195     -0.2179
    109  N         -3.6520   18.4660   12.5090 N.am  196  GLY196     -0.1939
    110  CA        -5.0100   18.1330   12.8380 C.3   196  GLY196      0.2014
    111  C         -5.0530   16.6440   13.0900 C.2   196  GLY196      0.2639
    112  O         -4.0740   16.1380   13.4580 O.2   196  GLY196     -0.2714
    113  N         -6.2100   16.0120   12.8950 N.am  197  CYS197     -0.1967
    114  CA        -6.2670   14.5850   13.1300 C.3   197  CYS197      0.1712
    115  C         -7.1650   13.9730   12.1030 C.2   197  CYS197      0.2296
    116  O         -8.2700   14.4650   11.8640 O.2   197  CYS197     -0.2864
    117  CB        -6.8460   14.2900   14.4990 C.3   197  CYS197      0.0983
    118  SG        -6.1570   15.2530   15.8360 S.3   197  CYS197     -0.0798
    119  N         -2.6310   13.8220    5.9190 N.3   202  LYS202     -0.1245
    120  CA        -1.9640   14.2990    7.1150 C.3   202  LYS202      0.1561
    121  C         -2.0000   13.1820    8.1340 C.2   202  LYS202      0.2260
    122  O         -2.7100   13.2540    9.1300 O.2   202  LYS202     -0.2867
    123  CB        -2.6200   15.5670    7.6440 C.3   202  LYS202      0.0271
    124  CG        -2.4840   16.7450    6.6840 C.3   202  LYS202      0.0035
    125  CD        -1.0180   17.0670    6.4550 C.3   202  LYS202      0.0206
    126  CE        -0.8470   18.1670    5.4350 C.3   202  LYS202      0.1093
    127  NZ         0.5960   18.5360    5.3080 N.3   202  LYS202     -0.1314
    128  N         -0.7270   10.5860   11.1130 N.3   204  GLY204     -0.1225
    129  CA        -0.0050   10.7920   12.3400 C.3   204  GLY204      0.1811
    130  C          1.4890   10.6350   12.1700 C.2   204  GLY204      0.2280
    131  O          1.9590    9.7990   11.3970 O.2   204  GLY204     -0.2866
    132  N          5.0090    9.9610   14.3460 N.3   206  TYR206     -0.1241
    133  CA         5.3480    9.2290   15.5370 C.3   206  TYR206      0.1605
    134  C          6.8300    9.2690   15.7430 C.2   206  TYR206      0.2264
    135  O          7.6030    9.2240   14.7910 O.2   206  TYR206     -0.2867
    136  CB         4.8620    7.7930   15.3830 C.3   206  TYR206      0.0534
    137  CG         3.3740    7.8080   15.2540 C.ar  206  TYR206     -0.0201
    138  CD1        2.5820    7.9120   16.3810 C.ar  206  TYR206     -0.0009
    139  CD2        2.7560    7.8070   14.0090 C.ar  206  TYR206     -0.0009
    140  CE1        1.2160    7.9740   16.2880 C.ar  206  TYR206      0.0417
    141  CE2        1.3870    7.8700   13.9050 C.ar  206  TYR206      0.0417
    142  CZ         0.6230    7.9470   15.0510 C.ar  206  TYR206      0.1957
    143  OH        -0.7400    8.0220   14.9840 O.3   206  TYR206     -0.2866
@<TRIPOS>BOND
     1   127   126    1
     2   126   125    1
     3   119   120    1
     4   125   124    1
     5   124   123    1
     6   120   123    1
     7   120   121    1
     8   121   122    2
     9   108   107    1
    10   107   104    1
    11   106   105    2
    12    98    97   ar
    13    98    96   ar
    14   128   129    1
    15   104   105    1
    16   104   103    1
    17   105   109   am
    18   131   130    2
    19    97    95   ar
    20   103   101   am
    21    96    94   ar
    22   116   115    2
    23   115   114    1
    24    43    42   ar
    25   130   129    1
    26   109   110    1
    27    42    41    1
    28    42    44   ar
    29   101   100    1
    30   101   102    2
    31    41    38    1
    32    95    92   ar
    33   110   111    1
    34   113   111   am
    35   113   114    1
    36    37    38    1
    37   100    99    1
    38    94    92   ar
    39    94    93   ar
    40   111   112    2
    41   114   117    1
    42    38    39    1
    43    92    90   ar
    44   141   139   ar
    45   141   142   ar
    46   139   137   ar
    47    93    91   ar
    48    99    87   am
    49    88    87    2
    50   132   133    1
    51   117   118    1
    52    87    86    1
    53   135   134    2
    54    39    45   am
    55    39    40    2
    56    90    91   ar
    57    90    89    1
    58   143   142    1
    59   142   140   ar
    60   137   136    1
    61   137   138   ar
    62    45    46    1
    63   136   133    1
    64   133   134    1
    65    48    47    2
    66   118    56    1
    67    89    86    1
    68    86    85    1
    69   140   138   ar
    70    50    49    1
    71    85    81   am
    72    47    46    1
    73    47    51   am
    74    46    49    1
    75    29    30    1
    76    31    32    2
    77    31    30    1
    78    33    30    1
    79    33    34    1
    80    56    55    1
    81    65    63   am
    82    35    34    1
    83    83    84    1
    84    83    80    1
    85    55    52    1
    86    34    36    1
    87    51    52    1
    88    81    80    1
    89    81    82    2
    90    64    63    2
    91    52    53    1
    92    63    62    1
    93    79    80    1
    94    79    74   am
    95    26    25    2
    96    53    57   am
    97    53    54    2
    98    77    76    1
    99    73    74    1
   100    73    76    1
   101    73    72    1
   102    25    24    1
   103    57    58    1
   104    74    75    2
   105    62    61    1
   106    78    76    1
   107    23    24    1
   108    24    27    1
   109    61    58    1
   110    58    59    1
   111    13    12    1
   112    13    14    2
   113     9     7   ar
   114     9    10   ar
   115    20    18   ar
   116    20    21   ar
   117    71    70    1
   118     7     6   ar
   119    18    16   ar
   120    12    11    1
   121    12    15    1
   122    27    28    1
   123    59    60    2
   124    10     8   ar
   125    22    21    1
   126    21    19   ar
   127    67    66    1
   128    67    70    1
   129    67    68    1
   130     6     8   ar
   131     6     5    1
   132    16    15    1
   133    16    17   ar
   134     5     2    1
   135    19    17   ar
   136    68    69    2
   137     1     2    1
   138     2     3    1
   139     3     4    2
