@<TRIPOS>MOLECULE
tmp/3gy9A00.pdb
 125 126 0 0 0
SMALL
GASTEIGER

@<TRIPOS>ATOM
      1  N         22.5560   18.8390   12.3440 N.3    77  VAL77      -0.1231
      2  CA        21.8350   17.8570   11.5480 C.3    77  VAL77       0.1692
      3  C         22.7740   17.2430   10.5280 C.2    77  VAL77       0.2592
      4  O         23.3640   17.9440    9.7190 O.2    77  VAL77      -0.2718
      5  CB        20.6630   18.5220   10.7960 C.3    77  VAL77       0.0266
      6  CG1       20.0650   17.5510    9.7840 C.3    77  VAL77       0.0020
      7  CG2       19.6220   19.0090   11.7890 C.3    77  VAL77       0.0020
      8  N         22.9120   15.9270   10.5850 N.am   78  TYR78      -0.1962
      9  CA        23.8210   15.2030    9.6820 C.3    78  TYR78       0.1771
     10  C         23.3170   13.7790    9.4970 C.2    78  TYR78       0.2619
     11  O         22.9930   13.1080   10.4790 O.2    78  TYR78      -0.2715
     12  CB        25.2400   15.1580   10.2670 C.3    78  TYR78       0.0574
     13  CG        26.2180   14.4890    9.3440 C.ar   78  TYR78      -0.0198
     14  CD1       26.7780   15.1750    8.2740 C.ar   78  TYR78      -0.0009
     15  CD2       26.5700   13.1660    9.5330 C.ar   78  TYR78      -0.0009
     16  CE1       27.6720   14.5530    7.4110 C.ar   78  TYR78       0.0417
     17  CE2       27.4630   12.5360    8.6590 C.ar   78  TYR78       0.0417
     18  CZ        27.9980   13.2280    7.6080 C.ar   78  TYR78       0.1957
     19  OH        28.8870   12.6230    6.7380 O.3    78  TYR78      -0.2866
     20  N         23.2450   13.3290    8.2450 N.am   79  VAL79      -0.1977
     21  CA        22.8710   11.9480    7.9220 C.3    79  VAL79       0.1596
     22  C         24.0740   11.3050    7.2490 C.2    79  VAL79       0.2287
     23  O         24.6880   11.9100    6.3690 O.2    79  VAL79      -0.2864
     24  CB        21.6790   11.9040    6.9400 C.3    79  VAL79       0.0276
     25  CG1       21.3080   10.4630    6.5710 C.3    79  VAL79       0.0022
     26  CG2       20.4900   12.6100    7.5600 C.3    79  VAL79       0.0022
     27  N         23.2000    6.5300    4.0360 N.3    83  ALA83      -0.1231
     28  CA        21.8260    6.4780    4.5420 C.3    83  ALA83       0.1694
     29  C         20.9590    7.6220    4.0370 C.2    83  ALA83       0.2592
     30  O         19.7890    7.7010    4.4020 O.2    83  ALA83      -0.2718
     31  CB        21.8100    6.4560    6.0510 C.3    83  ALA83       0.0304
     32  N         21.5300    8.5030    3.2160 N.am   84  ARG84      -0.1966
     33  CA        20.7760    9.6210    2.6440 C.3    84  ARG84       0.1729
     34  C         19.7680    9.1570    1.5990 C.2    84  ARG84       0.2617
     35  O         19.8700    8.0370    1.0650 O.2    84  ARG84      -0.2715
     36  CB        21.7270   10.6330    2.0440 C.3    84  ARG84       0.0348
     37  CG        22.5460   11.3290    3.0960 C.3    84  ARG84       0.0492
     38  CD        23.6600   12.1590    2.5050 C.3    84  ARG84       0.2205
     39  NE        24.5170   12.5850    3.6020 N.pl3  84  ARG84      -0.0865
     40  CZ        25.7500   13.0540    3.4710 C.cat  84  ARG84       0.5346
     41  NH1       26.3220   13.1980    2.2850 N.pl3  84  ARG84       0.1354
     42  NH2       26.4170   13.3800    4.5760 N.pl3  84  ARG84       0.1354
     43  N         18.7840   10.0130    1.3490 N.am   85  SER85      -0.1936
     44  CA        17.7890    9.8350    0.2830 C.3    85  SER85       0.2055
     45  C         16.8130    8.6970    0.5780 C.2    85  SER85       0.2643
     46  O         16.2520    8.1110   -0.3600 O.2    85  SER85      -0.2714
     47  CB        18.4610    9.6130   -1.0740 C.3    85  SER85       0.2130
     48  OG        19.3820   10.6400   -1.3630 O.3    85  SER85      -0.2179
     49  N         16.6200    8.3940    1.8630 N.am   86  HIS86      -0.1959
     50  CA        15.6930    7.3400    2.3130 C.3    86  HIS86       0.1787
     51  C         14.6940    7.8390    3.3460 C.2    86  HIS86       0.2621
     52  O         14.0820    7.0440    4.0590 O.2    86  HIS86      -0.2715
     53  CB        16.4640    6.1610    2.9100 C.3    86  HIS86       0.0785
     54  CG        17.2090    5.3690    1.8960 C.ar   86  HIS86       0.0821
     55  ND1       18.5800    5.4170    1.7750 N.ar   86  HIS86      -0.2267
     56  CD2       16.7710    4.5300    0.9290 C.ar   86  HIS86       0.1154
     57  CE1       18.9570    4.6330    0.7810 C.ar   86  HIS86       0.1986
     58  NE2       17.8780    4.0870    0.2480 N.ar   86  HIS86      -0.2212
     59  N         14.5550    9.1550    3.4500 N.am   87  GLY87      -0.1940
     60  CA        13.5530    9.7690    4.3150 C.3    87  GLY87       0.2014
     61  C         13.9650   10.0030    5.7530 C.2    87  GLY87       0.2639
     62  O         13.1730   10.4700    6.5470 O.2    87  GLY87      -0.2714
     63  N         15.2030    9.6740    6.1100 N.am   88  ILE88      -0.1963
     64  CA        15.6580    9.8560    7.4970 C.3    88  ILE88       0.1727
     65  C         15.7060   11.3420    7.9000 C.2    88  ILE88       0.2617
     66  O         15.2100   11.7220    8.9660 O.2    88  ILE88      -0.2715
     67  CB        17.0310    9.1750    7.7080 C.3    88  ILE88       0.0290
     68  CG1       16.9020    7.6510    7.4940 C.3    88  ILE88       0.0022
     69  CG2       17.5770    9.4790    9.0970 C.3    88  ILE88       0.0023
     70  CD1       18.2350    6.9380    7.4280 C.3    88  ILE88       0.0001
     71  N         16.3350   12.1710    7.0750 N.am   89  GLY89      -0.1940
     72  CA        16.4320   13.5890    7.3910 C.3    89  GLY89       0.2014
     73  C         15.0460   14.1940    7.5690 C.2    89  GLY89       0.2639
     74  O         14.8140   15.0060    8.4840 O.2    89  GLY89      -0.2714
     75  N         14.1230   13.8440    6.6870 N.am   90  THR90      -0.1950
     76  CA        12.7610   14.3330    6.8180 C.3    90  THR90       0.1897
     77  C         12.1420   13.9310    8.1480 C.2    90  THR90       0.2313
     78  O         11.5730   14.7750    8.8290 O.2    90  THR90      -0.2863
     79  CB        11.8950   13.8880    5.6400 C.3    90  THR90       0.1794
     80  OG1       12.4580   14.4170    4.4370 O.3    90  THR90      -0.2208
     81  CG2       10.4790   14.3960    5.7920 C.3    90  THR90       0.0378
     82  N         24.6010   23.8970    2.4260 N.3   112  GLN112     -0.1231
     83  CA        24.5920   22.8180    1.4340 C.3   112  GLN112      0.1698
     84  C         23.2220   22.1960    1.1690 C.2   112  GLN112      0.2592
     85  O         23.0750   21.4670    0.1870 O.2   112  GLN112     -0.2718
     86  CB        25.5790   21.7120    1.8390 C.3   112  GLN112      0.0381
     87  CG        27.0230   22.1640    2.0610 C.3   112  GLN112      0.0905
     88  CD        27.7230   22.6060    0.7870 C.2   112  GLN112      0.2608
     89  OE1       28.7930   23.2210    0.8470 O.2   112  GLN112     -0.2717
     90  NE2       27.1510   22.2890   -0.3620 N.am  112  GLN112     -0.0878
     91  N         22.2150   22.4820    1.9870 N.am  113  ALA113     -0.1980
     92  CA        20.9590   21.7510    1.8520 C.3   113  ALA113      0.1597
     93  C         19.7160   22.6390    1.7410 C.2   113  ALA113      0.2287
     94  O         18.7030   22.3940    2.3980 O.2   113  ALA113     -0.2864
     95  CB        20.8250   20.7730    3.0000 C.3   113  ALA113      0.0319
     96  N         17.4360   23.0240   -0.8040 N.3   115  PRO115     -0.2102
     97  CA        16.2380   22.3190   -1.2790 C.3   115  PRO115      0.1504
     98  C         15.5290   21.5010   -0.1850 C.2   115  PRO115      0.2576
     99  O         14.2980   21.5540   -0.0830 O.2   115  PRO115     -0.2718
    100  CB        16.8010   21.3880   -2.3530 C.3   115  PRO115      0.0282
    101  CG        18.0020   22.1270   -2.8670 C.3   115  PRO115      0.0208
    102  CD        18.6100   22.7190   -1.6460 C.3   115  PRO115      0.0893
    103  N         16.3150   20.7750    0.6030 N.am  116  PHE116     -0.1963
    104  CA        15.7840   20.0100    1.7340 C.3   116  PHE116      0.1771
    105  C         14.9860   20.9170    2.6690 C.2   116  PHE116      0.2619
    106  O         13.8190   20.6390    2.9750 O.2   116  PHE116     -0.2715
    107  CB        16.9240   19.3280    2.4870 C.3   116  PHE116      0.0574
    108  CG        16.5100   18.6640    3.7830 C.ar  116  PHE116     -0.0200
    109  CD1       15.5720   17.6420    3.7820 C.ar  116  PHE116     -0.0042
    110  CD2       17.0800   19.0420    4.9850 C.ar  116  PHE116     -0.0042
    111  CE1       15.1960   17.0250    4.9750 C.ar  116  PHE116     -0.0003
    112  CE2       16.7270   18.4080    6.1610 C.ar  116  PHE116     -0.0003
    113  CZ        15.7720   17.4000    6.1450 C.ar  116  PHE116     -0.0000
    114  N         15.6080   22.0080    3.1140 N.am  117  TYR117     -0.1974
    115  CA        14.9520   22.8920    4.0890 C.3   117  TYR117      0.1639
    116  C         13.7600   23.6480    3.5070 C.2   117  TYR117      0.2290
    117  O         12.7470   23.8180    4.1860 O.2   117  TYR117     -0.2864
    118  CB        15.9790   23.8060    4.7800 C.3   117  TYR117      0.0560
    119  CG        16.8770   23.0070    5.7030 C.ar  117  TYR117     -0.0198
    120  CD1       16.3490   22.4090    6.8360 C.ar  117  TYR117     -0.0009
    121  CD2       18.2410   22.8230    5.4400 C.ar  117  TYR117     -0.0009
    122  CE1       17.1240   21.6730    7.6970 C.ar  117  TYR117      0.0417
    123  CE2       19.0320   22.0670    6.3080 C.ar  117  TYR117      0.0417
    124  CZ        18.4590   21.4860    7.4290 C.ar  117  TYR117      0.1957
    125  OH        19.1850   20.7200    8.3280 O.3   117  TYR117     -0.2866
@<TRIPOS>BOND
     1   101   100    1
     2   101   102    1
     3   100    97    1
     4   102    96    1
     5    48    47    1
     6    97    96    1
     7    97    98    1
     8    47    44    1
     9    90    88   am
    10    46    45    2
    11    98    99    2
    12    98   103   am
    13    85    84    2
    14    58    57   ar
    15    58    56   ar
    16    44    45    1
    17    44    43    1
    18    45    49   am
    19   103   104    1
    20    57    55   ar
    21    88    89    2
    22    88    87    1
    23    56    54   ar
    24    35    34    2
    25    84    83    1
    26    84    91   am
    27    43    34   am
    28    83    86    1
    29    83    82    1
    30    34    33    1
    31   104   107    1
    32   104   105    1
    33    93    92    1
    34    93    94    2
    35    55    54   ar
    36    86    87    1
    37    92    91    1
    38    92    95    1
    39    49    50    1
    40    54    53    1
    41    36    33    1
    42    36    37    1
    43    41    40    1
    44    50    53    1
    45    50    51    1
    46   107   108    1
    47    38    37    1
    48    38    39    1
    49    33    32    1
    50   105   106    2
    51   105   114   am
    52   114   115    1
    53    32    29   am
    54    51    59   am
    55    51    52    2
    56    59    60    1
    57    40    39    2
    58    40    42    1
    59   116   115    1
    60   116   117    2
    61   109   108   ar
    62   109   111   ar
    63   108   110   ar
    64    27    28    1
    65    29    30    2
    66    29    28    1
    67   115   118    1
    68    60    61    1
    69    80    79    1
    70    28    31    1
    71   118   119    1
    72   111   113   ar
    73   110   112   ar
    74   121   119   ar
    75   121   123   ar
    76    79    81    1
    77    79    76    1
    78   119   120   ar
    79    61    63   am
    80    61    62    2
    81    63    64    1
    82   113   112   ar
    83   123   124   ar
    84    23    22    2
    85    25    24    1
    86    75    76    1
    87    75    73   am
    88    19    18    1
    89    76    77    1
    90   120   122   ar
    91    24    26    1
    92    24    21    1
    93    71    72    1
    94    71    65   am
    95    22    21    1
    96    72    73    1
    97    16    18   ar
    98    16    14   ar
    99    70    68    1
   100   124   122   ar
   101   124   125    1
   102    68    67    1
   103    64    67    1
   104    64    65    1
   105    73    74    2
   106    18    17   ar
   107    67    69    1
   108    65    66    2
   109    21    20    1
   110    77    78    2
   111    20    10   am
   112    14    13   ar
   113    17    15   ar
   114    13    15   ar
   115    13    12    1
   116    10     9    1
   117    10    11    2
   118     9    12    1
   119     9     8    1
   120     4     3    2
   121     6     5    1
   122     3     8   am
   123     3     2    1
   124     5     2    1
   125     5     7    1
   126     2     1    1
