@<TRIPOS>MOLECULE
tmp/3gyaA00.pdb
 145 145 0 0 0
SMALL
GASTEIGER

@<TRIPOS>ATOM
      1  N         34.0040   14.4080    4.7700 N.3    25  GLU25      -0.1245
      2  CA        33.2850   15.3420    3.9250 C.3    25  GLU25       0.1567
      3  C         33.6050   16.8100    4.1900 C.2    25  GLU25       0.2260
      4  O         33.1270   17.6700    3.4730 O.2    25  GLU25      -0.2867
      5  CB        31.7830   15.1310    4.0990 C.3    25  GLU25       0.0388
      6  CG        31.2990   13.8290    3.5640 C.3    25  GLU25       0.1160
      7  CD        29.7950   13.7680    3.5050 C.2    25  GLU25       0.3649
      8  OE1       29.1760   13.9240    4.5740 O.co2  25  GLU25      -0.2457
      9  OE2       29.2580   13.5730    2.3940 O.co2  25  GLU25      -0.2457
     10  N         32.8930   18.3990    7.1980 N.3    27  PHE27      -0.1241
     11  CA        31.9320   18.9470    8.1430 C.3    27  PHE27       0.1605
     12  C         32.4880   18.7800    9.5660 C.2    27  PHE27       0.2264
     13  O         32.9910   17.7110    9.9180 O.2    27  PHE27      -0.2867
     14  CB        30.6030   18.1900    8.0980 C.3    27  PHE27       0.0534
     15  CG        29.8410   18.3300    6.8160 C.ar   27  PHE27      -0.0203
     16  CD1       29.3050   19.5590    6.4430 C.ar   27  PHE27      -0.0042
     17  CD2       29.5980   17.2230    6.0160 C.ar   27  PHE27      -0.0042
     18  CE1       28.5610   19.6880    5.2580 C.ar   27  PHE27      -0.0003
     19  CE2       28.8630   17.3400    4.8420 C.ar   27  PHE27      -0.0003
     20  CZ        28.3460   18.5770    4.4560 C.ar   27  PHE27      -0.0000
     21  N         22.6050   18.7790   12.2850 N.3    77  VAL77      -0.1231
     22  CA        21.8610   17.8090   11.4900 C.3    77  VAL77       0.1692
     23  C         22.7840   17.1580   10.4770 C.2    77  VAL77       0.2592
     24  O         23.3620   17.8290    9.6350 O.2    77  VAL77      -0.2718
     25  CB        20.7150   18.4530   10.7170 C.3    77  VAL77       0.0266
     26  CG1       20.0940   17.4540    9.7560 C.3    77  VAL77       0.0020
     27  CG2       19.6650   19.0110   11.6980 C.3    77  VAL77       0.0020
     28  N         22.9120   15.8460   10.5600 N.am   78  TYR78      -0.1962
     29  CA        23.7810   15.1200    9.6530 C.3    78  TYR78       0.1771
     30  C         23.2690   13.6900    9.4980 C.2    78  TYR78       0.2619
     31  O         22.9740   13.0360   10.5030 O.2    78  TYR78      -0.2715
     32  CB        25.2000   15.0660   10.2290 C.3    78  TYR78       0.0574
     33  CG        26.1810   14.3670    9.3420 C.ar   78  TYR78      -0.0198
     34  CD1       26.7630   15.0270    8.2710 C.ar   78  TYR78      -0.0009
     35  CD2       26.5380   13.0350    9.5540 C.ar   78  TYR78      -0.0009
     36  CE1       27.6710   14.3770    7.4080 C.ar   78  TYR78       0.0417
     37  CE2       27.4070   12.3760    8.6910 C.ar   78  TYR78       0.0417
     38  CZ        27.9970   13.0600    7.6350 C.ar   78  TYR78       0.1957
     39  OH        28.8900   12.4290    6.7780 O.3    78  TYR78      -0.2866
     40  N         23.1860   13.2300    8.2500 N.am   79  VAL79      -0.1977
     41  CA        22.8200   11.8210    7.9340 C.3    79  VAL79       0.1596
     42  C         24.0140   11.1640    7.2650 C.2    79  VAL79       0.2287
     43  O         24.6150   11.7580    6.3790 O.2    79  VAL79      -0.2864
     44  CB        21.6140   11.7670    6.9690 C.3    79  VAL79       0.0276
     45  CG1       21.2920   10.2930    6.5840 C.3    79  VAL79       0.0022
     46  CG2       20.4110   12.4970    7.5970 C.3    79  VAL79       0.0022
     47  N         23.0860    6.4030    4.1160 N.3    83  ALA83      -0.1231
     48  CA        21.7200    6.4240    4.6360 C.3    83  ALA83       0.1694
     49  C         20.8670    7.5660    4.0670 C.2    83  ALA83       0.2592
     50  O         19.6790    7.6860    4.3860 O.2    83  ALA83      -0.2718
     51  CB        21.7400    6.4950    6.1550 C.3    83  ALA83       0.0304
     52  N         21.4660    8.4120    3.2380 N.am   84  ARG84      -0.1966
     53  CA        20.7290    9.5540    2.6660 C.3    84  ARG84       0.1729
     54  C         19.7190    9.1060    1.6230 C.2    84  ARG84       0.2617
     55  O         19.8350    8.0070    1.0790 O.2    84  ARG84      -0.2715
     56  CB        21.7130   10.5520    2.0700 C.3    84  ARG84       0.0348
     57  CG        22.5310   11.2420    3.1480 C.3    84  ARG84       0.0492
     58  CD        23.6280   12.0760    2.5570 C.3    84  ARG84       0.2205
     59  NE        24.5160   12.4310    3.6410 N.pl3  84  ARG84      -0.0865
     60  CZ        25.7520   12.8850    3.4970 C.cat  84  ARG84       0.5346
     61  NH1       26.2920   13.0250    2.2950 N.pl3  84  ARG84       0.1354
     62  NH2       26.4790   13.1460    4.5770 N.pl3  84  ARG84       0.1354
     63  N         18.7450    9.9750    1.3600 N.am   85  SER85      -0.1936
     64  CA        17.7320    9.8030    0.2960 C.3    85  SER85       0.2055
     65  C         16.7490    8.6800    0.5990 C.2    85  SER85       0.2643
     66  O         16.1530    8.1210   -0.3260 O.2    85  SER85      -0.2714
     67  CB        18.3820    9.5630   -1.0740 C.3    85  SER85       0.2130
     68  OG        19.3840   10.5070   -1.3430 O.3    85  SER85      -0.2179
     69  N         16.6140    8.3280    1.8770 N.am   86  HIS86      -0.1959
     70  CA        15.6850    7.2830    2.3260 C.3    86  HIS86       0.1787
     71  C         14.6580    7.8030    3.3380 C.2    86  HIS86       0.2621
     72  O         14.0150    7.0110    4.0330 O.2    86  HIS86      -0.2715
     73  CB        16.4510    6.0970    2.9250 C.3    86  HIS86       0.0785
     74  CG        17.2870    5.3600    1.9280 C.ar   86  HIS86       0.0821
     75  ND1       16.7420    4.5210    0.9810 N.ar   86  HIS86      -0.2267
     76  CD2       18.6230    5.3380    1.7260 C.ar   86  HIS86       0.1154
     77  CE1       17.7100    4.0160    0.2350 C.ar   86  HIS86       0.1986
     78  NE2       18.8620    4.4940    0.6690 N.ar   86  HIS86      -0.2212
     79  N         14.5140    9.1200    3.4310 N.am   87  GLY87      -0.1940
     80  CA        13.5160    9.7330    4.3000 C.3    87  GLY87       0.2014
     81  C         13.9260    9.9670    5.7410 C.2    87  GLY87       0.2639
     82  O         13.1360   10.4580    6.5350 O.2    87  GLY87      -0.2714
     83  N         15.1700    9.6470    6.0870 N.am   88  ILE88      -0.1963
     84  CA        15.6330    9.8040    7.4720 C.3    88  ILE88       0.1727
     85  C         15.6990   11.2920    7.9260 C.2    88  ILE88       0.2617
     86  O         15.2240   11.6660    9.0010 O.2    88  ILE88      -0.2715
     87  CB        16.9850    9.0940    7.7000 C.3    88  ILE88       0.0290
     88  CG1       16.8560    7.5830    7.4770 C.3    88  ILE88       0.0022
     89  CG2       17.5060    9.3950    9.1290 C.3    88  ILE88       0.0023
     90  CD1       18.1690    6.8050    7.5070 C.3    88  ILE88       0.0001
     91  N         16.2940   12.1300    7.0960 N.am   89  GLY89      -0.1940
     92  CA        16.4340   13.5550    7.4390 C.3    89  GLY89       0.2014
     93  C         15.0610   14.1770    7.6100 C.2    89  GLY89       0.2639
     94  O         14.8070   14.9560    8.5520 O.2    89  GLY89      -0.2714
     95  N         14.1370   13.7930    6.7330 N.am   90  THR90      -0.1950
     96  CA        12.7740   14.3070    6.8230 C.3    90  THR90       0.1897
     97  C         12.1210   13.8640    8.1570 C.2    90  THR90       0.2313
     98  O         11.5350   14.6820    8.8680 O.2    90  THR90      -0.2863
     99  CB        11.9300   13.8610    5.6200 C.3    90  THR90       0.1794
    100  OG1       12.4370   14.4690    4.4200 O.3    90  THR90      -0.2208
    101  CG2       10.4370   14.2490    5.8330 C.3    90  THR90       0.0378
    102  N         24.4320   23.9210    2.3910 N.3   112  GLN112     -0.1231
    103  CA        24.4720   22.7630    1.4990 C.3   112  GLN112      0.1698
    104  C         23.0930   22.1700    1.1800 C.2   112  GLN112      0.2592
    105  O         22.9490   21.4580    0.1810 O.2   112  GLN112     -0.2718
    106  CB        25.3640   21.6610    2.1100 C.3   112  GLN112      0.0381
    107  CG        26.6460   22.0830    2.8530 C.3   112  GLN112      0.0905
    108  CD        26.4210   22.7410    4.2290 C.2   112  GLN112      0.2608
    109  OE1       25.3100   22.9590    4.7430 O.2   112  GLN112     -0.2717
    110  NE2       27.5010   23.1000    4.8950 N.am  112  GLN112     -0.0878
    111  N         22.0850   22.4650    1.9970 N.am  113  ALA113     -0.1980
    112  CA        20.8430   21.6980    1.9420 C.3   113  ALA113      0.1597
    113  C         19.5740   22.5590    1.7840 C.2   113  ALA113      0.2287
    114  O         18.5120   22.2490    2.3380 O.2   113  ALA113     -0.2864
    115  CB        20.7620   20.8370    3.1690 C.3   113  ALA113      0.0319
    116  N         17.3950   22.9290   -0.7900 N.3   115  PRO115     -0.2102
    117  CA        16.2330   22.1660   -1.2650 C.3   115  PRO115      0.1504
    118  C         15.5340   21.3630   -0.1650 C.2   115  PRO115      0.2576
    119  O         14.3030   21.4060   -0.0310 O.2   115  PRO115     -0.2718
    120  CB        16.8460   21.2090   -2.2850 C.3   115  PRO115      0.0282
    121  CG        18.0300   21.9350   -2.7890 C.3   115  PRO115      0.0208
    122  CD        18.5880   22.6520   -1.6080 C.3   115  PRO115      0.0893
    123  N         16.3260   20.6390    0.6190 N.am  116  PHE116     -0.1963
    124  CA        15.7950   19.9380    1.7760 C.3   116  PHE116      0.1771
    125  C         14.9970   20.8760    2.6810 C.2   116  PHE116      0.2619
    126  O         13.8450   20.6020    2.9930 O.2   116  PHE116     -0.2715
    127  CB        16.9310   19.3090    2.5630 C.3   116  PHE116      0.0574
    128  CG        16.5070   18.6470    3.8470 C.ar  116  PHE116     -0.0200
    129  CD1       15.5850   17.5960    3.8450 C.ar  116  PHE116     -0.0042
    130  CD2       17.0690   19.0190    5.0630 C.ar  116  PHE116     -0.0042
    131  CE1       15.2230   16.9750    5.0530 C.ar  116  PHE116     -0.0003
    132  CE2       16.7250   18.3780    6.2510 C.ar  116  PHE116     -0.0003
    133  CZ        15.8230   17.3550    6.2480 C.ar  116  PHE116     -0.0000
    134  N         15.6030   21.9860    3.1100 N.am  117  TYR117     -0.1974
    135  CA        14.9240   22.8500    4.0860 C.3   117  TYR117      0.1639
    136  C         13.7240   23.5840    3.5060 C.2   117  TYR117      0.2290
    137  O         12.6910   23.7550    4.1880 O.2   117  TYR117     -0.2864
    138  CB        15.9110   23.7810    4.8030 C.3   117  TYR117      0.0560
    139  CG        16.7570   22.9820    5.7820 C.ar  117  TYR117     -0.0198
    140  CD1       16.1580   22.3420    6.8740 C.ar  117  TYR117     -0.0009
    141  CD2       18.1360   22.8300    5.6010 C.ar  117  TYR117     -0.0009
    142  CE1       16.9020   21.5860    7.7640 C.ar  117  TYR117      0.0417
    143  CE2       18.8990   22.0790    6.5000 C.ar  117  TYR117      0.0417
    144  CZ        18.2660   21.4550    7.5800 C.ar  117  TYR117      0.1957
    145  OH        18.9910   20.6960    8.4810 O.3   117  TYR117     -0.2866
@<TRIPOS>BOND
     1   121   120    1
     2   121   122    1
     3   120   117    1
     4   122   116    1
     5    68    67    1
     6   117   116    1
     7   117   118    1
     8    67    64    1
     9    66    65    2
    10   118   119    2
    11   118   123   am
    12   105   104    2
    13    77    78   ar
    14    77    75   ar
    15    64    65    1
    16    64    63    1
    17    65    69   am
    18   123   124    1
    19    78    76   ar
    20    75    74   ar
    21    55    54    2
    22   104   103    1
    23   104   111   am
    24    63    54   am
    25   103   106    1
    26   103   102    1
    27    54    53    1
    28    76    74   ar
    29   124   127    1
    30   124   125    1
    31   113   112    1
    32   113   114    2
    33    69    70    1
    34    74    73    1
    35   112   111    1
    36   112   115    1
    37    56    53    1
    38    56    57    1
    39   106   107    1
    40    61    60    1
    41    70    73    1
    42    70    71    1
    43     9     7   ar
    44    58    57    1
    45    58    59    1
    46   127   128    1
    47    53    52    1
    48   125   126    2
    49   125   134   am
    50   107   108    1
    51   134   135    1
    52    52    49   am
    53    71    79   am
    54    71    72    2
    55    79    80    1
    56     4     3    2
    57    60    59    2
    58    60    62    1
    59     7     6    1
    60     7     8   ar
    61   136   135    1
    62   136   137    2
    63     6     5    1
    64   129   128   ar
    65   129   131   ar
    66   128   130   ar
    67     2     5    1
    68     2     3    1
    69     2     1    1
    70    49    50    2
    71    49    48    1
    72   135   138    1
    73    47    48    1
    74   108   109    2
    75   108   110   am
    76    80    81    1
    77   100    99    1
    78    20    19   ar
    79    20    18   ar
    80    48    51    1
    81   138   139    1
    82    19    17   ar
    83   131   133   ar
    84   130   132   ar
    85    18    16   ar
    86   141   139   ar
    87   141   143   ar
    88    99   101    1
    89    99    96    1
    90    81    83   am
    91    81    82    2
    92   139   140   ar
    93    17    15   ar
    94    83    84    1
    95   133   132   ar
    96    43    42    2
    97    16    15   ar
    98   143   144   ar
    99    45    44    1
   100    95    96    1
   101    95    93   am
   102    39    38    1
   103    15    14    1
   104    96    97    1
   105   140   142   ar
   106    44    46    1
   107    44    41    1
   108    91    92    1
   109    91    85   am
   110    10    11    1
   111    42    41    1
   112    36    38   ar
   113    36    34   ar
   114    92    93    1
   115    84    87    1
   116    84    85    1
   117    88    90    1
   118    88    87    1
   119   144   142   ar
   120   144   145    1
   121    93    94    2
   122    38    37   ar
   123    87    89    1
   124    85    86    2
   125    41    40    1
   126    14    11    1
   127    11    12    1
   128    97    98    2
   129    40    30   am
   130    34    33   ar
   131    37    35   ar
   132    33    35   ar
   133    33    32    1
   134    30    29    1
   135    30    31    2
   136    12    13    2
   137    24    23    2
   138    29    32    1
   139    29    28    1
   140    26    25    1
   141    23    28   am
   142    23    22    1
   143    25    22    1
   144    25    27    1
   145    22    21    1
