@<TRIPOS>MOLECULE
tmp/3gydB00.pdb
 134 124 0 0 0
SMALL
GASTEIGER

@<TRIPOS>ATOM
      1  N          4.5500   11.9380    3.9390 N.3    65  LEU65      -0.1245
      2  CA         5.7970   12.6520    3.6680 C.3    65  LEU65       0.1561
      3  C          6.2940   12.2650    2.2900 C.2    65  LEU65       0.2260
      4  O          6.1200   11.1250    1.8730 O.2    65  LEU65      -0.2867
      5  CB         6.8600   12.3160    4.7060 C.3    65  LEU65       0.0270
      6  CG         6.5500   12.6140    6.1710 C.3    65  LEU65       0.0019
      7  CD1        7.6310   11.9760    7.0890 C.3    65  LEU65       0.0001
      8  CD2        6.3900   14.1470    6.4100 C.3    65  LEU65       0.0001
      9  N          7.8650    3.2050    4.3290 N.3    84  VAL84      -0.1245
     10  CA         8.9350    4.1720    4.0850 C.3    84  VAL84       0.1561
     11  C          9.6630    3.7380    2.8120 C.2    84  VAL84       0.2260
     12  O         10.2310    2.6610    2.7560 O.2    84  VAL84      -0.2867
     13  CB         9.9230    4.2680    5.2500 C.3    84  VAL84       0.0252
     14  CG1       11.0130    5.3060    4.9410 C.3    84  VAL84       0.0019
     15  CG2        9.1850    4.6390    6.5540 C.3    84  VAL84       0.0019
     16  N         12.2860    0.8180    2.2240 N.3    96  ILE96      -0.1231
     17  CA        13.3920    0.6250    3.1340 C.3    96  ILE96       0.1692
     18  C         12.9070    0.2450    4.5370 C.2    96  ILE96       0.2591
     19  O         13.6560   -0.3290    5.3200 O.2    96  ILE96      -0.2718
     20  CB        14.3630    1.8490    3.1440 C.3    96  ILE96       0.0266
     21  CG1       13.6530    3.1460    3.4680 C.3    96  ILE96       0.0019
     22  CG2       15.0360    2.0040    1.7800 C.3    96  ILE96       0.0020
     23  CD1       14.6030    4.3130    3.8200 C.3    96  ILE96       0.0001
     24  N         11.6640    0.5600    4.8670 N.am   97  ALA97      -0.1980
     25  CA        11.1370    0.2570    6.1830 C.3    97  ALA97       0.1597
     26  C          9.6050    0.2400    6.1840 C.2    97  ALA97       0.2287
     27  O          8.9440    0.8950    5.3600 O.2    97  ALA97      -0.2864
     28  CB        11.6840    1.2550    7.2330 C.3    97  ALA97       0.0319
     29  N          6.6350    0.6670    9.1690 N.3    99  VAL99      -0.1245
     30  CA         6.3800    1.0300   10.5820 C.3    99  VAL99       0.1561
     31  C          4.8810    1.1160   10.8840 C.2    99  VAL99       0.2260
     32  O          4.0740    1.2600    9.9830 O.2    99  VAL99      -0.2867
     33  CB         7.0850    2.3420   11.0000 C.3    99  VAL99       0.0252
     34  CG1        8.6260    2.2220   10.7960 C.3    99  VAL99       0.0019
     35  CG2        6.4700    3.5640   10.2650 C.3    99  VAL99       0.0019
     36  N          7.9870    9.3110   12.8510 N.3   105  ILE105     -0.1231
     37  CA         8.5560    9.5500   11.4850 C.3   105  ILE105      0.1692
     38  C          8.6620   11.0400   11.2290 C.2   105  ILE105      0.2593
     39  O          8.0010   11.7950   11.8870 O.2   105  ILE105     -0.2718
     40  CB         7.7690    8.8500   10.3200 C.3   105  ILE105      0.0266
     41  CG1        6.3040    9.3130   10.2420 C.3   105  ILE105      0.0019
     42  CG2        7.8800    7.3020   10.4440 C.3   105  ILE105      0.0020
     43  CD1        5.5700    8.8850    8.9370 C.3   105  ILE105      0.0001
     44  N          9.5170   11.4410   10.2900 N.am  106  GLY106     -0.1942
     45  CA         9.7320   12.8380    9.9680 C.3   106  GLY106      0.2014
     46  C         10.6560   13.5890   10.9180 C.2   106  GLY106      0.2638
     47  O         10.8300   14.8150   10.7860 O.2   106  GLY106     -0.2714
     48  N         11.2510   12.8810   11.8840 N.am  107  GLU107     -0.1977
     49  CA        12.2060   13.5040   12.7890 C.3   107  GLU107      0.1602
     50  C         13.4470   14.1140   12.1170 C.2   107  GLU107      0.2287
     51  O         14.0170   15.0790   12.6240 O.2   107  GLU107     -0.2864
     52  CB        12.6410   12.5000   13.8690 C.3   107  GLU107      0.0415
     53  CG        13.6400   11.4750   13.4360 C.3   107  GLU107      0.1163
     54  CD        13.0740   10.3590   12.5840 C.2   107  GLU107      0.3649
     55  OE1       11.8230   10.2040   12.4080 O.co2 107  GLU107     -0.2457
     56  OE2       13.8990    9.5750   12.1490 O.co2 107  GLU107     -0.2457
     57  N         14.2310   15.7570    9.0540 N.3   108  SER108     -0.1217
     58  CA        14.1480   17.1120    8.5110 C.3   108  SER108      0.1889
     59  C         13.7020   18.0760    9.6440 C.2   108  SER108      0.2288
     60  O         14.0990   19.2400    9.6590 O.2   108  SER108     -0.2866
     61  CB        13.1400   17.1480    7.3550 C.3   108  SER108      0.2089
     62  OG        13.5700   16.3410    6.2420 O.3   108  SER108     -0.2183
     63  N         15.9540   18.4290    3.2040 N.3   112  PRO112     -0.2102
     64  CA        14.7300   17.8630    2.6360 C.3   112  PRO112      0.1504
     65  C         14.4300   16.4530    3.1770 C.2   112  PRO112      0.2576
     66  O         15.3260   15.7990    3.7140 O.2   112  PRO112     -0.2718
     67  CB        15.0550   17.7660    1.1380 C.3   112  PRO112      0.0282
     68  CG        16.1630   18.7210    0.9250 C.3   112  PRO112      0.0208
     69  CD        16.9760   18.6720    2.1610 C.3   112  PRO112      0.0893
     70  N         13.1930   15.9990    3.0490 N.am  113  ARG113     -0.1966
     71  CA        12.8170   14.6650    3.5360 C.3   113  ARG113      0.1729
     72  C         13.7010   13.6250    2.8290 C.2   113  ARG113      0.2617
     73  O         13.9040   13.6920    1.6070 O.2   113  ARG113     -0.2715
     74  CB        11.3400   14.3320    3.2600 C.3   113  ARG113      0.0348
     75  CG        10.3090   15.2710    3.8740 C.3   113  ARG113      0.0492
     76  CD        10.3720   15.2800    5.3810 C.3   113  ARG113      0.2205
     77  NE         9.3380   16.1030    5.9750 N.pl3 113  ARG113     -0.0865
     78  CZ         9.1580   16.2590    7.2710 C.cat 113  ARG113      0.5346
     79  NH1        9.9400   15.6300    8.1470 N.pl3 113  ARG113      0.1354
     80  NH2        8.1530   17.0060    7.6980 N.pl3 113  ARG113      0.1354
     81  N         14.1860   12.6690    3.6180 N.am  114  SER114     -0.1936
     82  CA        15.0940   11.6190    3.1690 C.3   114  SER114      0.2055
     83  C         14.3780   10.4810    2.4300 C.2   114  SER114      0.2642
     84  O         15.0060    9.7170    1.6870 O.2   114  SER114     -0.2714
     85  CB        15.8510   11.0540    4.3660 C.3   114  SER114      0.2130
     86  OG        14.9810   10.2930    5.2080 O.3   114  SER114     -0.2179
     87  N         13.0790   10.3630    2.6460 N.am  115  ALA115     -0.1977
     88  CA        12.2670    9.2850    2.0790 C.3   115  ALA115      0.1597
     89  C         10.7940    9.7310    2.0370 C.2   115  ALA115      0.2287
     90  O         10.4280   10.7060    2.6820 O.2   115  ALA115     -0.2864
     91  CB        12.4120    8.0270    2.9500 C.3   115  ALA115      0.0319
     92  N          6.8280    8.6550    2.9340 N.3   117  CYS117     -0.1235
     93  CA         6.0970    7.8100    3.8840 C.3   117  CYS117      0.1677
     94  C          4.6410    7.8040    3.4380 C.2   117  CYS117      0.2270
     95  O          4.0280    8.8780    3.3150 O.2   117  CYS117     -0.2867
     96  CB         6.2060    8.3720    5.3080 C.3   117  CYS117      0.0956
     97  SG         7.9280    8.3730    5.9170 S.3   117  CYS117     -0.0801
     98  N         17.1190    2.8100   15.0590 N.3   157  ARG157     -0.1245
     99  CA        16.7890    2.7820   13.6470 C.3   157  ARG157      0.1563
    100  C         18.0570    2.5450   12.8340 C.2   157  ARG157      0.2260
    101  O         18.0620    1.7630   11.8820 O.2   157  ARG157     -0.2867
    102  CB        16.1150    4.1140   13.2650 C.3   157  ARG157      0.0307
    103  CG        15.4390    4.1790   11.8880 C.3   157  ARG157      0.0489
    104  CD        14.4170    5.3300   11.9420 C.3   157  ARG157      0.2205
    105  NE        13.0970    4.8990   12.4460 N.pl3 157  ARG157     -0.0865
    106  CZ        12.0630    5.7270   12.6240 C.cat 157  ARG157      0.5346
    107  NH1       12.2110    7.0310   12.4380 N.pl3 157  ARG157      0.1354
    108  NH2       10.9060    5.2730   13.0560 N.pl3 157  ARG157      0.1354
    109  N         19.1870   -1.2050   13.4700 N.3   160  GLU160     -0.1231
    110  CA        18.2720   -2.1430   12.8220 C.3   160  GLU160      0.1699
    111  C         18.4610   -2.0870   11.3040 C.2   160  GLU160      0.2592
    112  O         18.5590   -3.1280   10.6190 O.2   160  GLU160     -0.2718
    113  CB        16.8260   -1.8030   13.1930 C.3   160  GLU160      0.0402
    114  CG        15.7820   -2.8250   12.6720 C.3   160  GLU160      0.1161
    115  CD        15.4140   -2.6660   11.1740 C.2   160  GLU160      0.3649
    116  OE1       15.3610   -1.5140   10.6850 O.co2 160  GLU160     -0.2457
    117  OE2       15.1470   -3.7000   10.4910 O.co2 160  GLU160     -0.2457
    118  N         18.5030   -0.8720   10.7870 N.am  161  SER161     -0.1952
    119  CA        18.5380   -0.6700    9.3540 C.3   161  SER161      0.1924
    120  C         19.8120   -1.1810    8.7700 C.2   161  SER161      0.2314
    121  O         19.7930   -1.8380    7.7180 O.2   161  SER161     -0.2863
    122  CB        18.3020    0.7930    8.9740 C.3   161  SER161      0.2116
    123  OG        16.9850    1.1720    9.3870 O.3   161  SER161     -0.2180
    124  N         20.1530   -4.9980    8.6450 N.3   164  ARG164     -0.1245
    125  CA        19.3550   -5.4900    7.5270 C.3   164  ARG164      0.1563
    126  C         20.0200   -5.2040    6.1680 C.2   164  ARG164      0.2260
    127  O         20.0750   -6.0700    5.2910 O.2   164  ARG164     -0.2867
    128  CB        18.0000   -4.7950    7.6280 C.3   164  ARG164      0.0307
    129  CG        16.9480   -5.1960    6.6680 C.3   164  ARG164      0.0489
    130  CD        15.5540   -4.9590    7.2930 C.3   164  ARG164      0.2205
    131  NE        15.3580   -3.6390    7.8960 N.pl3 164  ARG164     -0.0865
    132  CZ        15.1440   -2.5250    7.2070 C.cat 164  ARG164      0.5346
    133  NH1       15.1800   -2.5490    5.8810 N.pl3 164  ARG164      0.1354
    134  NH2       14.9350   -1.3680    7.8490 N.pl3 164  ARG164      0.1354
@<TRIPOS>BOND
     1    68    67    1
     2    68    69    1
     3    67    64    1
     4    73    72    2
     5    84    83    2
     6    22    20    1
     7     4     3    2
     8    89    88    1
     9    89    90    2
    10    88    87    1
    11    88    91    1
    12    69    63    1
    13    16    17    1
    14     3     2    1
    15    83    87   am
    16    83    82    1
    17    64    65    1
    18    64    63    1
    19    12    11    2
    20    11    10    1
    21    72    71    1
    22    72    81   am
    23    92    93    1
    24    70    65   am
    25    70    71    1
    26    17    20    1
    27    17    18    1
    28    20    21    1
    29    82    81    1
    30    82    85    1
    31    65    66    2
    32    74    71    1
    33    74    75    1
    34    95    94    2
    35    94    93    1
    36    21    23    1
    37     2     1    1
    38     2     5    1
    39    75    76    1
    40    93    96    1
    41    10     9    1
    42    10    13    1
    43    85    86    1
    44    18    24   am
    45    18    19    2
    46     5     6    1
    47    24    25    1
    48    14    13    1
    49    13    15    1
    50   127   126    2
    51    96    97    1
    52    27    26    2
    53    76    77    1
    54   133   132    1
    55    77    78    2
    56   126   125    1
    57     6     8    1
    58     6     7    1
    59    25    26    1
    60    25    28    1
    61    62    61    1
    62   129   130    1
    63   129   128    1
    64   132   134    1
    65   132   131    2
    66    78    80    1
    67    78    79    1
    68   130   131    1
    69    61    58    1
    70   125   128    1
    71   125   124    1
    72   121   120    2
    73    58    57    1
    74    58    59    1
    75   120   119    1
    76    43    41    1
    77   122   119    1
    78   122   123    1
    79    29    30    1
    80   119   118    1
    81    59    60    2
    82    45    44    1
    83    45    46    1
    84    32    31    2
    85    41    40    1
    86    35    33    1
    87    44    38   am
    88    40    42    1
    89    40    37    1
    90   117   115   ar
    91    30    31    1
    92    30    33    1
    93   112   111    2
    94   116   115   ar
    95    47    46    2
    96   118   111   am
    97    34    33    1
    98    46    48   am
    99   115   114    1
   100    38    37    1
   101    38    39    2
   102   111   110    1
   103    37    36    1
   104   101   100    2
   105    48    49    1
   106   103   104    1
   107   103   102    1
   108   104   105    1
   109    50    51    2
   110    50    49    1
   111    56    54   ar
   112    55    54   ar
   113   107   106    1
   114   105   106    2
   115    54    53    1
   116   106   108    1
   117   114   113    1
   118    49    52    1
   119   110   113    1
   120   110   109    1
   121   100    99    1
   122   102    99    1
   123    53    52    1
   124    99    98    1
