@<TRIPOS>MOLECULE
tmp/3gyhA00.pdb
 102 99 0 0 0
SMALL
GASTEIGER

@<TRIPOS>ATOM
      1  N         26.4400  -22.6240    9.4970 N.3    45  MET45      -0.1230
      2  CA        25.6630  -21.8760    8.5110 C.3    45  MET45       0.1702
      3  C         24.2180  -22.2590    8.6880 C.2    45  MET45       0.2592
      4  O         23.3350  -21.3990    8.7580 O.2    45  MET45      -0.2718
      5  CB        26.0780  -22.2090    7.0700 C.3    45  MET45       0.0401
      6  CG        27.4800  -21.7900    6.6880 C.3    45  MET45       0.0596
      7  SD        27.8070  -20.0080    6.6520 S.3    45  MET45      -0.1393
      8  CE        28.6920  -19.7990    8.2000 C.3    45  MET45       0.0692
      9  N         23.9940  -23.5660    8.7660 N.am   46  LYS46      -0.1980
     10  CA        22.6670  -24.1040    8.9690 C.3    46  LYS46       0.1596
     11  C         22.0220  -23.4640   10.1800 C.2    46  LYS46       0.2287
     12  O         20.8030  -23.3960   10.2570 O.2    46  LYS46      -0.2864
     13  CB        22.7250  -25.6150    9.1570 C.3    46  LYS46       0.0298
     14  CG        21.4170  -26.3160    8.8930 C.3    46  LYS46       0.0038
     15  CD        21.2950  -27.5400    9.7590 C.3    46  LYS46       0.0206
     16  CE        19.8740  -28.0850    9.7480 C.3    46  LYS46       0.1093
     17  NZ        19.7630  -29.2090   10.7280 N.3    46  LYS46      -0.1314
     18  N         21.7320  -20.3940   11.4640 N.3    48  LEU48      -0.1231
     19  CA        21.7240  -18.9400   11.4260 C.3    48  LEU48       0.1693
     20  C         20.3300  -18.3950   11.1850 C.2    48  LEU48       0.2592
     21  O         19.5890  -18.9350   10.3680 O.2    48  LEU48      -0.2718
     22  CB        22.6370  -18.4510   10.3120 C.3    48  LEU48       0.0284
     23  CG        24.1270  -18.5310   10.5990 C.3    48  LEU48       0.0019
     24  CD1       24.8700  -18.6460    9.2910 C.3    48  LEU48       0.0001
     25  CD2       24.5530  -17.2910   11.3570 C.3    48  LEU48       0.0001
     26  N         19.9750  -17.3120   11.8680 N.am   49  HIS49      -0.1962
     27  CA        18.6870  -16.6690   11.5990 C.3    49  HIS49       0.1772
     28  C         18.6360  -16.0990   10.1820 C.2    49  HIS49       0.2462
     29  O         19.6080  -15.5100    9.7140 O.2    49  HIS49      -0.2730
     30  CB        18.3800  -15.6000   12.6430 C.3    49  HIS49       0.0785
     31  CG        18.3720  -16.1250   14.0410 C.ar   49  HIS49       0.0821
     32  ND1       18.1100  -17.4480   14.3320 N.ar   49  HIS49      -0.2267
     33  CD2       18.6070  -15.5160   15.2280 C.ar   49  HIS49       0.1154
     34  CE1       18.1780  -17.6290   15.6400 C.ar   49  HIS49       0.1986
     35  NE2       18.4800  -16.4730   16.2070 N.ar   49  HIS49      -0.2212
     36  N         17.5010  -16.2960    9.4880 N.am   50  PRO50      -0.2727
     37  CA        17.2940  -15.7980    8.1300 C.3    50  PRO50       0.1402
     38  C         17.5650  -14.3060    8.0360 C.2    50  PRO50       0.2269
     39  O         17.9230  -13.8070    6.9690 O.2    50  PRO50      -0.2865
     40  CB        15.8110  -16.0620    7.8860 C.3    50  PRO50       0.0296
     41  CG        15.4970  -17.2050    8.7450 C.3    50  PRO50       0.0237
     42  CD        16.3380  -17.0520    9.9760 C.3    50  PRO50       0.0939
     43  N         26.0990  -16.1290    4.1280 N.3    56  TRP56      -0.1241
     44  CA        25.9930  -17.5710    4.1730 C.3    56  TRP56       0.1605
     45  C         25.8780  -18.1750    2.7750 C.2    56  TRP56       0.2264
     46  O         26.2060  -19.3450    2.5640 O.2    56  TRP56      -0.2867
     47  CB        24.8180  -18.0060    5.0520 C.3    56  TRP56       0.0550
     48  CG        23.5090  -17.5500    4.5390 C.ar   56  TRP56       0.0003
     49  CD1       22.8550  -16.3980    4.8700 C.ar   56  TRP56       0.0946
     50  CD2       22.6780  -18.2250    3.5820 C.ar   56  TRP56       0.0152
     51  NE1       21.6620  -16.3170    4.1850 N.ar   56  TRP56      -0.2442
     52  CE2       21.5310  -17.4240    3.3860 C.ar   56  TRP56       0.0810
     53  CE3       22.7890  -19.4290    2.8740 C.ar   56  TRP56       0.0012
     54  CZ2       20.5010  -17.7880    2.5120 C.ar   56  TRP56       0.0191
     55  CZ3       21.7600  -19.7880    2.0040 C.ar   56  TRP56       0.0001
     56  CH2       20.6340  -18.9680    1.8330 C.ar   56  TRP56       0.0015
     57  N         19.9380  -30.2930    0.6120 N.3    69  ARG69      -0.1245
     58  CA        19.5110  -29.9820    1.9590 C.3    69  ARG69       0.1563
     59  C         18.3440  -30.8320    2.4010 C.2    69  ARG69       0.2260
     60  O         17.3070  -30.8910    1.7430 O.2    69  ARG69      -0.2867
     61  CB        19.1700  -28.5040    2.1010 C.3    69  ARG69       0.0307
     62  CG        20.1110  -27.7660    3.0330 C.3    69  ARG69       0.0489
     63  CD        20.3970  -26.3520    2.5390 C.3    69  ARG69       0.2205
     64  NE        21.3510  -26.3360    1.4360 N.pl3  69  ARG69      -0.0865
     65  CZ        22.1930  -25.3380    1.1850 C.cat  69  ARG69       0.5346
     66  NH1       22.2110  -24.2620    1.9550 N.pl3  69  ARG69       0.1354
     67  NH2       23.0220  -25.4170    0.1520 N.pl3  69  ARG69       0.1354
     68  N         14.6790  -25.2890   -0.0700 N.3    74  GLY74      -0.1210
     69  CA        14.6450  -23.8660    0.2460 C.3    74  GLY74       0.1956
     70  C         15.9690  -23.1660   -0.0120 C.2    74  GLY74       0.2611
     71  O         16.0040  -21.9640   -0.2700 O.2    74  GLY74      -0.2717
     72  N         17.0630  -23.9200    0.0560 N.am   75  GLU75      -0.1979
     73  CA        18.3690  -23.4270   -0.3730 C.3    75  GLU75       0.1602
     74  C         18.4020  -22.8450   -1.7950 C.2    75  GLU75       0.2287
     75  O         19.3800  -22.1850   -2.1830 O.2    75  GLU75      -0.2864
     76  CB        19.3880  -24.5510   -0.2910 C.3    75  GLU75       0.0415
     77  CG        20.1120  -24.8040   -1.6070 C.3    75  GLU75       0.1163
     78  CD        19.2290  -25.4670   -2.6380 C.2    75  GLU75       0.3649
     79  OE1       18.6260  -26.5140   -2.3180 O.co2  75  GLU75      -0.2457
     80  OE2       19.1340  -24.9380   -3.7660 O.co2  75  GLU75      -0.2457
     81  N         17.2590  -20.4910   -2.5240 N.3    77  ARG77      -0.1245
     82  CA        17.7880  -19.1970   -2.1030 C.3    77  ARG77       0.1563
     83  C         19.2540  -19.0340   -2.5070 C.2    77  ARG77       0.2260
     84  O         19.6020  -18.0720   -3.1930 O.2    77  ARG77      -0.2867
     85  CB        17.6130  -18.9960   -0.5930 C.3    77  ARG77       0.0307
     86  CG        16.1760  -19.1630   -0.0930 C.3    77  ARG77       0.0489
     87  CD        15.3940  -17.8420   -0.0780 C.3    77  ARG77       0.2205
     88  NE        15.8220  -16.9160   -1.1320 N.pl3  77  ARG77      -0.0865
     89  CZ        15.1550  -16.6960   -2.2630 C.cat  77  ARG77       0.5346
     90  NH1       14.0150  -17.3330   -2.5020 N.pl3  77  ARG77       0.1354
     91  NH2       15.6290  -15.8380   -3.1580 N.pl3  77  ARG77       0.1354
     92  N         20.4320  -15.8450   -4.5830 N.3    81  ARG81      -0.1245
     93  CA        21.2690  -14.8440   -3.9390 C.3    81  ARG81       0.1563
     94  C         22.5710  -14.7260   -4.7070 C.2    81  ARG81       0.2260
     95  O         23.0660  -13.6270   -4.9550 O.2    81  ARG81      -0.2867
     96  CB        21.5340  -15.2290   -2.4890 C.3    81  ARG81       0.0307
     97  CG        20.2890  -15.6850   -1.7490 C.3    81  ARG81       0.0489
     98  CD        19.6930  -14.5830   -0.9070 C.3    81  ARG81       0.2205
     99  NE        19.2490  -15.1060    0.3800 N.pl3  81  ARG81      -0.0865
    100  CZ        18.2950  -14.5550    1.1270 C.cat  81  ARG81       0.5346
    101  NH1       17.6770  -13.4520    0.7140 N.pl3  81  ARG81       0.1354
    102  NH2       17.9570  -15.1070    2.2880 N.pl3  81  ARG81       0.1354
@<TRIPOS>BOND
     1    95    94    2
     2    94    93    1
     3    92    93    1
     4    93    96    1
     5    80    78   ar
     6    84    83    2
     7    91    89    1
     8    78    79   ar
     9    78    77    1
    10    81    82    1
    11    83    82    1
    12    90    89    1
    13    96    97    1
    14    89    88    2
    15    75    74    2
    16    82    85    1
    17    74    73    1
    18    97    98    1
    19    77    76    1
    20    88    87    1
    21    98    99    1
    22    85    86    1
    23    73    76    1
    24    73    72    1
    25    71    70    2
    26    86    87    1
    27    68    69    1
    28    70    72   am
    29    70    69    1
    30    67    65    1
    31    99   100    2
    32    57    58    1
    33   101   100    1
    34   100   102    1
    35    65    64    2
    36    65    66    1
    37    64    63    1
    38    60    59    2
    39    56    55   ar
    40    56    54   ar
    41    58    61    1
    42    58    59    1
    43    55    53   ar
    44    61    62    1
    45    54    52   ar
    46    63    62    1
    47    46    45    2
    48    45    44    1
    49    53    50   ar
    50    52    50   ar
    51    52    51   ar
    52    50    48   ar
    53    43    44    1
    54    44    47    1
    55    51    49   ar
    56    48    49   ar
    57    48    47    1
    58     7     6    1
    59     7     8    1
    60     6     5    1
    61    39    38    2
    62     5     2    1
    63    40    37    1
    64    40    41    1
    65    38    37    1
    66    37    36    1
    67     2     3    1
    68     2     1    1
    69     3     4    2
    70     3     9   am
    71    41    42    1
    72     9    10    1
    73    14    13    1
    74    14    15    1
    75    10    13    1
    76    10    11    1
    77    24    23    1
    78    36    42    1
    79    36    28   am
    80    29    28    2
    81    16    15    1
    82    16    17    1
    83    11    12    2
    84    28    27    1
    85    22    23    1
    86    22    19    1
    87    21    20    2
    88    23    25    1
    89    20    19    1
    90    20    26   am
    91    19    18    1
    92    27    26    1
    93    27    30    1
    94    30    31    1
    95    31    32   ar
    96    31    33   ar
    97    32    34   ar
    98    33    35   ar
    99    34    35   ar
