@<TRIPOS>MOLECULE
tmp/3gynB00.pdb
 226 211 0 0 0
SMALL
GASTEIGER

@<TRIPOS>ATOM
      1  N         66.4610  -12.8800   43.7820 N.3   153  ARG153     -0.1245
      2  CA        65.4630  -12.2670   42.9030 C.3   153  ARG153      0.1563
      3  C         66.1200  -11.1430   42.1120 C.2   153  ARG153      0.2260
      4  O         67.1180  -10.5700   42.5550 O.2   153  ARG153     -0.2867
      5  CB        64.2970  -11.7010   43.7170 C.3   153  ARG153      0.0307
      6  CG        63.1450  -12.6700   43.9420 C.3   153  ARG153      0.0489
      7  CD        62.1580  -12.1670   45.0030 C.3   153  ARG153      0.2205
      8  NE        61.9690  -10.7140   44.9680 N.pl3 153  ARG153     -0.0865
      9  CZ        60.8850  -10.0780   45.4130 C.cat 153  ARG153      0.5346
     10  NH1       59.8640  -10.7630   45.9270 N.pl3 153  ARG153      0.1354
     11  NH2       60.8140   -8.7510   45.3360 N.pl3 153  ARG153      0.1354
     12  N         44.9380   -5.4540   48.9740 N.3   188  PHE188     -0.1241
     13  CA        45.7700   -4.4320   49.5950 C.3   188  PHE188      0.1605
     14  C         44.9580   -3.3330   50.3140 C.2   188  PHE188      0.2264
     15  O         45.5370   -2.4900   51.0080 O.2   188  PHE188     -0.2867
     16  CB        46.7350   -3.8250   48.5710 C.3   188  PHE188      0.0534
     17  CG        47.8380   -4.7570   48.1380 C.ar  188  PHE188     -0.0203
     18  CD1       48.6900   -5.3410   49.0740 C.ar  188  PHE188     -0.0042
     19  CD2       48.0310   -5.0420   46.7970 C.ar  188  PHE188     -0.0042
     20  CE1       49.7190   -6.1990   48.6750 C.ar  188  PHE188     -0.0003
     21  CE2       49.0610   -5.8860   46.3890 C.ar  188  PHE188     -0.0003
     22  CZ        49.9060   -6.4650   47.3390 C.ar  188  PHE188     -0.0000
     23  N         45.6480   -6.5280   58.3020 N.3   192  PRO192     -0.2116
     24  CA        45.5730   -7.9760   58.5700 C.3   192  PRO192      0.1372
     25  C         44.2450   -8.4250   59.1730 C.2   192  PRO192      0.2244
     26  O         43.7320   -9.4700   58.7880 O.2   192  PRO192     -0.2868
     27  CB        46.7300   -8.2120   59.5550 C.3   192  PRO192      0.0268
     28  CG        47.7180   -7.1660   59.1880 C.3   192  PRO192      0.0207
     29  CD        46.8690   -5.9410   58.8860 C.3   192  PRO192      0.0892
     30  N         41.5530   -8.4280   56.5600 N.3   195  ARG195     -0.1245
     31  CA        41.8090   -9.5820   55.6970 C.3   195  ARG195      0.1563
     32  C         41.2030  -10.8560   56.2870 C.2   195  ARG195      0.2260
     33  O         40.5360  -11.6200   55.5810 O.2   195  ARG195     -0.2867
     34  CB        43.3090   -9.7660   55.4240 C.3   195  ARG195      0.0307
     35  CG        43.5920  -10.8720   54.4070 C.3   195  ARG195      0.0489
     36  CD        45.0800  -11.1550   54.2220 C.3   195  ARG195      0.2205
     37  NE        45.2700  -12.2310   53.2480 N.pl3 195  ARG195     -0.0865
     38  CZ        45.3750  -12.0560   51.9310 C.cat 195  ARG195      0.5346
     39  NH1       45.3110  -10.8380   51.3890 N.pl3 195  ARG195      0.1354
     40  NH2       45.5180  -13.1100   51.1440 N.pl3 195  ARG195      0.1354
     41  N         56.0060  -12.5290   37.2150 N.3   220  ASP220     -0.1239
     42  CA        56.5610  -11.4060   36.4490 C.3   220  ASP220      0.1674
     43  C         56.9920  -11.7890   35.0410 C.2   220  ASP220      0.2266
     44  O         56.7230  -11.0580   34.0880 O.2   220  ASP220     -0.2867
     45  CB        57.7230  -10.7610   37.2060 C.3   220  ASP220      0.1410
     46  CG        57.2500   -9.8690   38.3460 C.2   220  ASP220      0.3668
     47  OD1       56.0310   -9.8530   38.6440 O.co2 220  ASP220     -0.2456
     48  OD2       58.0970   -9.1810   38.9450 O.co2 220  ASP220     -0.2456
     49  N         60.1530   -5.5200   37.8720 N.3   277  SER277     -0.1217
     50  CA        59.8100   -5.5920   39.2860 C.3   277  SER277      0.1889
     51  C         59.7980   -4.2210   39.9480 C.2   277  SER277      0.2288
     52  O         59.0790   -4.0020   40.9240 O.2   277  SER277     -0.2866
     53  CB        60.8020   -6.4830   40.0180 C.3   277  SER277      0.2089
     54  OG        62.0890   -5.9020   39.9730 O.3   277  SER277     -0.2183
     55  N         53.8720   -1.9680   38.9910 N.3   282  THR282     -0.1203
     56  CA        54.0930   -3.4090   39.1390 C.3   282  THR282      0.1994
     57  C         52.9890   -4.0680   39.9700 C.2   282  THR282      0.2618
     58  O         52.3870   -5.0470   39.5440 O.2   282  THR282     -0.2717
     59  CB        55.4820   -3.7430   39.7440 C.3   282  THR282      0.1784
     60  OG1       56.5140   -3.2290   38.8920 O.3   282  THR282     -0.2211
     61  CG2       55.6620   -5.2670   39.8880 C.3   282  THR282      0.0376
     62  N         52.7310   -3.5160   41.1510 N.am  283  SER283     -0.1951
     63  CA        51.7090   -4.0390   42.0460 C.3   283  SER283      0.1924
     64  C         50.3230   -4.0410   41.4080 C.2   283  SER283      0.2314
     65  O         49.6490   -5.0710   41.3930 O.2   283  SER283     -0.2863
     66  CB        51.6900   -3.2390   43.3460 C.3   283  SER283      0.2116
     67  OG        50.6990   -3.7370   44.2280 O.3   283  SER283     -0.2180
     68  N         50.0990   -6.3100   38.1130 N.3   286  ASN286     -0.1240
     69  CA        50.0740   -7.7300   38.4530 C.3   286  ASN286      0.1653
     70  C         48.7240   -8.1430   39.0440 C.2   286  ASN286      0.2266
     71  O         48.1810   -9.1940   38.6800 O.2   286  ASN286     -0.2867
     72  CB        51.2090   -8.0820   39.4110 C.3   286  ASN286      0.1155
     73  CG        52.5260   -8.3590   38.6900 C.2   286  ASN286      0.2627
     74  OD1       52.6140   -8.2670   37.4660 O.2   286  ASN286     -0.2716
     75  ND2       53.5590   -8.7080   39.4580 N.am  286  ASN286     -0.0877
     76  N         46.3180  -10.1200   45.7210 N.3   311  ASN311     -0.1225
     77  CA        47.3270   -9.1620   46.1230 C.3   311  ASN311      0.1785
     78  C         48.4730   -9.2830   45.1280 C.2   311  ASN311      0.2598
     79  O         49.3570  -10.1300   45.2940 O.2   311  ASN311     -0.2718
     80  CB        47.8710   -9.5060   47.5220 C.3   311  ASN311      0.1169
     81  CG        46.8530   -9.3020   48.6290 C.2   311  ASN311      0.2627
     82  OD1       45.8620  -10.0220   48.7270 O.2   311  ASN311     -0.2716
     83  ND2       47.1270   -8.3420   49.5060 N.am  311  ASN311     -0.0877
     84  N         48.4580   -8.4610   44.0850 N.am  312  GLY312     -0.1942
     85  CA        49.4480   -8.5920   43.0190 C.3   312  GLY312      0.2014
     86  C         49.3440   -9.9630   42.3920 C.2   312  GLY312      0.2639
     87  O         48.2930  -10.3320   41.8670 O.2   312  GLY312     -0.2714
     88  N         50.4300  -10.7250   42.4830 N.am  313  ASP313     -0.1957
     89  CA        50.5100  -12.0770   41.9280 C.3   313  ASP313      0.1840
     90  C         50.0260  -13.1540   42.9110 C.2   313  ASP313      0.2622
     91  O         49.9350  -14.3350   42.5660 O.2   313  ASP313     -0.2715
     92  CB        51.9500  -12.3690   41.4640 C.3   313  ASP313      0.1450
     93  CG        52.9820  -12.3380   42.6020 C.2   313  ASP313      0.3671
     94  OD1       52.6950  -11.8440   43.7170 O.co2 313  ASP313     -0.2456
     95  OD2       54.1130  -12.8120   42.3620 O.co2 313  ASP313     -0.2456
     96  N         49.7140  -12.7370   44.1360 N.am  314  ASP314     -0.1971
     97  CA        49.2520  -13.6580   45.1530 C.3   314  ASP314      0.1709
     98  C         47.7390  -13.7860   45.0520 C.2   314  ASP314      0.2293
     99  O         47.0180  -12.8000   45.2160 O.2   314  ASP314     -0.2864
    100  CB        49.6710  -13.1880   46.5500 C.3   314  ASP314      0.1436
    101  CG        49.5370  -14.2830   47.5970 C.2   314  ASP314      0.3671
    102  OD1       48.3930  -14.6950   47.9030 O.co2 314  ASP314     -0.2456
    103  OD2       50.5820  -14.7330   48.1060 O.co2 314  ASP314     -0.2456
    104  N         49.2030  -14.7620   50.8570 N.3   361  CYS361     -0.1221
    105  CA        50.1460  -13.7310   51.2910 C.3   361  CYS361      0.1808
    106  C         51.0040  -14.2510   52.4450 C.2   361  CYS361      0.2601
    107  O         51.1500  -13.5870   53.4800 O.2   361  CYS361     -0.2717
    108  CB        49.4230  -12.4390   51.6740 C.3   361  CYS361      0.0970
    109  SG        48.9280  -11.4620   50.2490 S.3   361  CYS361     -0.0800
    110  N         51.5360  -15.4590   52.2550 N.am  362  SER362     -0.1952
    111  CA        52.4010  -16.1400   53.2300 C.3   362  SER362      0.1924
    112  C         51.7550  -16.3960   54.6010 C.2   362  SER362      0.2314
    113  O         52.4420  -16.7910   55.5560 O.2   362  SER362     -0.2863
    114  CB        53.7260  -15.3810   53.3770 C.3   362  SER362      0.2116
    115  OG        54.2850  -15.1440   52.1010 O.3   362  SER362     -0.2180
    116  N         45.3550  -13.2050   62.0400 N.3   379  LEU379     -0.1245
    117  CA        46.2560  -13.6240   60.9810 C.3   379  LEU379      0.1561
    118  C         47.6530  -13.8520   61.5210 C.2   379  LEU379      0.2260
    119  O         48.2050  -13.0050   62.2320 O.2   379  LEU379     -0.2867
    120  CB        46.3090  -12.5790   59.8640 C.3   379  LEU379      0.0270
    121  CG        46.6880  -13.0940   58.4780 C.3   379  LEU379      0.0019
    122  CD1       45.5130  -13.8410   57.8580 C.3   379  LEU379      0.0001
    123  CD2       47.0890  -11.9470   57.5860 C.3   379  LEU379      0.0001
    124  N         51.5430  -16.3460   60.5150 N.3   381  ARG381     -0.1245
    125  CA        52.3340  -16.9740   59.4780 C.3   381  ARG381      0.1563
    126  C         53.4140  -17.8230   60.1400 C.2   381  ARG381      0.2260
    127  O         53.7030  -17.6500   61.3250 O.2   381  ARG381     -0.2867
    128  CB        52.9690  -15.9140   58.5660 C.3   381  ARG381      0.0307
    129  CG        53.9200  -14.9390   59.2680 C.3   381  ARG381      0.0489
    130  CD        54.8010  -14.2090   58.2650 C.3   381  ARG381      0.2205
    131  NE        55.7150  -15.1320   57.6060 N.pl3 381  ARG381     -0.0865
    132  CZ        56.2550  -14.9400   56.4080 C.cat 381  ARG381      0.5346
    133  NH1       55.9820  -13.8410   55.7110 N.pl3 381  ARG381      0.1354
    134  NH2       57.0670  -15.8590   55.9070 N.pl3 381  ARG381      0.1354
    135  N         65.2830  -13.0040   59.3790 N.3   389  ARG389     -0.1245
    136  CA        65.4970  -11.5790   59.1060 C.3   389  ARG389      0.1563
    137  C         65.7580  -10.7720   60.3850 C.2   389  ARG389      0.2260
    138  O         66.5610   -9.8420   60.3800 O.2   389  ARG389     -0.2867
    139  CB        64.3440  -11.0030   58.2710 C.3   389  ARG389      0.0307
    140  CG        64.2570  -11.6880   56.9050 C.3   389  ARG389      0.0489
    141  CD        63.2230  -11.1070   55.9560 C.3   389  ARG389      0.2205
    142  NE        63.4270  -11.6860   54.6320 N.pl3 389  ARG389     -0.0865
    143  CZ        62.6040  -11.5570   53.5970 C.cat 389  ARG389      0.5346
    144  NH1       61.4840  -10.8590   53.7030 N.pl3 389  ARG389      0.1354
    145  NH2       62.9050  -12.1460   52.4470 N.pl3 389  ARG389      0.1354
    146  N         62.5120   -5.2090   59.0610 N.3   402  SER402     -0.1217
    147  CA        61.4030   -6.1530   58.9380 C.3   402  SER402      0.1889
    148  C         60.8170   -6.5340   60.2980 C.2   402  SER402      0.2288
    149  O         59.6250   -6.8320   60.3830 O.2   402  SER402     -0.2866
    150  CB        61.8340   -7.4130   58.1780 C.3   402  SER402      0.2089
    151  OG        62.7340   -8.1850   58.9570 O.3   402  SER402     -0.2183
    152  N         58.1360   -4.0780   61.0000 N.3   405  GLY405     -0.1210
    153  CA        57.0050   -4.3750   60.1100 C.3   405  GLY405      0.1956
    154  C         56.2350   -5.6010   60.5970 C.2   405  GLY405      0.2611
    155  O         54.9940   -5.6090   60.6270 O.2   405  GLY405     -0.2717
    156  N         56.9790   -6.6360   60.9790 N.am  406  ASN406     -0.1974
    157  CA        56.3870   -7.8470   61.5460 C.3   406  ASN406      0.1688
    158  C         55.6510   -7.6560   62.8630 C.2   406  ASN406      0.2292
    159  O         54.5510   -8.1860   63.0240 O.2   406  ASN406     -0.2864
    160  CB        57.4100   -8.9760   61.6290 C.3   406  ASN406      0.1181
    161  CG        57.6390   -9.6190   60.2910 C.2   406  ASN406      0.2629
    162  OD1       56.6810   -9.9480   59.5890 O.2   406  ASN406     -0.2716
    163  ND2       58.9030   -9.7710   59.9030 N.am  406  ASN406     -0.0877
    164  N         52.3180   -5.8060   61.7440 N.3   409  MET409     -0.1230
    165  CA        51.3640   -6.6190   61.0010 C.3   409  MET409      0.1702
    166  C         50.9390   -7.8950   61.7290 C.2   409  MET409      0.2592
    167  O         49.8230   -8.3790   61.5370 O.2   409  MET409     -0.2718
    168  CB        51.8980   -6.9190   59.5970 C.3   409  MET409      0.0401
    169  CG        52.1290   -5.6540   58.7590 C.3   409  MET409      0.0596
    170  SD        50.6140   -4.7620   58.3440 S.3   409  MET409     -0.1393
    171  CE        50.2290   -5.5720   56.7880 C.3   409  MET409      0.0692
    172  N         51.8050   -8.4270   62.5840 N.am  410  TYR410     -0.1976
    173  CA        51.5040   -9.6820   63.2710 C.3   410  TYR410      0.1639
    174  C         51.4390   -9.5670   64.7910 C.2   410  TYR410      0.2290
    175  O         51.7070  -10.5410   65.5130 O.2   410  TYR410     -0.2864
    176  CB        52.4990  -10.7690   62.8670 C.3   410  TYR410      0.0560
    177  CG        52.3960  -11.1710   61.4220 C.ar  410  TYR410     -0.0198
    178  CD1       51.3820  -12.0190   60.9850 C.ar  410  TYR410     -0.0009
    179  CD2       53.3190  -10.6960   60.4820 C.ar  410  TYR410     -0.0009
    180  CE1       51.2840  -12.3890   59.6340 C.ar  410  TYR410      0.0417
    181  CE2       53.2350  -11.0530   59.1420 C.ar  410  TYR410      0.0417
    182  CZ        52.2170  -11.9000   58.7240 C.ar  410  TYR410      0.1957
    183  OH        52.1470  -12.2610   57.3990 O.3   410  TYR410     -0.2866
    184  N         58.7300   -1.4990   55.8450 N.3   441  GLN441     -0.1231
    185  CA        57.9460   -1.6030   54.6240 C.3   441  GLN441      0.1698
    186  C         56.6660   -2.3830   54.8400 C.2   441  GLN441      0.2592
    187  O         56.6840   -3.5000   55.3710 O.2   441  GLN441     -0.2718
    188  CB        58.7610   -2.2480   53.5020 C.3   441  GLN441      0.0381
    189  CG        59.6960   -1.2940   52.7890 C.3   441  GLN441      0.0905
    190  CD        60.1410   -1.8090   51.4360 C.2   441  GLN441      0.2608
    191  OE1       60.3600   -1.0300   50.5110 O.2   441  GLN441     -0.2717
    192  NE2       60.2670   -3.1260   51.3080 N.am  441  GLN441     -0.0878
    193  N         55.5550   -1.7780   54.4300 N.am  442  ILE442     -0.1966
    194  CA        54.2490   -2.4190   54.4920 C.3   442  ILE442      0.1727
    195  C         53.5840   -2.2990   53.1240 C.2   442  ILE442      0.2616
    196  O         53.4470   -1.1980   52.5800 O.2   442  ILE442     -0.2715
    197  CB        53.3650   -1.8490   55.6280 C.3   442  ILE442      0.0290
    198  CG1       53.9530   -2.2350   56.9940 C.3   442  ILE442      0.0022
    199  CG2       51.9280   -2.3740   55.5220 C.3   442  ILE442      0.0023
    200  CD1       53.4740   -1.3790   58.1540 C.3   442  ILE442      0.0001
    201  N         53.1980   -3.4530   52.5800 N.am  443  TYR443     -0.1960
    202  CA        52.6970   -3.5780   51.2080 C.3   443  TYR443      0.1771
    203  C         53.5720   -2.8410   50.1800 C.2   443  TYR443      0.2620
    204  O         53.0620   -2.1650   49.2800 O.2   443  TYR443     -0.2715
    205  CB        51.2260   -3.1530   51.1010 C.3   443  TYR443      0.0574
    206  CG        50.2390   -4.0050   51.8770 C.ar  443  TYR443     -0.0198
    207  CD1       50.5310   -5.3300   52.2340 C.ar  443  TYR443     -0.0009
    208  CD2       48.9890   -3.4910   52.2250 C.ar  443  TYR443     -0.0009
    209  CE1       49.6060   -6.1120   52.9400 C.ar  443  TYR443      0.0417
    210  CE2       48.0590   -4.2610   52.9250 C.ar  443  TYR443      0.0417
    211  CZ        48.3710   -5.5650   53.2870 C.ar  443  TYR443      0.1957
    212  OH        47.4340   -6.3030   53.9860 O.3   443  TYR443     -0.2866
    213  N         54.8920   -2.9660   50.3370 N.am  444  GLY444     -0.1954
    214  CA        55.8520   -2.3750   49.4060 C.3   444  GLY444      0.1869
    215  C         56.1720   -0.8990   49.5970 C.2   444  GLY444      0.2309
    216  O         57.1290   -0.3940   49.0070 O.2   444  GLY444     -0.2863
    217  N         48.8680   -1.5980   47.2720 N.3   549  GLY549     -0.1225
    218  CA        50.2230   -2.1480   47.2570 C.3   549  GLY549      0.1811
    219  C         51.1180   -1.3840   46.2990 C.2   549  GLY549      0.2280
    220  O         50.6560   -0.8630   45.2870 O.2   549  GLY549     -0.2866
    221  N         54.6720   -2.5120   45.6750 N.3   551  SER551     -0.1217
    222  CA        55.8770   -3.3190   45.4900 C.3   551  SER551      0.1889
    223  C         56.7230   -2.7840   44.3390 C.2   551  SER551      0.2288
    224  O         56.2320   -2.6230   43.2270 O.2   551  SER551     -0.2866
    225  CB        55.5100   -4.7890   45.2450 C.3   551  SER551      0.2089
    226  OG        56.6670   -5.6100   45.2360 O.3   551  SER551     -0.2183
@<TRIPOS>BOND
     1    44    43    2
     2    43    42    1
     3    42    45    1
     4    42    41    1
     5    45    46    1
     6    74    73    2
     7    49    50    1
     8    68    69    1
     9    46    47   ar
    10    46    48   ar
    11    69    70    1
    12    69    72    1
    13    71    70    2
    14    73    72    1
    15    73    75   am
    16    60    59    1
    17    55    56    1
    18    56    59    1
    19    56    57    1
    20    50    51    1
    21    50    53    1
    22    58    57    2
    23    59    61    1
    24    51    52    2
    25    57    62   am
    26    54    53    1
    27    62    63    1
    28    65    64    2
    29    64    63    1
    30    92    89    1
    31    92    93    1
    32    87    86    2
    33    89    88    1
    34    89    90    1
    35    63    66    1
    36     3     4    2
    37     3     2    1
    38    95    93   ar
    39    86    88   am
    40    86    85    1
    41    91    90    2
    42    93    94   ar
    43     2     5    1
    44     2     1    1
    45    90    96   am
    46    85    84    1
    47   224   223    2
    48    66    67    1
    49     5     6    1
    50     6     7    1
    51    84    78   am
    52    96    97    1
    53   223   222    1
    54     8     7    1
    55     8     9    2
    56    98    97    1
    57    98    99    2
    58    78    79    2
    59    78    77    1
    60    97   100    1
    61   226   225    1
    62   225   222    1
    63   220   219    2
    64    11     9    1
    65     9    10    1
    66   222   221    1
    67    76    77    1
    68    77    80    1
    69   219   218    1
    70    21    19   ar
    71    21    22   ar
    72   100   101    1
    73    19    17   ar
    74   218   217    1
    75    22    20   ar
    76    80    81    1
    77   101   102   ar
    78   101   103   ar
    79    17    16    1
    80    17    18   ar
    81    16    13    1
    82    81    82    2
    83    81    83   am
    84    20    18   ar
    85    12    13    1
    86   216   215    2
    87   204   203    2
    88   214   215    1
    89   214   213    1
    90    13    14    1
    91   203   213   am
    92   203   202    1
    93   109   108    1
    94    14    15    2
    95   191   190    2
    96   104   105    1
    97   205   202    1
    98   205   206    1
    99    40    38    1
   100   202   201    1
   101   105   108    1
   102   105   106    1
   103   192   190   am
   104    39    38    1
   105   190   189    1
   106   206   208   ar
   107   206   207   ar
   108    38    37    2
   109   115   114    1
   110   208   210   ar
   111   207   209   ar
   112   110   106   am
   113   110   111    1
   114   106   107    2
   115   145   143    1
   116   201   195   am
   117   196   195    2
   118   189   188    1
   119   210   211   ar
   120   209   211   ar
   121   195   194    1
   122   111   114    1
   123   111   112    1
   124    37    36    1
   125   211   212    1
   126   188   185    1
   127   143   144    1
   128   143   142    2
   129    36    35    1
   130    35    34    1
   131   193   194    1
   132   193   186   am
   133   194   197    1
   134   112   113    2
   135   185   186    1
   136   185   184    1
   137   142   141    1
   138   186   187    2
   139    34    31    1
   140   199   197    1
   141    33    32    2
   142   197   198    1
   143    31    32    1
   144    31    30    1
   145   133   132    1
   146   134   132    1
   147   141   140    1
   148   132   131    2
   149   171   170    1
   150   140   139    1
   151   198   200    1
   152   183   182    1
   153   123   121    1
   154   131   130    1
   155   122   121    1
   156   150   147    1
   157   150   151    1
   158   130   129    1
   159   139   136    1
   160    23    24    1
   161    23    29    1
   162   170   169    1
   163   121   120    1
   164   128   129    1
   165   128   125    1
   166    24    25    1
   167    24    27    1
   168   182   181   ar
   169   182   180   ar
   170   169   168    1
   171    26    25    2
   172    29    28    1
   173   147   146    1
   174   147   148    1
   175   136   135    1
   176   136   137    1
   177   181   179   ar
   178    28    27    1
   179   125   126    1
   180   125   124    1
   181   162   161    2
   182   168   165    1
   183   180   178   ar
   184   120   117    1
   185   163   161   am
   186   153   154    1
   187   153   152    1
   188   126   127    2
   189   161   160    1
   190   148   149    2
   191   138   137    2
   192   179   177   ar
   193   154   155    2
   194   154   156   am
   195   156   157    1
   196   117   118    1
   197   117   116    1
   198   178   177   ar
   199   165   166    1
   200   165   164    1
   201   177   176    1
   202   118   119    2
   203   167   166    2
   204   157   160    1
   205   157   158    1
   206   166   172   am
   207   172   173    1
   208   158   159    2
   209   176   173    1
   210   173   174    1
   211   174   175    2
