@<TRIPOS>MOLECULE
tmp/3gyqB00.pdb
 132 125 0 0 0
SMALL
GASTEIGER

@<TRIPOS>ATOM
      1  N         13.4180    7.4060   91.7550 N.3   188  LEU188     -0.1231
      2  CA        12.8330    7.7010   90.4520 C.3   188  LEU188      0.1693
      3  C         13.4780    6.8760   89.3380 C.2   188  LEU188      0.2592
      4  O         14.6960    6.8930   89.1670 O.2   188  LEU188     -0.2718
      5  CB        12.9240    9.1970   90.1370 C.3   188  LEU188      0.0284
      6  CG        11.9340   10.0870   90.8940 C.3   188  LEU188      0.0019
      7  CD1       12.5240   10.5790   92.2120 C.3   188  LEU188      0.0001
      8  CD2       11.5060   11.2590   90.0300 C.3   188  LEU188      0.0001
      9  N         12.6510    6.1490   88.5900 N.am  189  LYS189     -0.1966
     10  CA        13.1290    5.3180   87.4890 C.3   189  LYS189      0.1728
     11  C         12.0620    5.1900   86.4040 C.2   189  LYS189      0.2616
     12  O         10.8700    5.1270   86.7000 O.2   189  LYS189     -0.2715
     13  CB        13.5060    3.9230   87.9940 C.3   189  LYS189      0.0311
     14  CG        14.7540    3.3070   87.3570 C.3   189  LYS189      0.0038
     15  CD        14.8840    3.5940   85.8640 C.3   189  LYS189      0.0206
     16  CE        15.7020    4.8580   85.6000 C.3   189  LYS189      0.1093
     17  NZ        15.6200    5.3150   84.1860 N.3   189  LYS189     -0.1314
     18  N         12.5030    5.1440   85.1500 N.am  190  ALA190     -0.1977
     19  CA        11.6080    4.9850   84.0070 C.3   190  ALA190      0.1597
     20  C         10.6560    3.8030   84.1740 C.2   190  ALA190      0.2287
     21  O          9.5110    3.8520   83.7250 O.2   190  ALA190     -0.2864
     22  CB        12.4150    4.8350   82.7250 C.3   190  ALA190      0.0319
     23  N         18.0310   10.1650   92.4730 N.3   210  PHE210     -0.1227
     24  CA        18.3120   10.0790   91.0430 C.3   210  PHE210      0.1736
     25  C         19.6880    9.4650   90.7880 C.2   210  PHE210      0.2596
     26  O         20.5910    9.5770   91.6180 O.2   210  PHE210     -0.2718
     27  CB        18.2460   11.4660   90.4000 C.3   210  PHE210      0.0547
     28  CG        16.9160   12.1470   90.5560 C.ar  210  PHE210     -0.0202
     29  CD1       15.9730   12.0990   89.5410 C.ar  210  PHE210     -0.0042
     30  CD2       16.6100   12.8400   91.7160 C.ar  210  PHE210     -0.0042
     31  CE1       14.7500   12.7270   89.6800 C.ar  210  PHE210     -0.0003
     32  CE2       15.3890   13.4690   91.8620 C.ar  210  PHE210     -0.0003
     33  CZ        14.4570   13.4130   90.8420 C.ar  210  PHE210     -0.0000
     34  N         19.8410    8.8200   89.6350 N.am  211  GLY211     -0.1942
     35  CA        21.1190    8.2580   89.2350 C.3   211  GLY211      0.2014
     36  C         21.6860    8.9770   88.0240 C.2   211  GLY211      0.2640
     37  O         21.2070   10.0480   87.6510 O.2   211  GLY211     -0.2714
     38  N         22.7090    8.3910   87.4080 N.am  212  SER212     -0.1935
     39  CA        23.3230    8.9800   86.2210 C.3   212  SER212      0.2055
     40  C         23.0850    8.1140   84.9880 C.2   212  SER212      0.2643
     41  O         23.1370    8.5960   83.8550 O.2   212  SER212     -0.2714
     42  CB        24.8220    9.1950   86.4400 C.3   212  SER212      0.2130
     43  OG        25.4670    7.9850   86.8000 O.3   212  SER212     -0.2179
     44  N         22.8290    6.8310   85.2210 N.am  213  GLU213     -0.1963
     45  CA        22.5170    5.8940   84.1490 C.3   213  GLU213      0.1733
     46  C         21.0500    5.4930   84.2410 C.2   213  GLU213      0.2616
     47  O         20.4340    5.6280   85.2970 O.2   213  GLU213     -0.2715
     48  CB        23.4010    4.6510   84.2590 C.3   213  GLU213      0.0429
     49  CG        24.8540    4.9460   84.5960 C.3   213  GLU213      0.1163
     50  CD        25.5340    5.8050   83.5490 C.2   213  GLU213      0.3649
     51  OE1       25.0660    5.8160   82.3910 O.co2 213  GLU213     -0.2457
     52  OE2       26.5380    6.4670   83.8830 O.co2 213  GLU213     -0.2457
     53  N         20.4890    5.0000   83.1400 N.am  214  LYS214     -0.1977
     54  CA        19.0910    4.5740   83.1250 C.3   214  LYS214      0.1596
     55  C         18.8740    3.3940   84.0680 C.2   214  LYS214      0.2287
     56  O         17.7410    3.0150   84.3600 O.2   214  LYS214     -0.2864
     57  CB        18.6460    4.2110   81.7060 C.3   214  LYS214      0.0298
     58  CG        17.1580    3.9320   81.5740 C.3   214  LYS214      0.0038
     59  CD        16.7670    3.6580   80.1310 C.3   214  LYS214      0.0206
     60  CE        17.5670    2.5060   79.5460 C.3   214  LYS214      0.1093
     61  NZ        17.4440    1.2710   80.3670 N.3   214  LYS214     -0.1314
     62  N         20.8120    3.4410   86.9870 N.3   216  GLY216     -0.1225
     63  CA        21.0820    4.0930   88.2520 C.3   216  GLY216      0.1811
     64  C         19.8230    4.5220   88.9660 C.2   216  GLY216      0.2280
     65  O         18.7590    4.5600   88.3580 O.2   216  GLY216     -0.2866
     66  N          9.5150    5.4940   91.6070 N.3   229  VAL229     -0.1245
     67  CA         8.6220    6.4300   90.9300 C.3   229  VAL229      0.1561
     68  C          9.0060    6.6060   89.4610 C.2   229  VAL229      0.2260
     69  O         10.1770    6.7880   89.1380 O.2   229  VAL229     -0.2867
     70  CB         8.6320    7.8000   91.6320 C.3   229  VAL229      0.0252
     71  CG1        7.7310    8.7860   90.9050 C.3   229  VAL229      0.0019
     72  CG2        8.2040    7.6480   93.0830 C.3   229  VAL229      0.0019
     73  N          8.3230    8.4360   85.5270 N.3   231  ILE231     -0.1245
     74  CA         7.7780    9.5240   84.7220 C.3   231  ILE231      0.1561
     75  C          7.2960    8.9800   83.3830 C.2   231  ILE231      0.2260
     76  O          8.0950    8.4920   82.5840 O.2   231  ILE231     -0.2867
     77  CB         8.8210   10.6300   84.4700 C.3   231  ILE231      0.0252
     78  CG1        9.3670   11.1610   85.7970 C.3   231  ILE231      0.0019
     79  CG2        8.2170   11.7590   83.6430 C.3   231  ILE231      0.0019
     80  CD1       10.4790   12.1730   85.6370 C.3   231  ILE231      0.0001
     81  N          6.3560    8.1900   79.7220 N.3   233  MET233     -0.1245
     82  CA         6.8930    8.5760   78.4240 C.3   233  MET233      0.1570
     83  C          6.1340    7.8250   77.3370 C.2   233  MET233      0.2261
     84  O          5.2710    7.0000   77.6400 O.2   233  MET233     -0.2867
     85  CB         8.3870    8.2550   78.3440 C.3   233  MET233      0.0387
     86  CG         9.2280    8.9210   79.4250 C.3   233  MET233      0.0595
     87  SD        10.9500    8.3760   79.4230 S.3   233  MET233     -0.1393
     88  CE        10.7600    6.6390   79.8230 C.3   233  MET233      0.0692
     89  N         12.5410    4.3110   76.9080 N.3   238  GLU238     -0.1231
     90  CA        13.3250    5.5230   76.7180 C.3   238  GLU238      0.1699
     91  C         13.9480    5.9280   78.0440 C.2   238  GLU238      0.2593
     92  O         14.2460    5.0850   78.8900 O.2   238  GLU238     -0.2718
     93  CB        12.4430    6.6740   76.2290 C.3   238  GLU238      0.0402
     94  CG        11.0940    6.2630   75.6690 C.3   238  GLU238      0.1161
     95  CD        11.1240    6.0100   74.1790 C.2   238  GLU238      0.3649
     96  OE1       12.1660    5.5490   73.6730 O.co2 238  GLU238     -0.2457
     97  OE2       10.0990    6.2730   73.5140 O.co2 238  GLU238     -0.2457
     98  N         14.1270    7.2340   78.2160 N.am  239  SER239     -0.1938
     99  CA        14.6160    7.8050   79.4640 C.3   239  SER239      0.2055
    100  C         14.7790    9.3100   79.3100 C.2   239  SER239      0.2643
    101  O         14.8100    9.8300   78.1940 O.2   239  SER239     -0.2714
    102  CB        15.9500    7.1780   79.8670 C.3   239  SER239      0.2130
    103  OG        16.9760    7.5580   78.9690 O.3   239  SER239     -0.2179
    104  N         14.8810   10.0070   80.4350 N.am  240  LEU240     -0.1963
    105  CA        15.0460   11.4540   80.4260 C.3   240  LEU240      0.1728
    106  C         16.3820   11.8540   81.0390 C.2   240  LEU240      0.2616
    107  O         16.9620   11.1040   81.8250 O.2   240  LEU240     -0.2715
    108  CB        13.9020   12.1260   81.1920 C.3   240  LEU240      0.0311
    109  CG        12.6670   12.5730   80.4050 C.3   240  LEU240      0.0022
    110  CD1       12.4080   11.6710   79.2100 C.3   240  LEU240      0.0001
    111  CD2       11.4460   12.6390   81.3130 C.3   240  LEU240      0.0001
    112  N         16.8690   13.0320   80.6640 N.am  241  ASN241     -0.1958
    113  CA        18.0500   13.6060   81.2930 C.3   241  ASN241      0.1819
    114  C         17.7730   13.7870   82.7800 C.2   241  ASN241      0.2621
    115  O         16.6790   14.1970   83.1640 O.2   241  ASN241     -0.2715
    116  CB        18.4020   14.9450   80.6400 C.3   241  ASN241      0.1195
    117  CG        19.6910   15.5430   81.1790 C.2   241  ASN241      0.2630
    118  OD1       19.8330   15.7650   82.3810 O.2   241  ASN241     -0.2716
    119  ND2       20.6330   15.8190   80.2840 N.am  241  ASN241     -0.0877
    120  N         18.7590   13.4700   83.6140 N.am  242  VAL242     -0.1977
    121  CA        18.5750   13.5070   85.0620 C.3   242  VAL242      0.1596
    122  C         18.0470   14.8570   85.5500 C.2   242  VAL242      0.2287
    123  O         17.1820   14.9130   86.4240 O.2   242  VAL242     -0.2864
    124  CB        19.8730   13.1430   85.8160 C.3   242  VAL242      0.0276
    125  CG1       21.0180   14.0460   85.3840 C.3   242  VAL242      0.0022
    126  CG2       19.6540   13.2250   87.3200 C.3   242  VAL242      0.0022
    127  N         14.4400   15.0510   84.5590 N.3   245  SER245     -0.1217
    128  CA        13.6710   14.1790   85.4380 C.3   245  SER245      0.1889
    129  C         13.4600   14.8360   86.7950 C.2   245  SER245      0.2288
    130  O         12.3900   14.7170   87.3930 O.2   245  SER245     -0.2866
    131  CB        14.3740   12.8310   85.6090 C.3   245  SER245      0.2089
    132  OG        14.4300   12.1270   84.3810 O.3   245  SER245     -0.2183
@<TRIPOS>BOND
     1    97    95   ar
     2    96    95   ar
     3    95    94    1
     4    94    93    1
     5    93    90    1
     6    90    89    1
     7    90    91    1
     8    83    84    2
     9    83    82    1
    10    91    98   am
    11    91    92    2
    12   101   100    2
    13    98    99    1
    14    85    82    1
    15    85    86    1
    16    82    81    1
    17   103   102    1
    18   110   109    1
    19   100    99    1
    20   100   104   am
    21    87    86    1
    22    87    88    1
    23    99   102    1
    24    60    59    1
    25    60    61    1
    26    59    58    1
    27   119   117   am
    28   109   108    1
    29   109   111    1
    30   105   104    1
    31   105   106    1
    32   105   108    1
    33   116   117    1
    34   116   113    1
    35   112   106   am
    36   112   113    1
    37   106   107    2
    38   117   118    2
    39   113   114    1
    40    58    57    1
    41    57    54    1
    42    51    50   ar
    43    76    75    2
    44    22    19    1
    45   114   115    2
    46   114   120   am
    47    54    53    1
    48    54    55    1
    49    53    46   am
    50    75    74    1
    51    50    52   ar
    52    50    49    1
    53   120   121    1
    54    79    77    1
    55    21    20    2
    56    41    40    2
    57    19    20    1
    58    19    18    1
    59    55    56    2
    60    45    46    1
    61    45    48    1
    62    45    44    1
    63    17    16    1
    64    46    47    2
    65    48    49    1
    66   132   131    1
    67    77    74    1
    68    77    78    1
    69   127   128    1
    70    74    73    1
    71    40    44   am
    72    40    39    1
    73   121   122    1
    74   121   124    1
    75    18    11   am
    76   125   124    1
    77   128   131    1
    78   128   129    1
    79   122   123    2
    80    16    15    1
    81    80    78    1
    82   124   126    1
    83    15    14    1
    84    39    42    1
    85    39    38    1
    86    11    12    2
    87    11    10    1
    88    42    43    1
    89   129   130    2
    90    62    63    1
    91    14    13    1
    92    38    36   am
    93    10    13    1
    94    10     9    1
    95    37    36    2
    96    36    35    1
    97    63    64    1
    98    65    64    2
    99     9     3   am
   100    69    68    2
   101     4     3    2
   102    35    34    1
   103     3     2    1
   104    68    67    1
   105    29    31   ar
   106    29    28   ar
   107    34    25   am
   108    31    33   ar
   109     8     6    1
   110     5     2    1
   111     5     6    1
   112    27    28    1
   113    27    24    1
   114     2     1    1
   115    28    30   ar
   116    25    24    1
   117    25    26    2
   118    33    32   ar
   119     6     7    1
   120    71    70    1
   121    67    66    1
   122    67    70    1
   123    24    23    1
   124    70    72    1
   125    30    32   ar
