@<TRIPOS>MOLECULE
tmp/3gytA00.pdb
 131 124 0 0 0
SMALL
GASTEIGER

@<TRIPOS>ATOM
      1  N         -8.2560  -39.9190    9.7570 N.3    53  ARG53      -0.1245
      2  CA        -8.8550  -40.1270   11.0530 C.3    53  ARG53       0.1563
      3  C        -10.2830  -39.5980   10.9810 C.2    53  ARG53       0.2260
      4  O        -11.1650  -40.1110   11.5950 O.2    53  ARG53      -0.2867
      5  CB        -8.0410  -39.4120   12.1440 C.3    53  ARG53       0.0307
      6  CG        -6.7910  -40.1580   12.5200 C.3    53  ARG53       0.0489
      7  CD        -5.9930  -39.4350   13.5550 C.3    53  ARG53       0.2205
      8  NE        -4.8310  -40.1680   13.9600 N.pl3  53  ARG53      -0.0865
      9  CZ        -4.8410  -41.0790   14.9210 C.cat  53  ARG53       0.5346
     10  NH1       -5.9800  -41.4090   15.5310 N.pl3  53  ARG53       0.1354
     11  NH2       -3.7200  -41.7160   15.2260 N.pl3  53  ARG53       0.1354
     12  N        -12.4030  -42.0970    9.2560 N.3    56  VAL56      -0.1245
     13  CA       -12.7520  -43.1520   10.1890 C.3    56  VAL56       0.1561
     14  C        -13.9100  -42.7520   11.1270 C.2    56  VAL56       0.2260
     15  O        -14.8210  -43.5800   11.3540 O.2    56  VAL56      -0.2867
     16  CB       -11.5590  -43.6490   11.0320 C.3    56  VAL56       0.0252
     17  CG1      -11.9960  -44.7110   12.0690 C.3    56  VAL56       0.0019
     18  CG2      -10.5460  -44.2460   10.1510 C.3    56  VAL56       0.0019
     19  N        -17.7090  -44.6200   11.3660 N.3    60  LYS60      -0.1245
     20  CA       -18.2340  -45.0700   12.6500 C.3    60  LYS60       0.1561
     21  C        -19.5790  -44.4060   12.9560 C.2    60  LYS60       0.2260
     22  O        -20.4340  -44.9750   13.5910 O.2    60  LYS60      -0.2867
     23  CB       -17.2340  -44.7870   13.7940 C.3    60  LYS60       0.0271
     24  CG       -15.8470  -45.5000   13.6460 C.3    60  LYS60       0.0035
     25  CD       -14.9720  -45.3030   14.8820 C.3    60  LYS60       0.0206
     26  CE       -15.4140  -46.2630   16.0070 C.3    60  LYS60       0.1093
     27  NZ       -14.6020  -46.1610   17.2280 N.3    60  LYS60      -0.1314
     28  N        -22.8530  -48.8260    8.5030 N.3    65  PHE65      -0.1241
     29  CA       -21.5710  -49.3820    8.7130 C.3    65  PHE65       0.1605
     30  C        -21.5850  -50.2710    9.9270 C.2    65  PHE65       0.2264
     31  O        -20.7680  -51.1810   10.0160 O.2    65  PHE65      -0.2867
     32  CB       -20.5880  -48.2120    8.8880 C.3    65  PHE65       0.0534
     33  CG       -19.1280  -48.6200    8.9070 C.ar   65  PHE65      -0.0203
     34  CD1      -18.5270  -49.0490    7.7670 C.ar   65  PHE65      -0.0042
     35  CD2      -18.3640  -48.5350   10.0860 C.ar   65  PHE65      -0.0042
     36  CE1      -17.1980  -49.4490    7.7840 C.ar   65  PHE65      -0.0003
     37  CE2      -17.0620  -48.9100   10.1220 C.ar   65  PHE65      -0.0003
     38  CZ       -16.4580  -49.3810    8.9640 C.ar   65  PHE65      -0.0000
     39  N        -17.1800  -56.8320   12.7500 N.3    70  GLU70      -0.1231
     40  CA       -15.9860  -56.0740   13.0990 C.3    70  GLU70       0.1699
     41  C        -14.8550  -56.3390   12.0930 C.2    70  GLU70       0.2592
     42  O        -14.1950  -55.4420   11.6730 O.2    70  GLU70      -0.2718
     43  CB       -15.5130  -56.3900   14.5230 C.3    70  GLU70       0.0402
     44  CG       -16.4160  -55.8360   15.6250 C.3    70  GLU70       0.1161
     45  CD       -16.6070  -54.2900   15.5080 C.2    70  GLU70       0.3649
     46  OE1      -17.7770  -53.8000   15.4380 O.co2  70  GLU70      -0.2457
     47  OE2      -15.5800  -53.5560   15.4510 O.co2  70  GLU70      -0.2457
     48  N        -14.6540  -57.5900   11.7110 N.am   71  ALA71      -0.1980
     49  CA       -13.6010  -57.8730   10.7870 C.3    71  ALA71       0.1597
     50  C        -13.9370  -57.2760    9.4120 C.2    71  ALA71       0.2287
     51  O        -13.0500  -56.8610    8.6520 O.2    71  ALA71      -0.2864
     52  CB       -13.3790  -59.3350   10.7090 C.3    71  ALA71       0.0319
     53  N        -15.5960  -54.4510    8.9610 N.3    73  LYS73      -0.1231
     54  CA       -15.3700  -53.0360    9.0620 C.3    73  LYS73       0.1693
     55  C        -13.9150  -52.7200    8.7650 C.2    73  LYS73       0.2592
     56  O        -13.6000  -51.8200    7.9620 O.2    73  LYS73      -0.2718
     57  CB       -15.6980  -52.5920   10.4790 C.3    73  LYS73       0.0285
     58  CG       -17.1610  -52.4630   10.7700 C.3    73  LYS73       0.0035
     59  CD       -17.3320  -51.9320   12.1460 C.3    73  LYS73       0.0206
     60  CE       -18.7640  -51.9300   12.5610 C.3    73  LYS73       0.1093
     61  NZ       -18.8480  -51.7720   14.0130 N.3    73  LYS73      -0.1314
     62  N        -13.0280  -53.4730    9.3980 N.am   74  PHE74      -0.1976
     63  CA       -11.6120  -53.2750    9.1670 C.3    74  PHE74       0.1639
     64  C        -11.2890  -53.4370    7.6850 C.2    74  PHE74       0.2290
     65  O        -10.6400  -52.6330    7.0830 O.2    74  PHE74      -0.2864
     66  CB       -10.7700  -54.2670   10.0360 C.3    74  PHE74       0.0560
     67  CG        -9.3100  -54.1270    9.8520 C.ar   74  PHE74      -0.0200
     68  CD1       -8.6190  -53.1360   10.5040 C.ar   74  PHE74      -0.0042
     69  CD2       -8.6330  -55.0050    9.0590 C.ar   74  PHE74      -0.0042
     70  CE1       -7.2920  -53.0100   10.3550 C.ar   74  PHE74      -0.0003
     71  CE2       -7.2580  -54.8930    8.8790 C.ar   74  PHE74      -0.0003
     72  CZ        -6.5610  -53.8960    9.5260 C.ar   74  PHE74      -0.0000
     73  N        -12.4220  -50.5100    5.4620 N.3    77  LEU77      -0.1231
     74  CA       -11.6190  -49.2840    5.6830 C.3    77  LEU77       0.1693
     75  C        -10.1970  -49.4650    5.1770 C.2    77  LEU77       0.2591
     76  O         -9.6980  -48.6140    4.5050 O.2    77  LEU77      -0.2718
     77  CB       -11.5710  -48.8770    7.1480 C.3    77  LEU77       0.0284
     78  CG       -12.8410  -48.2210    7.6070 C.3    77  LEU77       0.0019
     79  CD1      -12.7020  -47.9620    9.0870 C.3    77  LEU77       0.0001
     80  CD2      -13.0370  -46.9110    6.8340 C.3    77  LEU77       0.0001
     81  N         -9.5880  -50.6000    5.4660 N.am   78  LYS78      -0.1980
     82  CA        -8.2880  -50.9110    4.9620 C.3    78  LYS78       0.1596
     83  C         -8.2200  -50.8830    3.4410 C.2    78  LYS78       0.2287
     84  O         -7.2840  -50.4270    2.8650 O.2    78  LYS78      -0.2864
     85  CB        -7.8880  -52.2640    5.4900 C.3    78  LYS78       0.0298
     86  CG        -6.4980  -52.6660    5.1820 C.3    78  LYS78       0.0038
     87  CD        -5.5210  -51.8910    6.0320 C.3    78  LYS78       0.0206
     88  CE        -4.0740  -52.3800    5.7350 C.3    78  LYS78       0.1093
     89  NZ        -3.1290  -51.7720    6.7120 N.3    78  LYS78      -0.1314
     90  N         -9.6990  -46.8450    1.9560 N.3    81  MET81      -0.1245
     91  CA        -9.1830  -45.6300    2.5140 C.3    81  MET81       0.1570
     92  C         -8.5610  -44.7270    1.4840 C.2    81  MET81       0.2261
     93  O         -9.0220  -43.5670    1.3500 O.2    81  MET81      -0.2867
     94  CB        -8.1670  -45.9380    3.5980 C.3    81  MET81       0.0387
     95  CG        -7.6410  -44.7740    4.3010 C.3    81  MET81       0.0595
     96  SD        -8.8070  -43.8720    5.4330 S.3    81  MET81      -0.1393
     97  CE        -9.2470  -42.5050    4.4350 C.3    81  MET81       0.0692
     98  N          1.7560  -42.3070   12.2770 N.3   232  SER232     -0.1202
     99  CA         1.8000  -43.7830   12.0510 C.3   232  SER232      0.2020
    100  C          0.6140  -44.3470   11.2580 C.2   232  SER232      0.2618
    101  O          0.7830  -45.2360   10.4660 O.2   232  SER232     -0.2717
    102  CB         1.8080  -44.5220   13.3770 C.3   232  SER232      0.2103
    103  OG         2.7230  -43.9540   14.2520 O.3   232  SER232     -0.2182
    104  N         -0.5890  -43.8180   11.4840 N.am  233  LEU233     -0.1979
    105  CA        -1.7960  -44.2680   10.7540 C.3   233  LEU233      0.1596
    106  C         -1.5700  -44.3320    9.2360 C.2   233  LEU233      0.2287
    107  O         -1.7660  -45.3570    8.6710 O.2   233  LEU233     -0.2864
    108  CB        -2.9820  -43.3350   11.0230 C.3   233  LEU233      0.0297
    109  CG        -4.3640  -43.9590   11.1920 C.3   233  LEU233      0.0022
    110  CD1       -5.3870  -43.0050   10.8490 C.3   233  LEU233      0.0001
    111  CD2       -4.5410  -45.1720   10.4350 C.3   233  LEU233      0.0001
    112  N          0.2220  -47.1190    7.6360 N.3   236  GLU236     -0.1231
    113  CA        -0.4240  -48.4390    7.5510 C.3   236  GLU236      0.1699
    114  C         -1.0640  -48.7080    6.2060 C.2   236  GLU236      0.2592
    115  O         -1.3400  -49.8420    5.8590 O.2   236  GLU236     -0.2718
    116  CB        -1.5110  -48.5540    8.6090 C.3   236  GLU236      0.0402
    117  CG        -0.9530  -49.0600    9.9390 C.3   236  GLU236      0.1161
    118  CD        -1.9760  -49.1210   11.0530 C.2   236  GLU236      0.3649
    119  OE1       -3.1720  -49.2940   10.8030 O.co2 236  GLU236     -0.2457
    120  OE2       -1.5840  -49.0330   12.2160 O.co2 236  GLU236     -0.2457
    121  N         -1.2910  -47.6520    5.4350 N.am  237  PHE237     -0.1976
    122  CA        -1.8240  -47.7820    4.0920 C.3   237  PHE237      0.1639
    123  C         -0.7380  -47.5340    3.0560 C.2   237  PHE237      0.2290
    124  O         -0.8720  -47.9500    1.9290 O.2   237  PHE237     -0.2864
    125  CB        -2.9680  -46.7690    3.8880 C.3   237  PHE237      0.0560
    126  CG        -4.0730  -46.9190    4.8460 C.ar  237  PHE237     -0.0200
    127  CD1       -4.0570  -46.2270    6.0250 C.ar  237  PHE237     -0.0042
    128  CD2       -5.1330  -47.7120    4.5650 C.ar  237  PHE237     -0.0042
    129  CE1       -5.0630  -46.3690    6.9170 C.ar  237  PHE237     -0.0003
    130  CE2       -6.1310  -47.8450    5.4390 C.ar  237  PHE237     -0.0003
    131  CZ        -6.0960  -47.1850    6.6140 C.ar  237  PHE237     -0.0000
@<TRIPOS>BOND
     1    93    92    2
     2    92    91    1
     3   124   123    2
     4    90    91    1
     5    91    94    1
     6    84    83    2
     7   123   122    1
     8    83    82    1
     9    94    95    1
    10   125   122    1
    11   125   126    1
    12   122   121    1
    13    95    96    1
    14    97    96    1
    15    76    75    2
    16   128   126   ar
    17   128   130   ar
    18   126   127   ar
    19    82    81    1
    20    82    85    1
    21    75    81   am
    22    75    74    1
    23    86    85    1
    24    86    87    1
    25   121   114   am
    26   130   131   ar
    27    73    74    1
    28    74    77    1
    29    88    87    1
    30    88    89    1
    31   115   114    2
    32   127   129   ar
    33   114   113    1
    34   131   129   ar
    35    80    78    1
    36    65    64    2
    37    77    78    1
    38   113   112    1
    39   113   116    1
    40    78    79    1
    41    64    63    1
    42    34    36   ar
    43    34    33   ar
    44    36    38   ar
    45    56    55    2
    46    28    29    1
    47   116   117    1
    48    51    50    2
    49   107   106    2
    50    29    32    1
    51    29    30    1
    52    55    54    1
    53    55    62   am
    54    71    69   ar
    55    71    72   ar
    56    32    33    1
    57    33    35   ar
    58    53    54    1
    59    38    37   ar
    60    69    67   ar
    61    54    57    1
    62    63    62    1
    63    63    66    1
    64   106   105    1
    65    12    13    1
    66    50    49    1
    67    72    70   ar
    68     1     2    1
    69    67    66    1
    70    67    68   ar
    71    30    31    2
    72   117   118    1
    73    35    37   ar
    74    18    16    1
    75    13    16    1
    76    13    14    1
    77    70    68   ar
    78   111   109    1
    79   101   100    2
    80    57    58    1
    81    52    49    1
    82   105   108    1
    83   105   104    1
    84    58    59    1
    85    49    48    1
    86   119   118   ar
    87   110   109    1
    88     3     2    1
    89     3     4    2
    90   108   109    1
    91    16    17    1
    92     2     5    1
    93   118   120   ar
    94    14    15    2
    95   100   104   am
    96   100    99    1
    97    19    20    1
    98    42    41    2
    99    48    41   am
   100    99    98    1
   101    99   102    1
   102    41    40    1
   103     5     6    1
   104    59    60    1
   105     6     7    1
   106    60    61    1
   107    20    21    1
   108    20    23    1
   109    39    40    1
   110    21    22    2
   111    40    43    1
   112   102   103    1
   113     7     8    1
   114    24    23    1
   115    24    25    1
   116     8     9    2
   117    43    44    1
   118    25    26    1
   119     9    11    1
   120     9    10    1
   121    46    45   ar
   122    47    45   ar
   123    45    44    1
   124    26    27    1
