@<TRIPOS>MOLECULE
tmp/3gz1B00.pdb
 200 192 0 0 0
SMALL
GASTEIGER

@<TRIPOS>ATOM
      1  N        -18.6530   17.9860   -9.4080 N.3    28  ASP28      -0.1239
      2  CA       -17.5340   18.0840   -8.3940 C.3    28  ASP28       0.1674
      3  C        -17.1970   19.5350   -7.9890 C.2    28  ASP28       0.2266
      4  O        -16.8860   19.8140   -6.8470 O.2    28  ASP28      -0.2867
      5  CB       -16.2460   17.3570   -8.8700 C.3    28  ASP28       0.1410
      6  CG       -16.4810   15.8720   -9.1390 C.2    28  ASP28       0.3668
      7  OD1      -17.6280   15.3950   -8.8880 O.co2  28  ASP28      -0.2456
      8  OD2      -15.5470   15.1660   -9.5960 O.co2  28  ASP28      -0.2456
      9  N        -19.9220   20.7910   -5.8900 N.3    31  TYR31      -0.1227
     10  CA       -19.6930   20.1380   -4.5840 C.3    31  TYR31       0.1736
     11  C        -18.6420   20.8640   -3.7410 C.2    31  TYR31       0.2596
     12  O        -18.9110   21.1880   -2.5730 O.2    31  TYR31      -0.2718
     13  CB       -19.3700   18.6280   -4.6810 C.3    31  TYR31       0.0548
     14  CG       -19.2900   18.0440   -3.3060 C.ar   31  TYR31      -0.0200
     15  CD1      -20.4740   17.6580   -2.6380 C.ar   31  TYR31      -0.0009
     16  CD2      -18.0700   17.9550   -2.6260 C.ar   31  TYR31      -0.0009
     17  CE1      -20.4440   17.1050   -1.3330 C.ar   31  TYR31       0.0417
     18  CE2      -18.0020   17.4230   -1.3160 C.ar   31  TYR31       0.0417
     19  CZ       -19.2230   16.9980   -0.6610 C.ar   31  TYR31       0.1957
     20  OH       -19.1920   16.5140    0.6310 O.3    31  TYR31      -0.2866
     21  N        -17.4700   21.1380   -4.3240 N.am   32  SER32      -0.1952
     22  CA       -16.4230   21.9240   -3.6480 C.3    32  SER32       0.1924
     23  C        -16.8870   23.2800   -3.1650 C.2    32  SER32       0.2314
     24  O        -16.4940   23.7090   -2.0970 O.2    32  SER32      -0.2863
     25  CB       -15.2300   22.1660   -4.5740 C.3    32  SER32       0.2116
     26  OG       -14.7890   20.9310   -5.0870 O.3    32  SER32      -0.2180
     27  N        -19.1610   22.4060   -0.1740 N.3    35  TYR35      -0.1227
     28  CA       -18.2690   22.1010    0.9140 C.3    35  TYR35       0.1736
     29  C        -17.5760   23.3190    1.5580 C.2    35  TYR35       0.2595
     30  O        -17.6670   23.5380    2.7990 O.2    35  TYR35      -0.2718
     31  CB       -17.2540   21.0950    0.3830 C.3    35  TYR35       0.0548
     32  CG       -16.3350   20.5310    1.3680 C.ar   35  TYR35      -0.0200
     33  CD1      -16.7510   19.4850    2.1840 C.ar   35  TYR35      -0.0009
     34  CD2      -15.0570   21.0350    1.5180 C.ar   35  TYR35      -0.0009
     35  CE1      -15.9330   18.9450    3.1040 C.ar   35  TYR35       0.0417
     36  CE2      -14.2110   20.5100    2.4390 C.ar   35  TYR35       0.0417
     37  CZ       -14.6500   19.4470    3.2330 C.ar   35  TYR35       0.1957
     38  OH       -13.8130   18.8760    4.1550 O.3    35  TYR35      -0.2866
     39  N        -16.9270   24.1460    0.7410 N.am   36  ASP36      -0.1974
     40  CA       -16.2500   25.3490    1.2380 C.3    36  ASP36       0.1709
     41  C        -17.1550   26.3420    1.8580 C.2    36  ASP36       0.2293
     42  O        -16.8700   26.8440    2.9180 O.2    36  ASP36      -0.2864
     43  CB       -15.4940   26.0330    0.1110 C.3    36  ASP36       0.1436
     44  CG       -14.2650   25.2770   -0.2570 C.2    36  ASP36       0.3671
     45  OD1      -13.4300   25.0430    0.6610 O.co2  36  ASP36      -0.2456
     46  OD2      -14.1390   24.8620   -1.4270 O.co2  36  ASP36      -0.2456
     47  N        -19.9580   25.7820    3.2630 N.3    38  TYR38      -0.1227
     48  CA       -20.4620   25.1460    4.4380 C.3    38  TYR38       0.1736
     49  C        -19.4080   25.2870    5.5830 C.2    38  TYR38       0.2595
     50  O        -19.6990   25.8410    6.6230 O.2    38  TYR38      -0.2718
     51  CB       -20.7190   23.6770    4.1370 C.3    38  TYR38       0.0548
     52  CG       -21.1390   22.8810    5.3590 C.ar   38  TYR38      -0.0200
     53  CD1      -20.1740   22.2480    6.1600 C.ar   38  TYR38      -0.0009
     54  CD2      -22.5160   22.7610    5.7270 C.ar   38  TYR38      -0.0009
     55  CE1      -20.5450   21.5220    7.3140 C.ar   38  TYR38       0.0417
     56  CE2      -22.9170   21.9920    6.8360 C.ar   38  TYR38       0.0417
     57  CZ       -21.9090   21.3950    7.6400 C.ar   38  TYR38       0.1957
     58  OH       -22.2360   20.6210    8.7430 O.3    38  TYR38      -0.2866
     59  N        -18.1900   24.8200    5.3230 N.am   39  ASN39      -0.1974
     60  CA       -17.1160   24.9260    6.3300 C.3    39  ASN39       0.1688
     61  C        -16.8340   26.3510    6.7040 C.2    39  ASN39       0.2292
     62  O        -16.2470   26.6010    7.7410 O.2    39  ASN39      -0.2864
     63  CB       -15.8180   24.2630    5.8620 C.3    39  ASN39       0.1181
     64  CG       -15.9870   22.7920    5.6660 C.2    39  ASN39       0.2629
     65  OD1      -16.5650   22.0910    6.4990 O.2    39  ASN39      -0.2716
     66  ND2      -15.5200   22.3030    4.5390 N.am   39  ASN39      -0.0877
     67  N        -26.1700   22.6920   -2.2650 N.3    50  PHE50      -0.1241
     68  CA       -26.4650   21.3010   -1.9150 C.3    50  PHE50       0.1605
     69  C        -27.8310   20.9060   -2.4470 C.2    50  PHE50       0.2264
     70  O        -28.0320   19.7600   -2.8500 O.2    50  PHE50      -0.2867
     71  CB       -26.4100   21.0440   -0.3960 C.3    50  PHE50       0.0534
     72  CG       -25.0490   20.6520    0.0650 C.ar   50  PHE50      -0.0203
     73  CD1      -24.3670   21.4420    0.9980 C.ar   50  PHE50      -0.0042
     74  CD2      -24.4290   19.5530   -0.4720 C.ar   50  PHE50      -0.0042
     75  CE1      -23.0490   21.1310    1.4140 C.ar   50  PHE50      -0.0003
     76  CE2      -23.0800   19.1990   -0.0200 C.ar   50  PHE50      -0.0003
     77  CZ       -22.4190   19.9970    0.9060 C.ar   50  PHE50      -0.0000
     78  N        -23.2570   11.7110   -0.6150 N.3    62  ASP62      -0.1239
     79  CA       -22.5540   12.9040   -0.1500 C.3    62  ASP62       0.1674
     80  C        -23.3680   14.2120   -0.3530 C.2    62  ASP62       0.2266
     81  O        -23.2670   15.1810    0.4340 O.2    62  ASP62      -0.2867
     82  CB       -21.1980   12.9280   -0.8000 C.3    62  ASP62       0.1410
     83  CG       -20.4280   11.6820   -0.4800 C.2    62  ASP62       0.3668
     84  OD1      -20.2290   11.4860    0.7340 O.co2  62  ASP62      -0.2456
     85  OD2      -20.0550   10.8950   -1.3900 O.co2  62  ASP62      -0.2456
     86  N        -26.0960   13.9710    2.3540 N.3    65  MET65      -0.1230
     87  CA       -25.5130   14.3060    3.6720 C.3    65  MET65       0.1702
     88  C        -25.3180   15.7950    3.8570 C.2    65  MET65       0.2592
     89  O        -25.6020   16.3560    4.9330 O.2    65  MET65      -0.2718
     90  CB       -24.2060   13.5460    3.9700 C.3    65  MET65       0.0401
     91  CG       -24.3930   12.0680    4.2450 C.3    65  MET65       0.0596
     92  SD       -25.3330   11.6400    5.7750 S.3    65  MET65      -0.1393
     93  CE       -24.1030   11.9190    7.0530 C.3    65  MET65       0.0692
     94  N        -24.8330   16.4570    2.8100 N.am   66  GLY66      -0.1957
     95  CA       -24.6220   17.8840    2.8820 C.3    66  GLY66       0.1869
     96  C        -25.9160   18.5970    3.1220 C.2    66  GLY66       0.2309
     97  O        -26.0200   19.4420    3.9520 O.2    66  GLY66      -0.2863
     98  N        -27.0940   17.9750    6.5640 N.3    69  ALA69      -0.1245
     99  CA       -26.3120   18.7090    7.6020 C.3    69  ALA69       0.1562
    100  C        -26.7980   20.1480    7.6800 C.2    69  ALA69       0.2260
    101  O        -26.9710   20.7190    8.8120 O.2    69  ALA69      -0.2867
    102  CB       -24.8570   18.6960    7.2560 C.3    69  ALA69       0.0290
    103  N        -29.9210   20.3280    9.5640 N.3    72  GLN72      -0.1231
    104  CA       -29.6730   20.1160   10.9840 C.3    72  GLN72       0.1698
    105  C        -29.2300   21.4670   11.6460 C.2    72  GLN72       0.2592
    106  O        -29.8410   21.9200   12.5960 O.2    72  GLN72      -0.2718
    107  CB       -28.6130   18.9920   11.2240 C.3    72  GLN72       0.0381
    108  CG       -28.6330   18.5120   12.6860 C.3    72  GLN72       0.0905
    109  CD       -27.6850   17.3580   12.9470 C.2    72  GLN72       0.2608
    110  OE1      -27.2530   16.6720   12.0100 O.2    72  GLN72      -0.2717
    111  NE2      -27.2490   17.2080   14.2130 N.am   72  GLN72      -0.0878
    112  N        -28.2280   22.1190   11.0600 N.am   73  ILE73      -0.1980
    113  CA       -27.6950   23.4050   11.4720 C.3    73  ILE73       0.1595
    114  C        -28.8060   24.4560   11.5170 C.2    73  ILE73       0.2287
    115  O        -28.8100   25.3230   12.3630 O.2    73  ILE73      -0.2864
    116  CB       -26.5920   23.7720   10.5120 C.3    73  ILE73       0.0276
    117  CG1      -25.3590   22.9320   10.8780 C.3    73  ILE73       0.0022
    118  CG2      -26.1650   25.2490   10.6560 C.3    73  ILE73       0.0022
    119  CD1      -24.2810   23.1020    9.8340 C.3    73  ILE73       0.0001
    120  N        -31.4480   12.0930    6.2770 N.3    84  TYR84      -0.1241
    121  CA       -30.5100   11.1290    6.7970 C.3    84  TYR84       0.1605
    122  C        -31.0420    9.7250    6.5790 C.2    84  TYR84       0.2264
    123  O        -30.2330    8.7620    6.4440 O.2    84  TYR84      -0.2867
    124  CB       -30.2270   11.3380    8.2830 C.3    84  TYR84       0.0534
    125  CG       -29.3490   12.4960    8.6040 C.ar   84  TYR84      -0.0201
    126  CD1      -28.0570   12.5730    8.0610 C.ar   84  TYR84      -0.0009
    127  CD2      -29.7660   13.5020    9.4880 C.ar   84  TYR84      -0.0009
    128  CE1      -27.2480   13.6560    8.3410 C.ar   84  TYR84       0.0417
    129  CE2      -28.9510   14.6060    9.8120 C.ar   84  TYR84       0.0417
    130  CZ       -27.6790   14.6870    9.1940 C.ar   84  TYR84       0.1957
    131  OH       -26.7940   15.7500    9.5320 O.3    84  TYR84      -0.2866
    132  N        -22.9700    7.1610   10.3280 N.3    96  THR96      -0.1218
    133  CA       -23.0300    8.5890   10.5640 C.3    96  THR96       0.1862
    134  C        -24.4290    9.1900   10.3990 C.2    96  THR96       0.2287
    135  O        -24.8390    9.9450   11.2560 O.2    96  THR96      -0.2866
    136  CB       -22.0390    9.3030    9.6710 C.3    96  THR96       0.1770
    137  OG1      -20.7640    8.8730   10.0980 O.3    96  THR96      -0.2211
    138  CG2      -22.0550   10.8400    9.9050 C.3    96  THR96       0.0375
    139  N        -26.3550    8.1750   13.5190 N.3    99  PHE99      -0.1227
    140  CA       -25.9680    9.0120   14.6420 C.3    99  PHE99       0.1736
    141  C        -26.6150   10.3960   14.5610 C.2    99  PHE99       0.2595
    142  O        -27.1510   10.9050   15.5320 O.2    99  PHE99      -0.2718
    143  CB       -24.4470    9.1560   14.6990 C.3    99  PHE99       0.0547
    144  CG       -23.9790   10.2580   15.6130 C.ar   99  PHE99      -0.0202
    145  CD1      -23.7000   11.5140   15.1030 C.ar   99  PHE99      -0.0042
    146  CD2      -23.7470   10.0160   16.9900 C.ar   99  PHE99      -0.0042
    147  CE1      -23.2170   12.5440   15.9330 C.ar   99  PHE99      -0.0003
    148  CE2      -23.3610   11.0490   17.8570 C.ar   99  PHE99      -0.0003
    149  CZ       -23.0740   12.3160   17.3500 C.ar   99  PHE99      -0.0000
    150  N        -26.5220   11.0630   13.4200 N.am  100  HIS100     -0.1975
    151  CA       -27.0180   12.4070   13.3740 C.3   100  HIS100      0.1656
    152  C        -28.5180   12.3980   13.4280 C.2   100  HIS100      0.2291
    153  O        -29.1560   13.3780   13.8990 O.2   100  HIS100     -0.2864
    154  CB       -26.5530   13.0890   12.0710 C.3   100  HIS100      0.0771
    155  CG       -25.1140   13.4700   12.0960 C.ar  100  HIS100      0.0820
    156  ND1      -24.5990   14.3690   13.0270 N.ar  100  HIS100     -0.2267
    157  CD2      -24.0670   13.1110   11.2950 C.ar  100  HIS100      0.1154
    158  CE1      -23.2770   14.4970   12.8370 C.ar  100  HIS100      0.1986
    159  NE2      -22.9270   13.7280   11.8140 N.ar  100  HIS100     -0.2212
    160  N        -29.3530   12.6190   16.9410 N.3   103  GLN103     -0.1245
    161  CA       -29.2850   13.9880   17.4540 C.3   103  GLN103      0.1566
    162  C        -30.5700   14.7200   17.1100 C.2   103  GLN103      0.2260
    163  O        -31.0880   15.4270   17.9690 O.2   103  GLN103     -0.2867
    164  CB       -28.1440   14.7340   16.8470 C.3   103  GLN103      0.0367
    165  CG       -26.7690   14.1630   17.2450 C.3   103  GLN103      0.0905
    166  CD       -25.6900   14.9560   16.5140 C.2   103  GLN103      0.2608
    167  OE1      -25.6770   14.9970   15.2540 O.2   103  GLN103     -0.2717
    168  NE2      -24.8590   15.6310   17.2420 N.am  103  GLN103     -0.0878
    169  N        -33.7670   16.4340   19.5170 N.3   107  ARG107     -0.1245
    170  CA       -34.4060   17.7450   19.3740 C.3   107  ARG107      0.1563
    171  C        -35.8710   17.6350   18.9310 C.2   107  ARG107      0.2260
    172  O        -36.5800   18.5770   19.0660 O.2   107  ARG107     -0.2867
    173  CB       -33.6890   18.6710   18.4210 C.3   107  ARG107      0.0307
    174  CG       -32.1770   18.6140   18.4390 C.3   107  ARG107      0.0489
    175  CD       -31.6410   19.2100   19.7260 C.3   107  ARG107      0.2205
    176  NE       -31.9130   20.6130   19.6010 N.pl3 107  ARG107     -0.0865
    177  CZ       -31.0060   21.5620   19.4600 C.cat 107  ARG107      0.5346
    178  NH1      -31.4500   22.8070   19.2400 N.pl3 107  ARG107      0.1354
    179  NH2      -29.6960   21.2680   19.5460 N.pl3 107  ARG107      0.1354
    180  N        -19.1800    9.0690   20.7180 N.3   133  LYS133     -0.1245
    181  CA       -20.2420   10.0170   20.9970 C.3   133  LYS133      0.1561
    182  C        -21.5940    9.3740   21.1450 C.2   133  LYS133      0.2260
    183  O        -22.3870    9.8710   21.9170 O.2   133  LYS133     -0.2867
    184  CB       -20.3170   11.2520   20.0900 C.3   133  LYS133      0.0271
    185  CG       -19.5060   11.2610   18.9310 C.3   133  LYS133      0.0035
    186  CD       -19.1890   12.7410   18.6840 C.3   133  LYS133      0.0206
    187  CE       -18.5810   13.0030   17.3650 C.3   133  LYS133      0.1093
    188  NZ       -19.5430   12.6710   16.2980 N.3   133  LYS133     -0.1314
    189  N        -24.0370    9.9830   24.3500 N.3   137  TYR137     -0.1241
    190  CA       -25.3990   10.4590   24.3390 C.3   137  TYR137      0.1605
    191  C        -26.2170    9.4450   25.0570 C.2   137  TYR137      0.2264
    192  O        -27.1740    9.8150   25.7190 O.2   137  TYR137     -0.2867
    193  CB       -25.9450   10.5270   22.9070 C.3   137  TYR137      0.0534
    194  CG       -25.6850   11.8370   22.2270 C.ar  137  TYR137     -0.0201
    195  CD1      -24.5770   12.0090   21.4270 C.ar  137  TYR137     -0.0009
    196  CD2      -26.6300   12.8980   22.3240 C.ar  137  TYR137     -0.0009
    197  CE1      -24.3160   13.2520   20.7980 C.ar  137  TYR137      0.0417
    198  CE2      -26.3740   14.1540   21.6410 C.ar  137  TYR137      0.0417
    199  CZ       -25.2490   14.2840   20.8920 C.ar  137  TYR137      0.1957
    200  OH       -24.9670   15.4940   20.2190 O.3   137  TYR137     -0.2866
@<TRIPOS>BOND
     1     8     6   ar
     2     1     2    1
     3     6     7   ar
     4     6     5    1
     5     5     2    1
     6     2     3    1
     7     3     4    2
     8     9    10    1
     9    26    25    1
    10    13    10    1
    11    13    14    1
    12    10    11    1
    13    25    22    1
    14    21    11   am
    15    21    22    1
    16    11    12    2
    17    22    23    1
    18    14    15   ar
    19    14    16   ar
    20    23    24    2
    21    70    69    2
    22    15    17   ar
    23    16    18   ar
    24    69    68    1
    25    67    68    1
    26    68    71    1
    27    46    44   ar
    28    85    83   ar
    29    17    19   ar
    30    18    19   ar
    31    82    83    1
    32    82    79    1
    33    19    20    1
    34    78    79    1
    35    83    84   ar
    36    74    76   ar
    37    74    72   ar
    38    71    72    1
    39    80    79    1
    40    80    81    2
    41    44    43    1
    42    44    45   ar
    43    27    28    1
    44    76    77   ar
    45    72    73   ar
    46    43    40    1
    47    31    28    1
    48    31    32    1
    49    39    40    1
    50    39    29   am
    51    77    75   ar
    52    28    29    1
    53    73    75   ar
    54    40    41    1
    55    32    34   ar
    56    32    33   ar
    57    34    36   ar
    58    29    30    2
    59    41    42    2
    60    33    35   ar
    61    86    87    1
    62    36    37   ar
    63    94    95    1
    64    94    88   am
    65    95    96    1
    66    35    37   ar
    67    96    97    2
    68    37    38    1
    69    47    48    1
    70    87    88    1
    71    87    90    1
    72    88    89    2
    73    90    91    1
    74    51    48    1
    75    51    52    1
    76    91    92    1
    77    48    49    1
    78    66    64   am
    79    59    49   am
    80    59    60    1
    81    52    54   ar
    82    52    53   ar
    83    49    50    2
    84    64    63    1
    85    64    65    2
    86    54    56   ar
    87    92    93    1
    88    63    60    1
    89    53    55   ar
    90   120   121    1
    91    60    61    1
    92   123   122    2
    93    98    99    1
    94   122   121    1
    95    61    62    2
    96   121   124    1
    97    56    57   ar
    98   102    99    1
    99    55    57   ar
   100    99   100    1
   101    57    58    1
   102   100   101    2
   103   126   128   ar
   104   126   125   ar
   105   124   125    1
   106   128   130   ar
   107   125   127   ar
   108   130   131    1
   109   130   129   ar
   110   127   129   ar
   111   103   104    1
   112   136   138    1
   113   136   137    1
   114   136   133    1
   115   119   117    1
   116   132   133    1
   117   134   133    1
   118   134   135    2
   119   116   118    1
   120   116   117    1
   121   116   113    1
   122   104   107    1
   123   104   105    1
   124   112   113    1
   125   112   105   am
   126   107   108    1
   127   157   159   ar
   128   157   155   ar
   129   113   114    1
   130   114   115    2
   131   105   106    2
   132   159   158   ar
   133   110   109    2
   134   154   155    1
   135   154   151    1
   136   155   156   ar
   137   108   109    1
   138   158   156   ar
   139   109   111   am
   140   151   150    1
   141   151   152    1
   142   150   141   am
   143   152   153    2
   144   139   140    1
   145   141   140    1
   146   141   142    2
   147   140   143    1
   148   143   144    1
   149   145   144   ar
   150   145   147   ar
   151   167   166    2
   152   144   146   ar
   153   147   149   ar
   154   188   187    1
   155   166   168   am
   156   166   165    1
   157   164   165    1
   158   164   161    1
   159   160   161    1
   160   146   148   ar
   161   162   161    1
   162   162   163    2
   163   149   148   ar
   164   187   186    1
   165   173   174    1
   166   173   170    1
   167   174   175    1
   168   186   185    1
   169   171   172    2
   170   171   170    1
   171   185   184    1
   172   178   177    1
   173   170   169    1
   174   177   179    1
   175   177   176    2
   176   176   175    1
   177   184   181    1
   178   200   199    1
   179   180   181    1
   180   197   199   ar
   181   197   195   ar
   182   199   198   ar
   183   181   182    1
   184   182   183    2
   185   195   194   ar
   186   198   196   ar
   187   194   196   ar
   188   194   193    1
   189   193   190    1
   190   190   189    1
   191   190   191    1
   192   191   192    2
