@<TRIPOS>MOLECULE
tmp/3gz2B00.pdb
 178 169 0 0 0
SMALL
GASTEIGER

@<TRIPOS>ATOM
      1  N         38.9110  -44.3170  -13.0630 N.3    29  ASP29      -0.1239
      2  CA        37.9580  -44.7800  -14.0200 C.3    29  ASP29       0.1674
      3  C         37.7090  -46.1910  -13.6700 C.2    29  ASP29       0.2266
      4  O         36.6300  -46.6620  -13.8540 O.2    29  ASP29      -0.2867
      5  CB        38.4740  -44.6430  -15.4620 C.3    29  ASP29       0.1410
      6  CG        38.3190  -43.2010  -16.0040 C.2    29  ASP29       0.3668
      7  OD1       37.4900  -42.4530  -15.4100 O.co2  29  ASP29      -0.2456
      8  OD2       39.0180  -42.8080  -16.9860 O.co2  29  ASP29      -0.2456
      9  N         35.3670  -45.9260  -10.4080 N.3    32  TYR32      -0.1227
     10  CA        34.0170  -45.6390  -10.8570 C.3    32  TYR32       0.1736
     11  C         33.3500  -46.8350  -11.4870 C.2    32  TYR32       0.2596
     12  O         32.1730  -47.0510  -11.2860 O.2    32  TYR32      -0.2718
     13  CB        34.0850  -44.6030  -11.9200 C.3    32  TYR32       0.0548
     14  CG        32.7680  -44.1310  -12.3320 C.ar   32  TYR32      -0.0200
     15  CD1       32.1440  -43.1290  -11.6130 C.ar   32  TYR32      -0.0009
     16  CD2       32.1250  -44.6650  -13.4550 C.ar   32  TYR32      -0.0009
     17  CE1       30.9090  -42.6410  -11.9700 C.ar   32  TYR32       0.0417
     18  CE2       30.8560  -44.1840  -13.8540 C.ar   32  TYR32       0.0417
     19  CZ        30.2570  -43.1680  -13.1060 C.ar   32  TYR32       0.1957
     20  OH        29.0000  -42.6800  -13.4390 O.3    32  TYR32      -0.2866
     21  N         34.0900  -47.6220  -12.2560 N.am   33  SER33      -0.1952
     22  CA        33.5150  -48.8590  -12.7700 C.3    33  SER33       0.1924
     23  C         33.0180  -49.7800  -11.6870 C.2    33  SER33       0.2314
     24  O         31.8970  -50.2590  -11.7450 O.2    33  SER33      -0.2863
     25  CB        34.4840  -49.6460  -13.6220 C.3    33  SER33       0.2116
     26  OG        34.1930  -49.3130  -14.9540 O.3    33  SER33      -0.2180
     27  N         29.9270  -48.2090   -9.7030 N.3    36  TYR36      -0.1241
     28  CA        28.7680  -48.4690  -10.5210 C.3    36  TYR36       0.1605
     29  C         28.3020  -49.9010  -10.5430 C.2    36  TYR36       0.2264
     30  O         27.1180  -50.1730  -10.5120 O.2    36  TYR36      -0.2867
     31  CB        29.1690  -48.1850  -11.9220 C.3    36  TYR36       0.0534
     32  CG        28.0360  -47.8120  -12.7700 C.ar   36  TYR36      -0.0201
     33  CD1       27.2790  -46.6650  -12.4470 C.ar   36  TYR36      -0.0009
     34  CD2       27.7090  -48.5710  -13.9210 C.ar   36  TYR36      -0.0009
     35  CE1       26.2160  -46.2760  -13.2390 C.ar   36  TYR36       0.0417
     36  CE2       26.6240  -48.1890  -14.7510 C.ar   36  TYR36       0.0417
     37  CZ        25.8800  -47.0240  -14.3980 C.ar   36  TYR36       0.1957
     38  OH        24.8060  -46.5710  -15.1720 O.3    36  TYR36      -0.2866
     39  N         26.4120  -50.4430   -7.6440 N.3    39  TYR39      -0.1241
     40  CA        25.1760  -49.7480   -7.7680 C.3    39  TYR39       0.1605
     41  C         24.1070  -50.4990   -8.5820 C.2    39  TYR39       0.2264
     42  O         22.9760  -50.7210   -8.1240 O.2    39  TYR39      -0.2867
     43  CB        25.4450  -48.4550   -8.4170 C.3    39  TYR39       0.0534
     44  CG        24.2540  -47.6300   -8.5460 C.ar   39  TYR39      -0.0201
     45  CD1       23.5180  -47.6270   -9.7130 C.ar   39  TYR39      -0.0009
     46  CD2       23.8980  -46.8010   -7.5260 C.ar   39  TYR39      -0.0009
     47  CE1       22.4300  -46.7990   -9.8450 C.ar   39  TYR39       0.0417
     48  CE2       22.8280  -45.9660   -7.6310 C.ar   39  TYR39       0.0417
     49  CZ        22.0680  -45.9750   -8.7760 C.ar   39  TYR39       0.1957
     50  OH        20.9770  -45.1400   -8.8510 O.3    39  TYR39      -0.2866
     51  N         31.3290  -44.2380   -3.9180 N.3    51  PHE51      -0.1241
     52  CA        30.8960  -42.9690   -4.4910 C.3    51  PHE51       0.1605
     53  C         31.2230  -41.8570   -3.5270 C.2    51  PHE51       0.2264
     54  O         31.2320  -40.6890   -3.9020 O.2    51  PHE51      -0.2867
     55  CB        29.3990  -42.9530   -4.8820 C.3    51  PHE51       0.0534
     56  CG        29.1330  -43.5330   -6.2500 C.ar   51  PHE51      -0.0203
     57  CD1       29.0010  -44.9130   -6.4390 C.ar   51  PHE51      -0.0042
     58  CD2       29.0890  -42.7250   -7.3660 C.ar   51  PHE51      -0.0042
     59  CE1       28.7910  -45.5030   -7.7540 C.ar   51  PHE51      -0.0003
     60  CE2       28.8930  -43.2870   -8.6450 C.ar   51  PHE51      -0.0003
     61  CZ        28.7370  -44.6830   -8.8250 C.ar   51  PHE51      -0.0000
     62  N         29.6250  -36.8260  -13.0580 N.3    63  ASP63      -0.1239
     63  CA        29.3310  -38.2330  -12.9950 C.3    63  ASP63       0.1674
     64  C         29.4030  -38.8200  -11.5660 C.2    63  ASP63       0.2266
     65  O         28.6450  -39.7440  -11.2420 O.2    63  ASP63      -0.2867
     66  CB        30.2480  -39.0260  -13.9120 C.3    63  ASP63       0.1410
     67  CG        29.8020  -39.0150  -15.3520 C.2    63  ASP63       0.3668
     68  OD1       28.6080  -38.6720  -15.6600 O.co2  63  ASP63      -0.2456
     69  OD2       30.6840  -39.3790  -16.1650 O.co2  63  ASP63      -0.2456
     70  N         26.4500  -37.3150   -9.2030 N.3    66  MET66      -0.1230
     71  CA        25.1820  -37.9260   -9.5600 C.3    66  MET66       0.1702
     72  C         25.0850  -39.2910   -8.9820 C.2    66  MET66       0.2592
     73  O         24.0230  -39.6870   -8.5200 O.2    66  MET66      -0.2718
     74  CB        25.0150  -37.9970  -11.0770 C.3    66  MET66       0.0401
     75  CG        24.7300  -36.6280  -11.6910 C.3    66  MET66       0.0596
     76  SD        23.1040  -35.8670  -11.4040 S.3    66  MET66      -0.1393
     77  CE        22.0740  -37.2300  -11.9590 C.3    66  MET66       0.0692
     78  N         26.2090  -40.0030   -8.9970 N.am   67  GLY67      -0.1957
     79  CA        26.2770  -41.3400   -8.4500 C.3    67  GLY67       0.1869
     80  C         25.9160  -41.3140   -6.9900 C.2    67  GLY67       0.2309
     81  O         25.1370  -42.1310   -6.5450 O.2    67  GLY67      -0.2863
     82  N         22.3010  -40.2740   -6.2820 N.3    70  ALA70      -0.1245
     83  CA        21.3260  -41.3100   -6.5380 C.3    70  ALA70       0.1562
     84  C         21.1880  -42.0930   -5.2390 C.2    70  ALA70       0.2260
     85  O         20.0820  -42.3530   -4.7380 O.2    70  ALA70      -0.2867
     86  CB        21.7940  -42.2350   -7.6550 C.3    70  ALA70       0.0290
     87  N         19.2480  -40.5770   -2.5450 N.3    73  GLN73      -0.1231
     88  CA        17.8300  -40.5460   -2.8690 C.3    73  GLN73       0.1698
     89  C         17.2530  -41.9160   -2.5640 C.2    73  GLN73       0.2592
     90  O         16.2260  -42.0040   -1.8870 O.2    73  GLN73      -0.2718
     91  CB        17.6390  -40.2270   -4.3250 C.3    73  GLN73       0.0381
     92  CG        16.2610  -39.6920   -4.7280 C.3    73  GLN73       0.0905
     93  CD        16.1650  -39.3590   -6.2290 C.2    73  GLN73       0.2608
     94  OE1       15.4000  -38.5090   -6.6110 O.2    73  GLN73      -0.2717
     95  NE2       16.9750  -39.9880   -7.0530 N.am   73  GLN73      -0.0878
     96  N         17.9280  -42.9790   -3.0010 N.am   74  ILE74      -0.1980
     97  CA        17.4690  -44.3410   -2.7000 C.3    74  ILE74       0.1595
     98  C         17.1900  -44.6550   -1.2250 C.2    74  ILE74       0.2287
     99  O         16.2820  -45.4020   -0.9290 O.2    74  ILE74      -0.2864
    100  CB        18.4780  -45.3530   -3.1860 C.3    74  ILE74       0.0276
    101  CG1       18.4400  -45.3700   -4.7150 C.3    74  ILE74       0.0022
    102  CG2       18.2340  -46.7540   -2.5380 C.3    74  ILE74       0.0022
    103  CD1       19.2580  -46.4970   -5.3400 C.3    74  ILE74       0.0001
    104  N         22.2490  -32.8250   -5.9750 N.3    85  TYR85      -0.1241
    105  CA        21.6680  -32.6440   -7.3230 C.3    85  TYR85       0.1605
    106  C         21.9210  -31.1990   -7.7510 C.2    85  TYR85       0.2264
    107  O         22.3020  -30.9620   -8.9220 O.2    85  TYR85      -0.2867
    108  CB        20.1650  -33.0390   -7.4310 C.3    85  TYR85       0.0534
    109  CG        19.9830  -34.5110   -7.5620 C.ar   85  TYR85      -0.0201
    110  CD1       20.5970  -35.2040   -8.5690 C.ar   85  TYR85      -0.0009
    111  CD2       19.2240  -35.2160   -6.6650 C.ar   85  TYR85      -0.0009
    112  CE1       20.4470  -36.6230   -8.6870 C.ar   85  TYR85       0.0417
    113  CE2       19.0700  -36.6130   -6.7410 C.ar   85  TYR85       0.0417
    114  CZ        19.6890  -37.3300   -7.7490 C.ar   85  TYR85       0.1957
    115  OH        19.5610  -38.7380   -7.8320 O.3    85  TYR85      -0.2866
    116  N         22.6490  -30.1330  -18.6760 N.3    95  ASP95      -0.1239
    117  CA        21.9680  -31.3790  -18.3240 C.3    95  ASP95       0.1674
    118  C         20.8270  -31.2190  -17.3660 C.2    95  ASP95       0.2266
    119  O         20.9440  -30.5640  -16.3400 O.2    95  ASP95      -0.2867
    120  CB        22.9040  -32.4160  -17.7350 C.3    95  ASP95       0.1410
    121  CG        22.2970  -33.7940  -17.7900 C.2    95  ASP95       0.3668
    122  OD1       21.0500  -33.8900  -17.7840 O.co2  95  ASP95      -0.2456
    123  OD2       23.0410  -34.7880  -17.8640 O.co2  95  ASP95      -0.2456
    124  N         18.7220  -33.9450  -16.2100 N.3    97  THR97      -0.1218
    125  CA        18.4660  -35.0480  -15.3110 C.3    97  THR97       0.1862
    126  C         18.5140  -34.6890  -13.8260 C.2    97  THR97       0.2287
    127  O         17.6230  -35.0780  -13.0780 O.2    97  THR97      -0.2866
    128  CB        19.3690  -36.2280  -15.6080 C.3    97  THR97       0.1770
    129  OG1       19.1590  -36.6160  -16.9570 O.3    97  THR97      -0.2211
    130  CG2       19.0040  -37.4200  -14.7640 C.3    97  THR97       0.0375
    131  N         15.1570  -32.9790  -12.7470 N.3   100  PHE100     -0.1227
    132  CA        14.0670  -33.9090  -12.5100 C.3   100  PHE100      0.1736
    133  C         14.1980  -34.4290  -11.0780 C.2   100  PHE100      0.2595
    134  O         13.4050  -34.0510  -10.1850 O.2   100  PHE100     -0.2718
    135  CB        14.1860  -35.0280  -13.5290 C.3   100  PHE100      0.0547
    136  CG        13.2230  -36.1470  -13.3550 C.ar  100  PHE100     -0.0202
    137  CD1       13.6910  -37.4750  -13.2970 C.ar  100  PHE100     -0.0042
    138  CD2       11.8670  -35.9160  -13.3320 C.ar  100  PHE100     -0.0042
    139  CE1       12.8070  -38.5670  -13.1790 C.ar  100  PHE100     -0.0003
    140  CE2       10.9700  -36.9970  -13.2270 C.ar  100  PHE100     -0.0003
    141  CZ        11.4520  -38.3250  -13.1480 C.ar  100  PHE100     -0.0000
    142  N         15.2310  -35.2420  -10.8470 N.am  101  HIS101     -0.1975
    143  CA        15.4390  -35.8550   -9.5700 C.3   101  HIS101      0.1656
    144  C         15.2310  -34.9210   -8.3820 C.2   101  HIS101      0.2291
    145  O         14.6200  -35.3250   -7.4070 O.2   101  HIS101     -0.2864
    146  CB        16.7910  -36.4610   -9.5760 C.3   101  HIS101      0.0771
    147  CG        16.9010  -37.5980  -10.5130 C.ar  101  HIS101      0.0820
    148  ND1       16.2110  -38.7730  -10.3280 N.ar  101  HIS101     -0.2267
    149  CD2       17.6480  -37.7710  -11.6210 C.ar  101  HIS101      0.1154
    150  CE1       16.5060  -39.6150  -11.3030 C.ar  101  HIS101      0.1986
    151  NE2       17.3970  -39.0390  -12.0930 N.ar  101  HIS101     -0.2212
    152  N         11.6040  -34.8980   -7.7410 N.3   104  GLN104     -0.1245
    153  CA        11.1930  -36.0700   -7.0390 C.3   104  GLN104      0.1566
    154  C         11.3980  -35.8490   -5.5570 C.2   104  GLN104      0.2260
    155  O         10.4820  -36.0880   -4.7340 O.2   104  GLN104     -0.2867
    156  CB        11.9960  -37.2590   -7.4960 C.3   104  GLN104      0.0367
    157  CG        11.7730  -37.5650   -8.8960 C.3   104  GLN104      0.0905
    158  CD        12.5280  -38.7570   -9.3270 C.2   104  GLN104      0.2608
    159  OE1       13.7480  -38.7570   -9.2850 O.2   104  GLN104     -0.2717
    160  NE2       11.8250  -39.7980   -9.7770 N.am  104  GLN104     -0.0878
    161  N         12.3820  -39.6130  -23.1230 N.3   130  LYS130     -0.1245
    162  CA        12.1680  -40.4260  -21.9070 C.3   130  LYS130      0.1561
    163  C         12.0450  -39.5520  -20.6190 C.2   130  LYS130      0.2260
    164  O         11.2060  -39.8290  -19.7380 O.2   130  LYS130     -0.2867
    165  CB        13.2930  -41.4960  -21.8320 C.3   130  LYS130      0.0271
    166  CG        13.3440  -42.4420  -20.5960 C.3   130  LYS130      0.0035
    167  CD        14.5060  -43.4830  -20.7270 C.3   130  LYS130      0.0206
    168  CE        15.8950  -42.8020  -20.8780 C.3   130  LYS130      0.1093
    169  NZ        16.9060  -43.5980  -21.6620 N.3   130  LYS130     -0.1314
    170  N          8.3560  -38.6660  -18.1960 N.3   134  LYS134     -0.1245
    171  CA         8.4410  -38.7170  -16.7400 C.3   134  LYS134      0.1561
    172  C          8.0620  -37.3650  -16.1880 C.2   134  LYS134      0.2260
    173  O          7.0500  -37.2460  -15.5270 O.2   134  LYS134     -0.2867
    174  CB         9.8570  -39.0960  -16.2850 C.3   134  LYS134      0.0271
    175  CG        10.2660  -40.5260  -16.5770 C.3   134  LYS134      0.0035
    176  CD        11.6780  -40.7520  -16.1120 C.3   134  LYS134      0.0206
    177  CE        12.0440  -42.2250  -16.2140 C.3   134  LYS134      0.1093
    178  NZ        13.5380  -42.4760  -16.2320 N.3   134  LYS134     -0.1314
@<TRIPOS>BOND
     1   161   162    1
     2   162   165    1
     3   162   163    1
     4   165   166    1
     5   169   168    1
     6   168   167    1
     7   167   166    1
     8   163   164    2
     9   116   117    1
    10   117   120    1
    11   117   118    1
    12   170   171    1
    13   123   121   ar
    14   121   122   ar
    15   121   120    1
    16   118   119    2
    17     8     6   ar
    18   129   128    1
    19   171   174    1
    20   171   172    1
    21   175   174    1
    22   175   176    1
    23   178   177    1
    24   177   176    1
    25   124   125    1
    26   172   173    2
    27    69    67   ar
    28     6     5    1
    29     6     7   ar
    30    68    67   ar
    31   128   125    1
    32   128   130    1
    33     5     2    1
    34    67    66    1
    35   125   126    1
    36    38    37    1
    37    26    25    1
    38    36    37   ar
    39    36    34   ar
    40    37    35   ar
    41     2     3    1
    42     2     1    1
    43    34    32   ar
    44    66    63    1
    45     4     3    2
    46    18    16   ar
    47    18    19   ar
    48   126   127    2
    49    25    22    1
    50   135   136    1
    51   135   132    1
    52    16    14   ar
    53    20    19    1
    54   136   138   ar
    55   136   137   ar
    56   138   140   ar
    57   137   139   ar
    58    35    33   ar
    59   140   141   ar
    60   139   141   ar
    61    19    17   ar
    62    62    63    1
    63    63    64    1
    64    32    33   ar
    65    32    31    1
    66    22    21    1
    67    22    23    1
    68   131   132    1
    69   132   133    1
    70    14    13    1
    71    14    15   ar
    72    21    11   am
    73   151   149   ar
    74   151   150   ar
    75    17    15   ar
    76    77    76    1
    77    31    28    1
    78    13    10    1
    79    24    23    2
    80    75    76    1
    81    75    74    1
    82   149   147   ar
    83    64    65    2
    84    11    12    2
    85    11    10    1
    86   150   148   ar
    87   133   142   am
    88   133   134    2
    89    74    71    1
    90    10     9    1
    91   142   143    1
    92    29    28    1
    93    29    30    2
    94    28    27    1
    95   147   148   ar
    96   147   146    1
    97    47    45   ar
    98    47    49   ar
    99   160   158   am
   100    45    44   ar
   101   146   143    1
   102   143   144    1
   103    71    70    1
   104    71    72    1
   105   158   159    2
   106   158   157    1
   107    78    72   am
   108    78    79    1
   109    72    73    2
   110   107   106    2
   111   157   156    1
   112    50    49    1
   113    61    60   ar
   114    61    59   ar
   115    49    48   ar
   116   112   110   ar
   117   112   114   ar
   118    60    58   ar
   119    41    42    2
   120    41    40    1
   121   110   109   ar
   122    44    43    1
   123    44    46   ar
   124    79    80    1
   125    43    40    1
   126   144   145    2
   127   115   114    1
   128    40    39    1
   129    59    57   ar
   130   106   105    1
   131   114   113   ar
   132   152   153    1
   133    86    83    1
   134    48    46   ar
   135   109   108    1
   136   109   111   ar
   137   156   153    1
   138   108   105    1
   139    58    56   ar
   140   105   104    1
   141    95    93   am
   142   153   154    1
   143    80    81    2
   144   113   111   ar
   145    94    93    2
   146    83    82    1
   147    83    84    1
   148    57    56   ar
   149    56    55    1
   150    93    92    1
   151   154   155    2
   152   103   101    1
   153    84    85    2
   154    55    52    1
   155    92    91    1
   156   101   100    1
   157    52    51    1
   158    52    53    1
   159    91    88    1
   160    54    53    2
   161   100    97    1
   162   100   102    1
   163    96    97    1
   164    96    89   am
   165    88    89    1
   166    88    87    1
   167    97    98    1
   168    89    90    2
   169    98    99    2
