@<TRIPOS>MOLECULE
tmp/3gz7A00.pdb
 141 138 0 0 0
SMALL
GASTEIGER

@<TRIPOS>ATOM
      1  N         10.1960   20.9900    6.7790 N.3     6  GLU6       -0.1245
      2  CA         8.9600   20.3600    7.1650 C.3     6  GLU6        0.1567
      3  C          9.1510   19.9180    8.5950 C.2     6  GLU6        0.2260
      4  O         10.1680   19.3000    8.9010 O.2     6  GLU6       -0.2867
      5  CB         8.6790   19.1140    6.2940 C.3     6  GLU6        0.0388
      6  CG         7.5780   18.1670    6.8560 C.3     6  GLU6        0.1160
      7  CD         7.5760   16.7800    6.2610 C.2     6  GLU6        0.3649
      8  OE1        8.3630   16.5240    5.3210 O.co2   6  GLU6       -0.2457
      9  OE2        6.7560   15.9360    6.7100 O.co2   6  GLU6       -0.2457
     10  N          7.0830   17.5750   11.2590 N.3     8  ALA8       -0.1245
     11  CA         6.0010   16.6300   11.4560 C.3     8  ALA8        0.1562
     12  C          6.0090   16.1730   12.9250 C.2     8  ALA8        0.2260
     13  O          6.9850   15.5400   13.3640 O.2     8  ALA8       -0.2867
     14  CB         6.2030   15.4470   10.5500 C.3     8  ALA8        0.0290
     15  N          4.6920   13.8020   15.5310 N.3    10  ILE10      -0.1245
     16  CA         4.1500   12.4650   15.4540 C.3    10  ILE10       0.1561
     17  C          3.8140   11.9810   16.8710 C.2    10  ILE10       0.2260
     18  O          4.5700   12.2500   17.8140 O.2    10  ILE10      -0.2867
     19  CB         5.1990   11.5380   14.7710 C.3    10  ILE10       0.0252
     20  CG1        5.5190   12.0830   13.3710 C.3    10  ILE10       0.0019
     21  CG2        4.7100   10.0980   14.7260 C.3    10  ILE10       0.0019
     22  CD1        6.9140   11.8190   12.8770 C.3    10  ILE10       0.0001
     23  N         13.3310    9.4340    1.7040 N.3    31  PHE31      -0.1241
     24  CA        13.3540   10.8900    1.7680 C.3    31  PHE31       0.1605
     25  C         14.6010   11.5040    1.0840 C.2    31  PHE31       0.2264
     26  O         14.4720   12.4470    0.3230 O.2    31  PHE31      -0.2867
     27  CB        13.3050   11.3820    3.2250 C.3    31  PHE31       0.0534
     28  CG        11.9240   11.3650    3.8520 C.ar   31  PHE31      -0.0203
     29  CD1       11.0600   12.4380    3.6930 C.ar   31  PHE31      -0.0042
     30  CD2       11.5190   10.3100    4.6420 C.ar   31  PHE31      -0.0042
     31  CE1        9.8130   12.4460    4.2790 C.ar   31  PHE31      -0.0003
     32  CE2       10.2750   10.3250    5.2110 C.ar   31  PHE31      -0.0003
     33  CZ         9.4260   11.3940    5.0290 C.ar   31  PHE31      -0.0000
     34  N          9.7200   14.6640   13.2840 N.3    53  LEU53      -0.1245
     35  CA        10.5410   14.4950   12.0730 C.3    53  LEU53       0.1561
     36  C         10.8190   15.8690   11.4960 C.2    53  LEU53       0.2260
     37  O          9.8710   16.6140   11.2750 O.2    53  LEU53      -0.2867
     38  CB         9.8560   13.6170   11.0400 C.3    53  LEU53       0.0270
     39  CG        10.6930   12.9810    9.9220 C.3    53  LEU53       0.0019
     40  CD1       11.5280   11.7710   10.4670 C.3    53  LEU53       0.0001
     41  CD2        9.7810   12.5420    8.7660 C.3    53  LEU53       0.0001
     42  N          8.0420   19.0720   -1.0400 N.3    63  HIS63      -0.1241
     43  CA         7.3330   18.2010   -0.1090 C.3    63  HIS63       0.1621
     44  C          5.8640   17.9150   -0.4370 C.2    63  HIS63       0.2264
     45  O          5.4480   16.7630   -0.5550 O.2    63  HIS63      -0.2867
     46  CB         7.4260   18.7730    1.3140 C.3    63  HIS63       0.0745
     47  CG         6.6850   17.9570    2.3120 C.ar   63  HIS63       0.0817
     48  ND1        5.9850   18.5230    3.3370 N.ar   63  HIS63      -0.2268
     49  CD2        6.4520   16.6330    2.3770 C.ar   63  HIS63       0.1154
     50  CE1        5.3800   17.5750    4.0280 C.ar   63  HIS63       0.1986
     51  NE2        5.6290   16.4190    3.4530 N.ar   63  HIS63      -0.2212
     52  N          6.8490   15.0580   -3.1850 N.3    66  PHE66      -0.1227
     53  CA         7.0170   13.8920   -2.3240 C.3    66  PHE66       0.1736
     54  C          5.6650   13.2250   -2.0770 C.2    66  PHE66       0.2595
     55  O          5.5210   12.0050   -2.1840 O.2    66  PHE66      -0.2718
     56  CB         7.7160   14.2190   -0.9910 C.3    66  PHE66       0.0547
     57  CG         7.7920   13.0380   -0.0440 C.ar   66  PHE66      -0.0202
     58  CD1        8.7160   12.0350   -0.2450 C.ar   66  PHE66      -0.0042
     59  CD2        6.9060   12.9180    1.0070 C.ar   66  PHE66      -0.0042
     60  CE1        8.7630   10.9390    0.6140 C.ar   66  PHE66      -0.0003
     61  CE2        6.9270   11.8230    1.8440 C.ar   66  PHE66      -0.0003
     62  CZ         7.8530   10.8450    1.6560 C.ar   66  PHE66      -0.0000
     63  N          4.6590   14.0420   -1.7990 N.am   67  ARG67      -0.1980
     64  CA         3.3240   13.5280   -1.5230 C.3    67  ARG67       0.1597
     65  C          2.6560   12.7670   -2.6750 C.2    67  ARG67       0.2287
     66  O          1.7990   11.9280   -2.4390 O.2    67  ARG67      -0.2864
     67  CB         2.4420   14.6750   -1.0440 C.3    67  ARG67       0.0334
     68  CG         2.6710   15.0760    0.3820 C.3    67  ARG67       0.0492
     69  CD         1.9850   14.1490    1.3870 C.3    67  ARG67       0.2205
     70  NE         2.3240   14.5890    2.7410 N.pl3  67  ARG67      -0.0865
     71  CZ         1.6840   15.5230    3.4290 C.cat  67  ARG67       0.5346
     72  NH1        0.6220   16.1690    2.9130 N.pl3  67  ARG67       0.1354
     73  NH2        2.1290   15.8370    4.6420 N.pl3  67  ARG67       0.1354
     74  N          6.2220    8.0100   -0.9590 N.3    72  PHE72      -0.1241
     75  CA         5.2830    8.3620    0.1330 C.3    72  PHE72       0.1605
     76  C          4.4130    7.1750    0.5380 C.2    72  PHE72       0.2264
     77  O          4.1860    6.9260    1.7130 O.2    72  PHE72      -0.2867
     78  CB         4.4180    9.5980   -0.2190 C.3    72  PHE72       0.0534
     79  CG         3.4040    9.9470    0.8560 C.ar   72  PHE72      -0.0203
     80  CD1        3.7880   10.0400    2.1870 C.ar   72  PHE72      -0.0042
     81  CD2        2.0810   10.1630    0.5380 C.ar   72  PHE72      -0.0042
     82  CE1        2.8630   10.3140    3.1780 C.ar   72  PHE72      -0.0003
     83  CE2        1.1590   10.4800    1.5330 C.ar   72  PHE72      -0.0003
     84  CZ         1.5610   10.5570    2.8480 C.ar   72  PHE72      -0.0000
     85  N          6.7690    4.9420    2.5460 N.3    75  TRP75      -0.1227
     86  CA         6.8990    5.5120    3.8710 C.3    75  TRP75       0.1737
     87  C          5.6960    5.0950    4.7310 C.2    75  TRP75       0.2595
     88  O          5.8690    4.6450    5.8360 O.2    75  TRP75      -0.2718
     89  CB         7.0470    7.0540    3.7860 C.3    75  TRP75       0.0564
     90  CG         6.7800    7.7920    5.0860 C.ar   75  TRP75       0.0003
     91  CD1        5.6360    8.4450    5.4250 C.ar   75  TRP75       0.0946
     92  CD2        7.6760    7.9560    6.2120 C.ar   75  TRP75       0.0152
     93  NE1        5.7410    8.9930    6.6670 N.ar   75  TRP75      -0.2442
     94  CE2        6.9790    8.7060    7.1880 C.ar   75  TRP75       0.0810
     95  CE3        8.9750    7.5420    6.4870 C.ar   75  TRP75       0.0012
     96  CZ2        7.5480    9.0650    8.4250 C.ar   75  TRP75       0.0191
     97  CZ3        9.5350    7.8830    7.7210 C.ar   75  TRP75       0.0001
     98  CH2        8.8130    8.6540    8.6720 C.ar   75  TRP75       0.0015
     99  N          4.4830    5.2460    4.2230 N.am   76  ARG76      -0.1980
    100  CA         3.2880    4.9260    5.0010 C.3    76  ARG76       0.1597
    101  C          3.1430    3.4430    5.2710 C.2    76  ARG76       0.2287
    102  O          2.7170    3.0750    6.3460 O.2    76  ARG76      -0.2864
    103  CB         2.0340    5.5080    4.3380 C.3    76  ARG76       0.0334
    104  CG         1.8600    7.0070    4.6350 C.3    76  ARG76       0.0492
    105  CD         1.7770    7.1460    6.1620 C.3    76  ARG76       0.2205
    106  NE         1.0900    8.3220    6.6700 N.pl3  76  ARG76      -0.0865
    107  CZ        -0.2280    8.4830    6.7460 C.cat  76  ARG76       0.5346
    108  NH1       -1.0760    7.5460    6.3100 N.pl3  76  ARG76       0.1354
    109  NH2       -0.6940    9.6310    7.2650 N.pl3  76  ARG76       0.1354
    110  N          1.5010    5.0060   14.0060 N.3    83  PHE83      -0.1241
    111  CA         0.8740    6.2750   14.3870 C.3    83  PHE83       0.1605
    112  C         -0.3550    6.0780   15.2570 C.2    83  PHE83       0.2264
    113  O         -1.1270    5.2000   15.0140 O.2    83  PHE83      -0.2867
    114  CB         0.4720    7.0580   13.1390 C.3    83  PHE83       0.0534
    115  CG         1.6420    7.5070   12.2680 C.ar   83  PHE83      -0.0203
    116  CD1        2.9190    7.6100   12.7670 C.ar   83  PHE83      -0.0042
    117  CD2        1.4210    7.8830   10.9590 C.ar   83  PHE83      -0.0042
    118  CE1        3.9710    8.0490   11.9520 C.ar   83  PHE83      -0.0003
    119  CE2        2.4670    8.3100   10.1530 C.ar   83  PHE83      -0.0003
    120  CZ         3.7310    8.4030   10.6580 C.ar   83  PHE83      -0.0000
    121  N         -2.9180   10.9140   12.6160 N.3    86  PRO86      -0.2103
    122  CA        -2.0750   11.5430   11.5810 C.3    86  PRO86       0.1489
    123  C         -1.2170   12.6330   12.1890 C.2    86  PRO86       0.2417
    124  O         -1.6880   13.3940   13.0670 O.2    86  PRO86      -0.2734
    125  CB        -3.0900   12.1310   10.5620 C.3    86  PRO86       0.0282
    126  CG        -4.3330   11.2690   10.7390 C.3    86  PRO86       0.0208
    127  CD        -4.3490   11.0410   12.2860 C.3    86  PRO86       0.0893
    128  N          0.0610   12.6680   11.8020 N.am   87  PRO87      -0.2729
    129  CA         0.9690   13.6970   12.3010 C.3    87  PRO87       0.1401
    130  C          0.4760   15.0910   11.9690 C.2    87  PRO87       0.2269
    131  O         -0.1860   15.2760   10.9650 O.2    87  PRO87      -0.2865
    132  CB         2.2860   13.3700   11.5620 C.3    87  PRO87       0.0296
    133  CG         2.2210   11.9150   11.3730 C.3    87  PRO87       0.0237
    134  CD         0.7770   11.6720   10.9910 C.3    87  PRO87       0.0939
    135  N          1.6060   18.4440   10.6390 N.3    89  VAL89      -0.1245
    136  CA         2.7370   18.8330    9.7750 C.3    89  VAL89       0.1561
    137  C          2.6380   20.3270    9.4730 C.2    89  VAL89       0.2260
    138  O          1.5910   20.7860    9.0630 O.2    89  VAL89      -0.2867
    139  CB         2.7110   17.9790    8.4290 C.3    89  VAL89       0.0252
    140  CG1        3.8040   18.4600    7.4050 C.3    89  VAL89       0.0019
    141  CG2        2.7780   16.4990    8.7260 C.3    89  VAL89       0.0019
@<TRIPOS>BOND
     1    52    53    1
     2    65    66    2
     3    65    64    1
     4    53    54    1
     5    53    56    1
     6    55    54    2
     7    54    63   am
     8    63    64    1
     9    64    67    1
    10    67    68    1
    11    42    43    1
    12    56    57    1
    13    74    75    1
    14    45    44    2
    15    44    43    1
    16    58    57   ar
    17    58    60   ar
    18    78    75    1
    19    78    79    1
    20    43    46    1
    21    57    59   ar
    22    75    76    1
    23    26    25    2
    24    68    69    1
    25    81    79   ar
    26    81    83   ar
    27    76    77    2
    28    60    62   ar
    29    79    80   ar
    30    59    61   ar
    31    25    24    1
    32    46    47    1
    33    69    70    1
    34    83    84   ar
    35    62    61   ar
    36    23    24    1
    37    24    27    1
    38    80    82   ar
    39    47    49   ar
    40    47    48   ar
    41    49    51   ar
    42    85    86    1
    43    70    71    2
    44    84    82   ar
    45    72    71    1
    46    27    28    1
    47    48    50   ar
    48    71    73    1
    49    51    50   ar
    50    29    28   ar
    51    29    31   ar
    52    89    86    1
    53    89    90    1
    54    28    30   ar
    55    86    87    1
    56    99    87   am
    57    99   100    1
    58    31    33   ar
    59   103   104    1
    60   103   100    1
    61   104   105    1
    62    30    32   ar
    63    87    88    2
    64   100   101    1
    65    33    32   ar
    66    90    91   ar
    67    90    92   ar
    68   101   102    2
    69     8     7   ar
    70    91    93   ar
    71   105   106    1
    72    92    95   ar
    73    92    94   ar
    74     7     9   ar
    75     7     6    1
    76     5     6    1
    77     5     2    1
    78   108   107    1
    79    95    97   ar
    80    93    94   ar
    81   106   107    2
    82   107   109    1
    83     1     2    1
    84     2     3    1
    85    94    96   ar
    86   140   139    1
    87    97    98   ar
    88    96    98   ar
    89   139   141    1
    90   139   136    1
    91     3     4    2
    92    41    39    1
    93   138   137    2
    94   137   136    1
    95   136   135    1
    96    39    40    1
    97    39    38    1
    98   119   120   ar
    99   119   117   ar
   100    14    11    1
   101   125   126    1
   102   125   122    1
   103   120   118   ar
   104   126   127    1
   105   117   115   ar
   106   131   130    2
   107   134   133    1
   108   134   128    1
   109    38    35    1
   110    10    11    1
   111    37    36    2
   112   133   132    1
   113    11    12    1
   114    36    35    1
   115   132   129    1
   116   122   123    1
   117   122   121    1
   118   128   123   am
   119   128   129    1
   120   118   116   ar
   121   130   129    1
   122    35    34    1
   123   123   124    2
   124   115   116   ar
   125   115   114    1
   126   127   121    1
   127    22    20    1
   128    12    13    2
   129   114   111    1
   130    20    19    1
   131   110   111    1
   132   111   112    1
   133    21    19    1
   134    19    16    1
   135   113   112    2
   136    16    15    1
   137    16    17    1
   138    17    18    2
