@<TRIPOS>MOLECULE
tmp/3gz8C00.pdb
 177 166 0 0 0
SMALL
GASTEIGER

@<TRIPOS>ATOM
      1  N         28.8690  -19.2770  -43.3280 N.3    19  GLN19      -0.1231
      2  CA        28.0020  -19.1580  -44.4870 C.3    19  GLN19       0.1698
      3  C         27.4790  -17.7190  -44.6060 C.2    19  GLN19       0.2592
      4  O         27.6510  -16.9240  -43.6940 O.2    19  GLN19      -0.2718
      5  CB        26.8320  -20.1460  -44.3760 C.3    19  GLN19       0.0381
      6  CG        27.2040  -21.6140  -44.4520 C.3    19  GLN19       0.0905
      7  CD        27.6650  -22.2080  -43.1240 C.2    19  GLN19       0.2608
      8  OE1       27.0830  -21.9510  -42.0680 O.2    19  GLN19      -0.2717
      9  NE2       28.7190  -23.0200  -43.1770 N.am   19  GLN19      -0.0878
     10  N         26.8460  -17.3690  -45.7210 N.am   20  LEU20      -0.1980
     11  CA        26.2260  -16.0360  -45.8240 C.3    20  LEU20       0.1596
     12  C         24.8480  -16.0240  -45.1840 C.2    20  LEU20       0.2287
     13  O         24.0290  -16.9030  -45.4140 O.2    20  LEU20      -0.2864
     14  CB        26.0980  -15.5510  -47.2650 C.3    20  LEU20       0.0297
     15  CG        27.3800  -15.3660  -48.0480 C.3    20  LEU20       0.0022
     16  CD1       27.0020  -14.7960  -49.3850 C.3    20  LEU20       0.0001
     17  CD2       28.3000  -14.4380  -47.2920 C.3    20  LEU20       0.0001
     18  N         21.5680  -13.5720  -44.5340 N.3    22  THR22      -0.1218
     19  CA        20.8800  -12.3350  -44.8410 C.3    22  THR22       0.1862
     20  C         19.4270  -12.4300  -44.4850 C.2    22  THR22       0.2287
     21  O         18.9350  -13.5070  -44.1470 O.2    22  THR22      -0.2866
     22  CB        20.9050  -12.0680  -46.3620 C.3    22  THR22       0.1770
     23  OG1       20.4580  -13.2490  -47.0310 O.3    22  THR22      -0.2211
     24  CG2       22.2830  -11.7280  -46.8240 C.3    22  THR22       0.0375
     25  N         15.5140  -10.9480  -46.2410 N.3    24  ASP24      -0.1239
     26  CA        14.8360  -10.3530  -47.3860 C.3    24  ASP24       0.1674
     27  C         13.3960  -10.0530  -46.9610 C.2    24  ASP24       0.2266
     28  O         12.8190  -10.7790  -46.1270 O.2    24  ASP24      -0.2867
     29  CB        14.8370  -11.3170  -48.5780 C.3    24  ASP24       0.1410
     30  CG        16.1920  -11.3600  -49.3180 C.2    24  ASP24       0.3668
     31  OD1       16.6210  -10.3100  -49.8760 O.co2  24  ASP24      -0.2456
     32  OD2       16.8240  -12.4450  -49.3720 O.co2  24  ASP24      -0.2456
     33  N         19.6120   -2.7730  -57.5020 N.3    42  ARG42      -0.1245
     34  CA        20.9070   -2.9680  -56.8300 C.3    42  ARG42       0.1563
     35  C         22.0550   -2.0780  -57.3520 C.2    42  ARG42       0.2260
     36  O         22.2450   -1.9530  -58.5670 O.2    42  ARG42      -0.2867
     37  CB        21.3420   -4.4350  -56.8910 C.3    42  ARG42       0.0307
     38  CG        20.2350   -5.4590  -56.6370 C.3    42  ARG42       0.0489
     39  CD        20.7450   -6.8900  -56.8480 C.3    42  ARG42       0.2205
     40  NE        22.1040   -7.1090  -56.3320 N.pl3  42  ARG42      -0.0865
     41  CZ        22.4480   -7.0590  -55.0390 C.cat  42  ARG42       0.5346
     42  NH1       21.5420   -6.7700  -54.1000 N.pl3  42  ARG42       0.1354
     43  NH2       23.7120   -7.2720  -54.6840 N.pl3  42  ARG42       0.1354
     44  N         25.2130   -2.7370  -55.9010 N.3    44  ASN44      -0.1225
     45  CA        26.3590   -3.6020  -55.5770 C.3    44  ASN44       0.1785
     46  C         26.2290   -4.9260  -56.3150 C.2    44  ASN44       0.2597
     47  O         25.1340   -5.2950  -56.7410 O.2    44  ASN44      -0.2718
     48  CB        26.4790   -3.8610  -54.0550 C.3    44  ASN44       0.1169
     49  CG        26.7600   -2.5930  -53.2410 C.2    44  ASN44       0.2627
     50  OD1       27.3100   -1.6250  -53.7520 O.2    44  ASN44      -0.2716
     51  ND2       26.4050   -2.6120  -51.9590 N.am   44  ASN44      -0.0877
     52  N         27.3480   -5.6360  -56.4730 N.am   45  HIS45      -0.1975
     53  CA        27.3540   -6.9700  -57.0850 C.3    45  HIS45       0.1656
     54  C         26.9100   -7.9610  -56.0240 C.2    45  HIS45       0.2291
     55  O         26.9020   -7.6180  -54.8360 O.2    45  HIS45      -0.2864
     56  CB        28.7600   -7.3720  -57.5620 C.3    45  HIS45       0.0771
     57  CG        29.3150   -6.5160  -58.6660 C.ar   45  HIS45       0.0820
     58  ND1       29.9780   -5.3270  -58.4300 N.ar   45  HIS45      -0.2267
     59  CD2       29.3370   -6.6970  -60.0090 C.ar   45  HIS45       0.1154
     60  CE1       30.3650   -4.8040  -59.5810 C.ar   45  HIS45       0.1986
     61  NE2       29.9880   -5.6160  -60.5540 N.ar   45  HIS45      -0.2212
     62  N         14.5080   -7.8840  -54.1390 N.3    53  LEU53      -0.1245
     63  CA        13.9190   -7.6170  -52.8390 C.3    53  LEU53       0.1561
     64  C         14.8380   -6.7560  -51.9810 C.2    53  LEU53       0.2260
     65  O         16.0550   -6.9010  -52.0470 O.2    53  LEU53      -0.2867
     66  CB        13.6220   -8.9310  -52.1310 C.3    53  LEU53       0.0270
     67  CG        12.5640   -9.7730  -52.8210 C.3    53  LEU53       0.0019
     68  CD1       12.5230  -11.1090  -52.1390 C.3    53  LEU53       0.0001
     69  CD2       11.2060   -9.0950  -52.7950 C.3    53  LEU53       0.0001
     70  N         16.7860   -6.3400  -48.8990 N.3    55  GLY55      -0.1210
     71  CA        17.3160   -7.3170  -47.9780 C.3    55  GLY55       0.1956
     72  C         18.7060   -6.9350  -47.5120 C.2    55  GLY55       0.2612
     73  O         19.1180   -5.7630  -47.6650 O.2    55  GLY55      -0.2717
     74  N         19.4310   -7.8990  -46.9380 N.am   56  GLY56      -0.1942
     75  CA        20.7860   -7.5940  -46.5240 C.3    56  GLY56       0.2014
     76  C         21.3590   -8.3160  -45.3280 C.2    56  GLY56       0.2639
     77  O         20.7620   -9.2620  -44.8060 O.2    56  GLY56      -0.2714
     78  N         22.5370   -7.8550  -44.9070 N.am   57  PHE57      -0.1959
     79  CA        23.2830   -8.4960  -43.8360 C.3    57  PHE57       0.1771
     80  C         22.9790   -7.9450  -42.4330 C.2    57  PHE57       0.2619
     81  O         22.6400   -6.7700  -42.2560 O.2    57  PHE57      -0.2715
     82  CB        24.7880   -8.4180  -44.1160 C.3    57  PHE57       0.0574
     83  CG        25.2110   -9.1180  -45.3790 C.ar   57  PHE57      -0.0200
     84  CD1       25.4930  -10.4830  -45.3710 C.ar   57  PHE57      -0.0042
     85  CD2       25.3270   -8.4100  -46.5820 C.ar   57  PHE57      -0.0042
     86  CE1       25.8950  -11.1600  -46.5410 C.ar   57  PHE57      -0.0003
     87  CE2       25.7140   -9.0760  -47.7610 C.ar   57  PHE57      -0.0003
     88  CZ        26.0100  -10.4640  -47.7220 C.ar   57  PHE57      -0.0000
     89  N         23.1150   -8.8160  -41.4400 N.am   58  ILE58      -0.1977
     90  CA        23.0370   -8.4430  -40.0240 C.3    58  ILE58       0.1596
     91  C         24.1650   -7.4750  -39.6580 C.2    58  ILE58       0.2287
     92  O         25.2900   -7.6080  -40.1270 O.2    58  ILE58      -0.2864
     93  CB        23.1260   -9.7220  -39.1680 C.3    58  ILE58       0.0276
     94  CG1       22.0730  -10.7250  -39.6570 C.3    58  ILE58       0.0022
     95  CG2       22.9790   -9.4220  -37.6430 C.3    58  ILE58       0.0022
     96  CD1       22.1820  -12.0610  -39.0070 C.3    58  ILE58       0.0001
     97  N         17.0250   -2.7610  -42.8170 N.3    73  LYS73      -0.1245
     98  CA        17.1950   -2.8190  -44.2710 C.3    73  LYS73       0.1561
     99  C         16.0030   -2.1940  -45.0380 C.2    73  LYS73       0.2260
    100  O         16.2010   -1.3550  -45.9150 O.2    73  LYS73      -0.2867
    101  CB        17.4330   -4.2450  -44.7470 C.3    73  LYS73       0.0271
    102  CG        18.6530   -4.9650  -44.1530 C.3    73  LYS73       0.0035
    103  CD        19.8810   -4.0750  -43.9540 C.3    73  LYS73       0.0206
    104  CE        20.4850   -3.6270  -45.3220 C.3    73  LYS73       0.1093
    105  NZ        21.5090   -2.5770  -45.1550 N.3    73  LYS73      -0.1314
    106  N         16.7180    0.9890  -47.3390 N.3    77  LYS77      -0.1245
    107  CA        16.6810    0.8710  -48.8020 C.3    77  LYS77       0.1561
    108  C         15.4300    1.5130  -49.4180 C.2    77  LYS77       0.2260
    109  O         15.3980    1.7680  -50.6190 O.2    77  LYS77      -0.2867
    110  CB        16.8690   -0.5840  -49.2590 C.3    77  LYS77       0.0271
    111  CG        18.2430   -1.1350  -48.9860 C.3    77  LYS77       0.0035
    112  CD        18.4220   -2.6130  -49.4510 C.3    77  LYS77       0.0206
    113  CE        19.8990   -2.9980  -49.3730 C.3    77  LYS77       0.1093
    114  NZ        20.2180   -4.3440  -49.9490 N.3    77  LYS77      -0.1314
    115  N         22.0260  -20.4340  -54.5450 N.3    96  ARG96      -0.1231
    116  CA        21.2820  -19.1730  -54.6310 C.3    96  ARG96       0.1694
    117  C         22.1670  -17.9130  -54.7310 C.2    96  ARG96       0.2592
    118  O         21.7640  -16.8960  -55.3340 O.2    96  ARG96      -0.2718
    119  CB        20.2450  -19.0420  -53.4970 C.3    96  ARG96       0.0321
    120  CG        20.7720  -19.0580  -52.0700 C.3    96  ARG96       0.0489
    121  CD        19.6670  -18.7630  -51.0350 C.3    96  ARG96       0.2205
    122  NE        18.8650  -17.6060  -51.4250 N.pl3  96  ARG96      -0.0865
    123  CZ        19.2160  -16.3330  -51.2420 C.cat  96  ARG96       0.5346
    124  NH1       20.3510  -16.0000  -50.6240 N.pl3  96  ARG96       0.1354
    125  NH2       18.4170  -15.3720  -51.6750 N.pl3  96  ARG96       0.1354
    126  N         23.3760  -17.9830  -54.1700 N.am   97  ASP97      -0.1974
    127  CA        24.2300  -16.8070  -54.0600 C.3    97  ASP97       0.1709
    128  C         25.6470  -17.1000  -54.5320 C.2    97  ASP97       0.2293
    129  O         26.3870  -17.8290  -53.8650 O.2    97  ASP97      -0.2864
    130  CB        24.2490  -16.2930  -52.6190 C.3    97  ASP97       0.1436
    131  CG        24.7860  -14.8630  -52.5030 C.2    97  ASP97       0.3671
    132  OD1       25.8660  -14.5530  -53.0680 O.co2  97  ASP97      -0.2456
    133  OD2       24.1370  -14.0400  -51.8260 O.co2  97  ASP97      -0.2456
    134  N         28.3500  -15.7080  -54.2250 N.3    99  ARG99      -0.1245
    135  CA        29.4010  -15.5360  -53.2160 C.3    99  ARG99       0.1563
    136  C         29.6410  -16.7510  -52.3110 C.2    99  ARG99       0.2260
    137  O         30.6620  -16.8120  -51.6400 O.2    99  ARG99      -0.2867
    138  CB        29.1460  -14.2840  -52.3780 C.3    99  ARG99       0.0307
    139  CG        29.3220  -12.9710  -53.1450 C.3    99  ARG99       0.0489
    140  CD        28.6360  -11.7970  -52.4510 C.3    99  ARG99       0.2205
    141  NE        27.2060  -12.0240  -52.2430 N.pl3  99  ARG99      -0.0865
    142  CZ        26.3250  -11.0600  -52.0060 C.cat  99  ARG99       0.5346
    143  NH1       26.7110   -9.7950  -51.9570 N.pl3  99  ARG99       0.1354
    144  NH2       25.0510  -11.3590  -51.8100 N.pl3  99  ARG99       0.1354
    145  N         24.6740  -20.0220  -48.6710 N.3   102  SER102     -0.1217
    146  CA        23.8840  -18.8580  -48.3240 C.3   102  SER102      0.1889
    147  C         22.5600  -19.2500  -47.6950 C.2   102  SER102      0.2288
    148  O         21.9240  -20.2190  -48.1140 O.2   102  SER102     -0.2866
    149  CB        23.6300  -18.0350  -49.5840 C.3   102  SER102      0.2089
    150  OG        22.6580  -17.0070  -49.4070 O.3   102  SER102     -0.2183
    151  N         23.6890    1.4360  -51.2970 N.3   122  SER122     -0.1217
    152  CA        23.6980    0.0710  -51.8120 C.3   122  SER122      0.1889
    153  C         22.6310   -0.1010  -52.9140 C.2   122  SER122      0.2288
    154  O         22.6740   -1.0400  -53.7070 O.2   122  SER122     -0.2866
    155  CB        23.4940   -0.9320  -50.6710 C.3   122  SER122      0.2089
    156  OG        22.4840   -0.4890  -49.7720 O.3   122  SER122     -0.2183
    157  N         19.0680  -12.9610  -57.7970 N.3   141  PHE141     -0.1241
    158  CA        19.0150  -14.1670  -56.9510 C.3   141  PHE141      0.1605
    159  C         17.7870  -15.0260  -57.2470 C.2   141  PHE141      0.2264
    160  O         17.3070  -15.0620  -58.3860 O.2   141  PHE141     -0.2867
    161  CB        19.0660  -13.7940  -55.4490 C.3   141  PHE141      0.0534
    162  CG        20.2430  -12.9540  -55.0780 C.ar  141  PHE141     -0.0203
    163  CD1       21.5020  -13.5250  -54.9340 C.ar  141  PHE141     -0.0042
    164  CD2       20.1000  -11.5850  -54.8860 C.ar  141  PHE141     -0.0042
    165  CE1       22.6170  -12.7400  -54.6180 C.ar  141  PHE141     -0.0003
    166  CE2       21.2070  -10.7770  -54.5600 C.ar  141  PHE141     -0.0003
    167  CZ        22.4700  -11.3700  -54.4160 C.ar  141  PHE141     -0.0000
    168  N         15.0120  -14.2940  -55.9290 N.3   143  HIS143     -0.1241
    169  CA        13.9960  -13.3960  -55.4030 C.3   143  HIS143      0.1621
    170  C         12.6190  -13.5780  -56.0320 C.2   143  HIS143      0.2264
    171  O         11.6040  -13.3980  -55.3530 O.2   143  HIS143     -0.2867
    172  CB        14.4500  -11.9380  -55.4690 C.3   143  HIS143      0.0745
    173  CG        15.5460  -11.6070  -54.5060 C.ar  143  HIS143      0.0817
    174  ND1       15.9480  -10.3120  -54.2570 N.ar  143  HIS143     -0.2268
    175  CD2       16.3220  -12.4010  -53.7280 C.ar  143  HIS143      0.1154
    176  CE1       16.9270  -10.3230  -53.3700 C.ar  143  HIS143      0.1986
    177  NE2       17.1690  -11.5770  -53.0280 N.ar  143  HIS143     -0.2212
@<TRIPOS>BOND
     1    61    59   ar
     2    61    60   ar
     3    59    57   ar
     4    60    58   ar
     5    57    58   ar
     6    57    56    1
     7    36    35    2
     8   160   159    2
     9   157   158    1
    10    56    53    1
    11    33    34    1
    12    35    34    1
    13   159   158    1
    14    53    52    1
    15    53    54    1
    16   158   161    1
    17    37    34    1
    18    37    38    1
    19    39    38    1
    20    39    40    1
    21    47    46    2
    22    52    46   am
    23    40    41    2
    24    46    45    1
    25   170   169    1
    26   170   171    2
    27    54    55    2
    28   168   169    1
    29    44    45    1
    30    45    48    1
    31   172   169    1
    32   172   173    1
    33   161   162    1
    34   118   117    2
    35   162   163   ar
    36   162   164   ar
    37    41    43    1
    38    41    42    1
    39   163   165   ar
    40   164   166   ar
    41   117   116    1
    42   117   126   am
    43   116   115    1
    44   116   119    1
    45   165   167   ar
    46   166   167   ar
    47   128   127    1
    48   128   129    2
    49   173   174   ar
    50   173   175   ar
    51   174   176   ar
    52   134   135    1
    53   126   127    1
    54    62    63    1
    55   127   130    1
    56    48    49    1
    57    50    49    2
    58   175   177   ar
    59   154   153    2
    60   119   120    1
    61   176   177   ar
    62    49    51   am
    63   135   138    1
    64   135   136    1
    65   139   140    1
    66   139   138    1
    67   132   131   ar
    68   153   152    1
    69    63    66    1
    70    63    64    1
    71    67    69    1
    72    67    68    1
    73    67    66    1
    74   130   131    1
    75   131   133   ar
    76   140   141    1
    77   136   137    2
    78   141   142    2
    79   120   121    1
    80    65    64    2
    81   142   143    1
    82   142   144    1
    83   152   151    1
    84   152   155    1
    85   125   123    1
    86   122   123    2
    87   122   121    1
    88   123   124    1
    89   155   156    1
    90   109   108    2
    91   114   113    1
    92    31    30   ar
    93   149   150    1
    94   149   146    1
    95   112   113    1
    96   112   111    1
    97   108   107    1
    98    16    15    1
    99    32    30   ar
   100    30    29    1
   101   110   111    1
   102   110   107    1
   103    70    71    1
   104   107   106    1
   105   145   146    1
   106    29    26    1
   107   146   147    1
   108   148   147    2
   109    15    17    1
   110    15    14    1
   111    71    72    1
   112    87    88   ar
   113    87    85   ar
   114    88    86   ar
   115    73    72    2
   116    72    74   am
   117    26    27    1
   118    26    25    1
   119    14    11    1
   120    23    22    1
   121    27    28    2
   122    74    75    1
   123    24    22    1
   124    85    83   ar
   125    86    84   ar
   126    75    76    1
   127    22    19    1
   128   100    99    2
   129    11    10    1
   130    11    12    1
   131    10     3   am
   132    13    12    2
   133    83    84   ar
   134    83    82    1
   135    76    78   am
   136    76    77    2
   137   104   105    1
   138   104   103    1
   139    99    98    1
   140    78    79    1
   141    19    18    1
   142    19    20    1
   143   101    98    1
   144   101   102    1
   145     3     2    1
   146     3     4    2
   147     2     5    1
   148     2     1    1
   149    20    21    2
   150     6     5    1
   151     6     7    1
   152    98    97    1
   153   102   103    1
   154    82    79    1
   155    79    80    1
   156     9     7   am
   157     7     8    2
   158    80    81    2
   159    80    89   am
   160    89    90    1
   161    92    91    2
   162    90    91    1
   163    90    93    1
   164    94    93    1
   165    94    96    1
   166    93    95    1
