@<TRIPOS>MOLECULE
tmp/3gzaA00.pdb
 149 148 0 0 0
SMALL
GASTEIGER

@<TRIPOS>ATOM
      1  N         72.9270   63.9660   45.4090 N.3    34  GLN34      -0.1245
      2  CA        71.9880   64.8130   46.1270 C.3    34  GLN34       0.1566
      3  C         71.7330   64.3660   47.5430 C.2    34  GLN34       0.2260
      4  O         71.7900   65.1640   48.4770 O.2    34  GLN34      -0.2867
      5  CB        70.6820   64.9230   45.3560 C.3    34  GLN34       0.0367
      6  CG        69.6380   65.7520   46.1060 C.3    34  GLN34       0.0905
      7  CD        68.4850   66.1320   45.2140 C.2    34  GLN34       0.2608
      8  OE1       67.6810   65.2810   44.8360 O.2    34  GLN34      -0.2717
      9  NE2       68.4030   67.4030   44.8680 N.am   34  GLN34      -0.0878
     10  N         72.9420   66.7070   50.8320 N.3    38  ARG38      -0.1245
     11  CA        71.9870   67.3110   51.7730 C.3    38  ARG38       0.1563
     12  C         72.3580   67.0160   53.2180 C.2    38  ARG38       0.2260
     13  O         71.9990   67.7980   54.0890 O.2    38  ARG38      -0.2867
     14  CB        70.5760   66.7840   51.4930 C.3    38  ARG38       0.0307
     15  CG        69.9580   67.2910   50.2100 C.3    38  ARG38       0.0489
     16  CD        68.7100   66.4670   49.8250 C.3    38  ARG38       0.2205
     17  NE        68.0080   67.0910   48.7330 N.pl3  38  ARG38      -0.0865
     18  CZ        66.8520   66.6200   48.2450 C.cat  38  ARG38       0.5346
     19  NH1       66.3730   65.5030   48.6930 N.pl3  38  ARG38       0.1354
     20  NH2       66.2070   67.2750   47.2960 N.pl3  38  ARG38       0.1354
     21  N         66.6780   82.2080   43.2080 N.3   122  TYR122     -0.1241
     22  CA        66.2580   80.9370   43.7850 C.3   122  TYR122      0.1605
     23  C         66.8870   80.8320   45.1690 C.2   122  TYR122      0.2264
     24  O         68.0910   81.1330   45.3620 O.2   122  TYR122     -0.2867
     25  CB        66.7240   79.8170   42.8620 C.3   122  TYR122      0.0534
     26  CG        66.6100   78.3600   43.2420 C.ar  122  TYR122     -0.0201
     27  CD1       67.2860   77.8170   44.3300 C.ar  122  TYR122     -0.0009
     28  CD2       65.8360   77.5040   42.4700 C.ar  122  TYR122     -0.0009
     29  CE1       67.1890   76.4820   44.6350 C.ar  122  TYR122      0.0417
     30  CE2       65.7570   76.1680   42.7610 C.ar  122  TYR122      0.0417
     31  CZ        66.4320   75.6610   43.8630 C.ar  122  TYR122      0.1957
     32  OH        66.3680   74.3020   44.1230 O.3   122  TYR122     -0.2866
     33  N         64.9040   74.3670   52.2390 N.3   126  ARG126     -0.1245
     34  CA        64.4070   73.0620   52.6200 C.3   126  ARG126      0.1563
     35  C         65.4900   72.1400   53.1890 C.2   126  ARG126      0.2260
     36  O         65.2090   71.3180   54.0820 O.2   126  ARG126     -0.2867
     37  CB        63.7630   72.4220   51.3710 C.3   126  ARG126      0.0307
     38  CG        63.1280   71.0920   51.6030 C.3   126  ARG126      0.0489
     39  CD        62.3190   70.6120   50.4120 C.3   126  ARG126      0.2205
     40  NE        61.5490   69.4110   50.7690 N.pl3 126  ARG126     -0.0865
     41  CZ        61.1230   68.4960   49.8920 C.cat 126  ARG126      0.5346
     42  NH1       61.3590   68.6420   48.6020 N.pl3 126  ARG126      0.1354
     43  NH2       60.4310   67.4470   50.2870 N.pl3 126  ARG126      0.1354
     44  N         62.0740   81.8450   43.6700 N.3   172  TRP172     -0.1227
     45  CA        61.8350   80.4190   43.5440 C.3   172  TRP172      0.1737
     46  C         62.4540   79.7280   44.7360 C.2   172  TRP172      0.2595
     47  O         63.6610   79.7490   44.9170 O.2   172  TRP172     -0.2718
     48  CB        62.5220   79.9060   42.2840 C.3   172  TRP172      0.0564
     49  CG        62.4110   78.4340   41.9150 C.ar  172  TRP172      0.0003
     50  CD1       62.0140   77.3800   42.7090 C.ar  172  TRP172      0.0946
     51  CD2       62.7950   77.8530   40.6610 C.ar  172  TRP172      0.0152
     52  NE1       62.0660   76.2120   42.0140 N.ar  172  TRP172     -0.2442
     53  CE2       62.5490   76.4670   40.7520 C.ar  172  TRP172      0.0810
     54  CE3       63.2970   78.3780   39.4620 C.ar  172  TRP172      0.0012
     55  CZ2       62.8100   75.6010   39.7100 C.ar  172  TRP172      0.0191
     56  CZ3       63.5500   77.5080   38.4190 C.ar  172  TRP172      0.0001
     57  CH2       63.3600   76.1320   38.5660 C.ar  172  TRP172      0.0015
     58  N         61.6260   79.1040   45.5450 N.am  173  PHE173     -0.1962
     59  CA        62.0960   78.3390   46.6850 C.3   173  PHE173      0.1771
     60  C         62.2030   76.8750   46.3130 C.2   173  PHE173      0.2620
     61  O         61.2660   76.3220   45.7010 O.2   173  PHE173     -0.2715
     62  CB        61.1380   78.4850   47.8400 C.3   173  PHE173      0.0574
     63  CG        61.1020   79.8750   48.4140 C.ar  173  PHE173     -0.0200
     64  CD1       62.0580   80.2490   49.3250 C.ar  173  PHE173     -0.0042
     65  CD2       60.0800   80.7550   48.1300 C.ar  173  PHE173     -0.0042
     66  CE1       62.0480   81.5220   49.9060 C.ar  173  PHE173     -0.0003
     67  CE2       60.0940   82.0630   48.6900 C.ar  173  PHE173     -0.0003
     68  CZ        61.0890   82.4130   49.5700 C.ar  173  PHE173     -0.0000
     69  N         63.3250   76.2390   46.6820 N.am  174  ASP174     -0.1957
     70  CA        63.5540   74.7980   46.4230 C.3   174  ASP174      0.1840
     71  C         62.5010   73.9390   47.0700 C.2   174  ASP174      0.2622
     72  O         62.5370   73.7230   48.2630 O.2   174  ASP174     -0.2715
     73  CB        64.9630   74.4290   46.9610 C.3   174  ASP174      0.1450
     74  CG        65.2750   72.9710   46.8710 C.2   174  ASP174      0.3671
     75  OD1       64.6080   72.2430   46.0770 O.co2 174  ASP174     -0.2456
     76  OD2       66.2280   72.5600   47.5880 O.co2 174  ASP174     -0.2456
     77  N         61.6190   73.3810   46.2670 N.am  175  GLY175     -0.1954
     78  CA        60.5200   72.6300   46.8340 C.3   175  GLY175      0.1869
     79  C         59.5130   73.4580   47.5880 C.2   175  GLY175      0.2309
     80  O         58.7440   72.9190   48.3750 O.2   175  GLY175     -0.2863
     81  N         57.0150   81.8810   44.0280 N.3   201  TYR201     -0.1227
     82  CA        56.9670   80.4640   43.7340 C.3   201  TYR201      0.1736
     83  C         57.7830   79.7420   44.7910 C.2   201  TYR201      0.2595
     84  O         59.0160   79.6230   44.6390 O.2   201  TYR201     -0.2718
     85  CB        57.4580   80.2350   42.3030 C.3   201  TYR201      0.0548
     86  CG        57.4530   78.8070   41.9160 C.ar  201  TYR201     -0.0200
     87  CD1       56.2740   78.1440   41.6500 C.ar  201  TYR201     -0.0009
     88  CD2       58.6340   78.1010   41.8010 C.ar  201  TYR201     -0.0009
     89  CE1       56.2690   76.8090   41.3280 C.ar  201  TYR201      0.0417
     90  CE2       58.6190   76.7210   41.5100 C.ar  201  TYR201      0.0417
     91  CZ        57.4340   76.1030   41.2920 C.ar  201  TYR201      0.1957
     92  OH        57.3090   74.7640   41.0210 O.3   201  TYR201     -0.2866
     93  N         57.1870   79.1780   45.8420 N.am  202  HIS202     -0.1975
     94  CA        55.7760   79.0230   46.1370 C.3   202  HIS202      0.1656
     95  C         55.7070   78.5120   47.5650 C.2   202  HIS202      0.2291
     96  O         56.7220   78.1650   48.1470 O.2   202  HIS202     -0.2864
     97  CB        55.1260   77.9690   45.2110 C.3   202  HIS202      0.0771
     98  CG        55.8320   76.6640   45.2020 C.ar  202  HIS202      0.0820
     99  ND1       55.3470   75.5430   45.8310 N.ar  202  HIS202     -0.2267
    100  CD2       56.9990   76.2910   44.6060 C.ar  202  HIS202      0.1154
    101  CE1       56.1870   74.5380   45.6340 C.ar  202  HIS202      0.1986
    102  NE2       57.1790   74.9530   44.8660 N.ar  202  HIS202     -0.2212
    103  N         54.8620   73.8940   38.7830 N.3   211  TRP211     -0.1241
    104  CA        55.7560   72.9310   38.1140 C.3   211  TRP211      0.1605
    105  C         54.8740   71.9700   37.3500 C.2   211  TRP211      0.2264
    106  O         53.9570   71.3720   37.9100 O.2   211  TRP211     -0.2867
    107  CB        56.5710   72.1850   39.1750 C.3   211  TRP211      0.0550
    108  CG        57.4730   71.1200   38.6190 C.ar  211  TRP211      0.0003
    109  CD1       58.4860   71.2960   37.7810 C.ar  211  TRP211      0.0946
    110  CD2       57.4150   69.7280   38.9190 C.ar  211  TRP211      0.0152
    111  NE1       59.0980   70.1050   37.5140 N.ar  211  TRP211     -0.2442
    112  CE2       58.4680   69.1200   38.2090 C.ar  211  TRP211      0.0810
    113  CE3       56.6030   68.9510   39.7310 C.ar  211  TRP211      0.0012
    114  CZ2       58.7180   67.7830   38.2700 C.ar  211  TRP211      0.0191
    115  CZ3       56.8290   67.6050   39.7750 C.ar  211  TRP211      0.0001
    116  CH2       57.8860   67.0320   39.0490 C.ar  211  TRP211      0.0015
    117  N         57.0620   67.1950   35.6040 N.3   214  SER214     -0.1202
    118  CA        58.2320   66.4190   35.2210 C.3   214  SER214      0.2020
    119  C         59.3570   67.4070   34.9630 C.2   214  SER214      0.2618
    120  O         59.1360   68.6120   34.9020 O.2   214  SER214     -0.2717
    121  CB        57.9850   65.6210   33.9580 C.3   214  SER214      0.2103
    122  OG        57.9420   66.4680   32.8050 O.3   214  SER214     -0.2182
    123  N         60.5920   66.9030   34.8720 N.am  215  GLU215     -0.1979
    124  CA        61.7500   67.7000   34.4750 C.3   215  GLU215      0.1602
    125  C         62.1800   67.2790   33.0520 C.2   215  GLU215      0.2287
    126  O         63.3630   67.2760   32.7260 O.2   215  GLU215     -0.2864
    127  CB        62.8890   67.5440   35.4580 C.3   215  GLU215      0.0415
    128  CG        62.5040   68.0350   36.8500 C.3   215  GLU215      0.1163
    129  CD        63.6550   68.0360   37.8430 C.2   215  GLU215      0.3649
    130  OE1       64.7100   67.4330   37.5560 O.co2 215  GLU215     -0.2457
    131  OE2       63.5130   68.6460   38.9260 O.co2 215  GLU215     -0.2457
    132  N         60.4780   72.4400   32.8710 N.3   262  ASP262     -0.1239
    133  CA        61.8870   72.6430   33.1320 C.3   262  ASP262      0.1674
    134  C         62.6960   71.3950   32.8160 C.2   262  ASP262      0.2266
    135  O         62.1440   70.2900   32.8100 O.2   262  ASP262     -0.2867
    136  CB        62.1930   73.1850   34.5500 C.3   262  ASP262      0.1410
    137  CG        61.8740   72.2390   35.7010 C.2   262  ASP262      0.3668
    138  OD1       61.2530   71.1760   35.5670 O.co2 262  ASP262     -0.2456
    139  OD2       62.2610   72.6310   36.8500 O.co2 262  ASP262     -0.2456
    140  N         71.1560   63.6610   33.9590 N.3   272  HIS272     -0.1241
    141  CA        70.0880   64.6400   34.2490 C.3   272  HIS272      0.1621
    142  C         70.6670   65.5650   35.3050 C.2   272  HIS272      0.2264
    143  O         70.3300   65.4540   36.5120 O.2   272  HIS272     -0.2867
    144  CB        68.8360   63.8840   34.7260 C.3   272  HIS272      0.0745
    145  CG        67.6120   64.7290   34.8940 C.ar  272  HIS272      0.0817
    146  ND1       66.7520   64.9940   33.8540 N.ar  272  HIS272     -0.2268
    147  CD2       67.1320   65.3930   35.9690 C.ar  272  HIS272      0.1154
    148  CE1       65.7840   65.7970   34.2920 C.ar  272  HIS272      0.1986
    149  NE2       65.9920   66.0470   35.5730 N.ar  272  HIS272     -0.2212
@<TRIPOS>BOND
     1   126   125    2
     2   122   121    1
     3   135   134    2
     4   134   133    1
     5   132   133    1
     6   125   124    1
     7   133   136    1
     8   146   148   ar
     9   146   145   ar
    10   121   118    1
    11   140   141    1
    12   141   144    1
    13   141   142    1
    14   148   149   ar
    15   124   123    1
    16   124   127    1
    17   136   137    1
    18   144   145    1
    19   123   119   am
    20   145   147   ar
    21   120   119    2
    22   119   118    1
    23   118   117    1
    24   142   143    2
    25   127   128    1
    26   138   137   ar
    27   149   147   ar
    28   137   139   ar
    29   128   129    1
    30   105   106    2
    31   105   104    1
    32   111   109   ar
    33   111   112   ar
    34   130   129   ar
    35   109   108   ar
    36   129   131   ar
    37   104   103    1
    38   104   107    1
    39   112   114   ar
    40   112   110   ar
    41   114   116   ar
    42    56    57   ar
    43    56    54   ar
    44    57    55   ar
    45   108   110   ar
    46   108   107    1
    47   110   113   ar
    48   116   115   ar
    49    54    51   ar
    50    55    53   ar
    51   113   115   ar
    52    51    53   ar
    53    51    49   ar
    54    53    52   ar
    55    92    91    1
    56    91    89   ar
    57    91    90   ar
    58    89    87   ar
    59    90    88   ar
    60    87    86   ar
    61    88    86   ar
    62    49    48    1
    63    49    50   ar
    64    86    85    1
    65    52    50   ar
    66    48    45    1
    67    85    82    1
    68    28    30   ar
    69    28    26   ar
    70    30    31   ar
    71    25    26    1
    72    25    22    1
    73    21    22    1
    74    26    27   ar
    75    45    44    1
    76    45    46    1
    77    82    81    1
    78    82    83    1
    79    22    23    1
    80    31    32    1
    81    31    29   ar
    82    27    29   ar
    83   100   102   ar
    84   100    98   ar
    85    84    83    2
    86    46    47    2
    87    46    58   am
    88    83    93   am
    89     8     7    2
    90   102   101   ar
    91     9     7   am
    92    23    24    2
    93    98    97    1
    94    98    99   ar
    95    97    94    1
    96     7     6    1
    97     5     6    1
    98     5     2    1
    99     1     2    1
   100    58    59    1
   101   101    99   ar
   102    61    60    2
   103    93    94    1
   104    75    74   ar
   105     2     3    1
   106    94    95    1
   107    77    78    1
   108    77    71   am
   109    60    69   am
   110    60    59    1
   111    70    69    1
   112    70    73    1
   113    70    71    1
   114    59    62    1
   115    78    79    1
   116    74    73    1
   117    74    76   ar
   118    71    72    2
   119    20    18    1
   120     3     4    2
   121    95    96    2
   122    79    80    2
   123    62    63    1
   124    65    63   ar
   125    65    67   ar
   126    18    19    1
   127    18    17    2
   128    63    64   ar
   129    42    41    1
   130    67    68   ar
   131    17    16    1
   132    64    66   ar
   133    68    66   ar
   134    16    15    1
   135    41    43    1
   136    41    40    2
   137    15    14    1
   138    39    40    1
   139    39    38    1
   140    10    11    1
   141    37    38    1
   142    37    34    1
   143    14    11    1
   144    11    12    1
   145    33    34    1
   146    34    35    1
   147    35    36    2
   148    12    13    2
