@<TRIPOS>MOLECULE
tmp/3gzbC01.pdb
 142 137 0 0 0
SMALL
GASTEIGER

@<TRIPOS>ATOM
      1  N         27.0930  -22.8430   82.2960 N.3    30  LEU30      -0.1245
      2  CA        27.0670  -23.0860   83.7060 C.3    30  LEU30       0.1561
      3  C         25.7680  -22.5620   84.3360 C.2    30  LEU30       0.2260
      4  O         25.0970  -23.2840   85.1090 O.2    30  LEU30      -0.2867
      5  CB        28.2900  -22.3880   84.3480 C.3    30  LEU30       0.0270
      6  CG        28.4570  -22.4900   85.8700 C.3    30  LEU30       0.0019
      7  CD1       28.8190  -23.9140   86.3080 C.3    30  LEU30       0.0001
      8  CD2       29.4490  -21.4150   86.4400 C.3    30  LEU30       0.0001
      9  N         37.9920  -27.0190   89.5480 N.3    48  PHE48      -0.1241
     10  CA        37.0100  -26.0640   90.0540 C.3    48  PHE48       0.1605
     11  C         37.3650  -25.7940   91.5140 C.2    48  PHE48       0.2264
     12  O         37.3030  -26.6890   92.3380 O.2    48  PHE48      -0.2867
     13  CB        35.5500  -26.5390   89.9260 C.3    48  PHE48       0.0534
     14  CG        34.5620  -25.5450   90.5620 C.ar   48  PHE48      -0.0203
     15  CD1       34.0210  -24.5100   89.8640 C.ar   48  PHE48      -0.0042
     16  CD2       34.3270  -25.6180   91.9270 C.ar   48  PHE48      -0.0042
     17  CE1       33.1450  -23.5870   90.5290 C.ar   48  PHE48      -0.0003
     18  CE2       33.5030  -24.7340   92.5750 C.ar   48  PHE48      -0.0003
     19  CZ        32.9570  -23.7010   91.8810 C.ar   48  PHE48      -0.0000
     20  N         36.4830  -23.3470   94.6310 N.3    50  ASP50      -0.1239
     21  CA        35.8740  -22.2800   95.4280 C.3    50  ASP50       0.1674
     22  C         36.8010  -22.0060   96.5670 C.2    50  ASP50       0.2266
     23  O         36.8060  -22.7330   97.5590 O.2    50  ASP50      -0.2867
     24  CB        34.4680  -22.6410   95.8710 C.3    50  ASP50       0.1410
     25  CG        33.7740  -21.4870   96.6030 C.2    50  ASP50       0.3668
     26  OD1       34.4550  -20.7240   97.2780 O.co2  50  ASP50      -0.2456
     27  OD2       32.5410  -21.4060   96.5080 O.co2  50  ASP50      -0.2456
     28  N         29.3020  -32.7790   91.2010 N.3    66  PHE66      -0.1227
     29  CA        29.1550  -31.8270   92.3090 C.3    66  PHE66       0.1736
     30  C         28.1590  -30.7090   91.9240 C.2    66  PHE66       0.2595
     31  O         27.2610  -30.3600   92.6930 O.2    66  PHE66      -0.2718
     32  CB        30.5430  -31.2730   92.7050 C.3    66  PHE66       0.0547
     33  CG        30.5890  -29.8100   93.0160 C.ar   66  PHE66      -0.0202
     34  CD1       30.0940  -29.3320   94.2140 C.ar   66  PHE66      -0.0042
     35  CD2       31.1840  -28.9210   92.1500 C.ar   66  PHE66      -0.0042
     36  CE1       30.1190  -27.9810   94.4960 C.ar   66  PHE66      -0.0003
     37  CE2       31.2320  -27.5570   92.4570 C.ar   66  PHE66      -0.0003
     38  CZ        30.6940  -27.1190   93.6320 C.ar   66  PHE66      -0.0000
     39  N         28.3220  -30.1940   90.7200 N.am   67  LEU67      -0.1980
     40  CA        27.4830  -29.0770   90.2440 C.3    67  LEU67       0.1596
     41  C         26.0350  -29.5430   90.1300 C.2    67  LEU67       0.2287
     42  O         25.1060  -28.8300   90.6170 O.2    67  LEU67      -0.2864
     43  CB        27.9470  -28.5320   88.8970 C.3    67  LEU67       0.0297
     44  CG        29.2760  -27.7870   88.9020 C.3    67  LEU67       0.0022
     45  CD1       29.6870  -27.5320   87.4620 C.3    67  LEU67       0.0001
     46  CD2       29.1350  -26.4380   89.6920 C.3    67  LEU67       0.0001
     47  N         24.5740  -29.9650   93.5930 N.3    70  ALA70      -0.1231
     48  CA        24.4680  -28.6990   94.3170 C.3    70  ALA70       0.1694
     49  C         23.2340  -27.9110   93.8370 C.2    70  ALA70       0.2592
     50  O         22.6360  -27.1510   94.5770 O.2    70  ALA70      -0.2718
     51  CB        25.7660  -27.8400   94.1380 C.3    70  ALA70       0.0304
     52  N         22.9430  -28.0610   92.5600 N.am   71  HIS71      -0.1976
     53  CA        21.8500  -27.2910   91.9110 C.3    71  HIS71       0.1656
     54  C         20.5340  -27.9940   91.6880 C.2    71  HIS71       0.2291
     55  O         19.6930  -27.4960   90.9780 O.2    71  HIS71      -0.2864
     56  CB        22.3720  -26.7060   90.6110 C.3    71  HIS71       0.0771
     57  CG        23.3090  -25.5710   90.8300 C.ar   71  HIS71       0.0820
     58  ND1       23.0070  -24.2750   90.4750 N.ar   71  HIS71      -0.2267
     59  CD2       24.5310  -25.5170   91.4170 C.ar   71  HIS71       0.1154
     60  CE1       23.9930  -23.4720   90.8090 C.ar   71  HIS71       0.1986
     61  NE2       24.9320  -24.1920   91.3930 N.ar   71  HIS71      -0.2212
     62  N         20.1490  -19.1700   86.8340 N.3    77  TYR77      -0.1241
     63  CA        20.6220  -18.0130   87.5710 C.3    77  TYR77       0.1605
     64  C         21.4320  -17.1110   86.6290 C.2    77  TYR77       0.2264
     65  O         21.7480  -17.5130   85.5020 O.2    77  TYR77      -0.2867
     66  CB        21.3780  -18.3780   88.8220 C.3    77  TYR77       0.0534
     67  CG        22.6200  -19.1990   88.6610 C.ar   77  TYR77      -0.0201
     68  CD1       22.5850  -20.5750   88.3850 C.ar   77  TYR77      -0.0009
     69  CD2       23.8650  -18.6430   88.9330 C.ar   77  TYR77      -0.0009
     70  CE1       23.7400  -21.3330   88.2890 C.ar   77  TYR77       0.0417
     71  CE2       25.0220  -19.3840   88.8420 C.ar   77  TYR77       0.0417
     72  CZ        24.9640  -20.7730   88.5650 C.ar   77  TYR77       0.1957
     73  OH        26.0860  -21.5530   88.4780 O.3    77  TYR77      -0.2866
     74  N         26.0800  -12.8390   91.4170 N.3    95  TYR95      -0.1241
     75  CA        25.2560  -13.9670   90.9830 C.3    95  TYR95       0.1605
     76  C         23.8590  -13.7850   91.5740 C.2    95  TYR95       0.2264
     77  O         23.7050  -13.7140   92.8040 O.2    95  TYR95      -0.2867
     78  CB        25.8400  -15.3080   91.4160 C.3    95  TYR95       0.0534
     79  CG        27.1090  -15.7290   90.7040 C.ar   95  TYR95      -0.0201
     80  CD1       27.0600  -16.3260   89.4530 C.ar   95  TYR95      -0.0009
     81  CD2       28.3520  -15.5560   91.2760 C.ar   95  TYR95      -0.0009
     82  CE1       28.1920  -16.7520   88.8090 C.ar   95  TYR95       0.0417
     83  CE2       29.5030  -15.9500   90.6200 C.ar   95  TYR95       0.0417
     84  CZ        29.4150  -16.5720   89.3880 C.ar   95  TYR95       0.1957
     85  OH        30.5310  -17.0200   88.7200 O.3    95  TYR95      -0.2866
     86  N         20.2110  -15.3200   92.0090 N.3    97  PHE97      -0.1241
     87  CA        19.3810  -16.5100   92.0840 C.3    97  PHE97       0.1605
     88  C         17.9820  -16.0960   92.5200 C.2    97  PHE97       0.2264
     89  O         17.8360  -15.3730   93.5380 O.2    97  PHE97      -0.2867
     90  CB        19.8920  -17.4950   93.1470 C.3    97  PHE97       0.0534
     91  CG        21.2010  -18.1420   92.8220 C.ar   97  PHE97      -0.0203
     92  CD1       22.4170  -17.5440   93.1740 C.ar   97  PHE97      -0.0042
     93  CD2       21.2420  -19.3810   92.2170 C.ar   97  PHE97      -0.0042
     94  CE1       23.6070  -18.1930   92.9130 C.ar   97  PHE97      -0.0003
     95  CE2       22.4160  -20.0230   91.9770 C.ar   97  PHE97      -0.0003
     96  CZ        23.5990  -19.4440   92.2970 C.ar   97  PHE97      -0.0000
     97  N         24.5520  -12.1000   94.9620 N.3   115  ILE115     -0.1245
     98  CA        25.7330  -12.4540   95.7120 C.3   115  ILE115      0.1561
     99  C         26.9910  -11.9050   95.0110 C.2   115  ILE115      0.2260
    100  O         27.3270  -12.3210   93.8940 O.2   115  ILE115     -0.2867
    101  CB        25.8800  -13.9790   95.8070 C.3   115  ILE115      0.0252
    102  CG1       24.5770  -14.6470   96.2980 C.3   115  ILE115      0.0019
    103  CG2       27.0810  -14.3040   96.7070 C.3   115  ILE115      0.0019
    104  CD1       24.5810  -16.1930   96.2790 C.3   115  ILE115      0.0001
    105  N         38.8890  -23.0010   87.0820 N.3   132  HIS132     -0.1241
    106  CA        37.8260  -22.0760   87.4580 C.3   132  HIS132      0.1621
    107  C         38.0130  -21.7900   88.9400 C.2   132  HIS132      0.2264
    108  O         37.9200  -22.7130   89.7770 O.2   132  HIS132     -0.2867
    109  CB        36.4920  -22.7590   87.1700 C.3   132  HIS132      0.0745
    110  CG        35.2690  -22.0000   87.5650 C.ar  132  HIS132      0.0817
    111  ND1       34.0580  -22.2100   86.9370 N.ar  132  HIS132     -0.2268
    112  CD2       35.0410  -21.0560   88.5110 C.ar  132  HIS132      0.1154
    113  CE1       33.1440  -21.4400   87.4900 C.ar  132  HIS132      0.1986
    114  NE2       33.7040  -20.7240   88.4510 N.ar  132  HIS132     -0.2212
    115  N         36.4870  -19.4810   92.0920 N.3   134  ASP134     -0.1239
    116  CA        35.4250  -18.6290   92.6060 C.3   134  ASP134      0.1674
    117  C         35.8350  -18.0510   93.9480 C.2   134  ASP134      0.2266
    118  O         36.3960  -18.7320   94.8380 O.2   134  ASP134     -0.2867
    119  CB        34.0970  -19.4110   92.8170 C.3   134  ASP134      0.1410
    120  CG        33.2310  -19.4860   91.5800 C.2   134  ASP134      0.3668
    121  OD1       33.5230  -18.8350   90.5470 O.co2 134  ASP134     -0.2456
    122  OD2       32.1870  -20.2020   91.6840 O.co2 134  ASP134     -0.2456
    123  N         33.4840  -16.1400   96.4080 N.3   136  ILE136     -0.1245
    124  CA        32.0780  -15.7830   96.6400 C.3   136  ILE136      0.1561
    125  C         31.8810  -15.0950   97.9920 C.2   136  ILE136      0.2260
    126  O         32.4580  -15.5270   99.0290 O.2   136  ILE136     -0.2867
    127  CB        31.2220  -17.0670   96.6560 C.3   136  ILE136      0.0252
    128  CG1       31.4280  -17.9290   95.4130 C.3   136  ILE136      0.0019
    129  CG2       29.7110  -16.7180   96.8820 C.3   136  ILE136      0.0019
    130  CD1       31.1850  -17.3000   94.1120 C.3   136  ILE136      0.0001
    131  N         29.9100  -15.0210  100.6450 N.3   138  TYR138     -0.1241
    132  CA        28.8790  -15.8170  101.3530 C.3   138  TYR138      0.1605
    133  C         28.2350  -15.0600  102.5030 C.2   138  TYR138      0.2264
    134  O         27.0320  -15.2270  102.7490 O.2   138  TYR138     -0.2867
    135  CB        29.4320  -17.1520  101.8550 C.3   138  TYR138      0.0534
    136  CG        29.7000  -18.1430  100.7680 C.ar  138  TYR138     -0.0201
    137  CD1       28.6800  -18.7030  100.0580 C.ar  138  TYR138     -0.0009
    138  CD2       31.0070  -18.5150  100.4520 C.ar  138  TYR138     -0.0009
    139  CE1       28.9170  -19.6150   99.0710 C.ar  138  TYR138      0.0417
    140  CE2       31.2680  -19.4070   99.4630 C.ar  138  TYR138      0.0417
    141  CZ        30.2420  -19.9740   98.7770 C.ar  138  TYR138      0.1957
    142  OH        30.4950  -20.9090   97.7790 O.3   138  TYR138     -0.2866
@<TRIPOS>BOND
     1     1     2    1
     2     2     3    1
     3     2     5    1
     4     3     4    2
     5     5     6    1
     6    65    64    2
     7     6     7    1
     8     6     8    1
     9    64    63    1
    10    62    63    1
    11   111   113   ar
    12   111   110   ar
    13   105   106    1
    14   109   106    1
    15   109   110    1
    16   106   107    1
    17    45    44    1
    18   113   114   ar
    19   110   112   ar
    20    63    66    1
    21    70    68   ar
    22    70    72   ar
    23    68    67   ar
    24   114   112   ar
    25    73    72    1
    26    72    71   ar
    27    67    66    1
    28    67    69   ar
    29    85    84    1
    30    82    84   ar
    31    82    80   ar
    32    71    69   ar
    33    43    44    1
    34    43    40    1
    35    44    46    1
    36   107   108    2
    37    84    83   ar
    38    80    79   ar
    39     9    10    1
    40    15    17   ar
    41    15    14   ar
    42    13    10    1
    43    13    14    1
    44    10    11    1
    45    41    40    1
    46    41    42    2
    47    40    39    1
    48    58    60   ar
    49    58    57   ar
    50    17    19   ar
    51   121   120   ar
    52    14    16   ar
    53    56    57    1
    54    56    53    1
    55    83    81   ar
    56    79    81   ar
    57    79    78    1
    58    39    30   am
    59    60    61   ar
    60    57    59   ar
    61    55    54    2
    62    75    78    1
    63    75    74    1
    64    75    76    1
    65    28    29    1
    66    61    59   ar
    67    11    12    2
    68    76    77    2
    69   120   122   ar
    70   120   119    1
    71    54    53    1
    72    19    18   ar
    73    53    52    1
    74    30    29    1
    75    30    31    2
    76    16    18   ar
    77    95    93   ar
    78    95    96   ar
    79    86    87    1
    80    87    88    1
    81    87    90    1
    82   115   116    1
    83    35    37   ar
    84    35    33   ar
    85    93    91   ar
    86    96    94   ar
    87    29    32    1
    88    37    38   ar
    89    88    89    2
    90    52    49   am
    91   116   119    1
    92   116   117    1
    93    32    33    1
    94    91    90    1
    95    91    92   ar
    96    94    92   ar
    97    33    34   ar
    98    47    48    1
    99    38    36   ar
   100    49    48    1
   101    49    50    2
   102   100    99    2
   103   117   118    2
   104   130   128    1
   105    51    48    1
   106    34    36   ar
   107    20    21    1
   108    97    98    1
   109    99    98    1
   110   128   127    1
   111    21    24    1
   112    21    22    1
   113    98   101    1
   114   101   102    1
   115   101   103    1
   116    24    25    1
   117   104   102    1
   118   123   124    1
   119    27    25   ar
   120    22    23    2
   121    25    26   ar
   122   124   127    1
   123   124   125    1
   124   127   129    1
   125   142   141    1
   126   125   126    2
   127   141   139   ar
   128   141   140   ar
   129   139   137   ar
   130   140   138   ar
   131   137   136   ar
   132   138   136   ar
   133   131   132    1
   134   136   135    1
   135   132   135    1
   136   132   133    1
   137   133   134    2
