@<TRIPOS>MOLECULE
tmp/3gzbC00.pdb
 93 90 0 0 0
SMALL
GASTEIGER

@<TRIPOS>ATOM
      1  N         24.5740  -29.9650   93.5930 N.3    70  ALA70      -0.1231
      2  CA        24.4680  -28.6990   94.3170 C.3    70  ALA70       0.1694
      3  C         23.2340  -27.9110   93.8370 C.2    70  ALA70       0.2592
      4  O         22.6360  -27.1510   94.5770 O.2    70  ALA70      -0.2718
      5  CB        25.7660  -27.8400   94.1380 C.3    70  ALA70       0.0304
      6  N         22.9430  -28.0610   92.5600 N.am   71  HIS71      -0.1976
      7  CA        21.8500  -27.2910   91.9110 C.3    71  HIS71       0.1656
      8  C         20.5340  -27.9940   91.6880 C.2    71  HIS71       0.2291
      9  O         19.6930  -27.4960   90.9780 O.2    71  HIS71      -0.2864
     10  CB        22.3720  -26.7060   90.6110 C.3    71  HIS71       0.0771
     11  CG        23.3090  -25.5710   90.8300 C.ar   71  HIS71       0.0820
     12  ND1       23.0070  -24.2750   90.4750 N.ar   71  HIS71      -0.2267
     13  CD2       24.5310  -25.5170   91.4170 C.ar   71  HIS71       0.1154
     14  CE1       23.9930  -23.4720   90.8090 C.ar   71  HIS71       0.1986
     15  NE2       24.9320  -24.1920   91.3930 N.ar   71  HIS71      -0.2212
     16  N         17.3600  -25.8060   91.4830 N.3    74  VAL74      -0.1245
     17  CA        17.7350  -24.4190   91.2490 C.3    74  VAL74       0.1561
     18  C         17.3860  -24.0650   89.7970 C.2    74  VAL74       0.2260
     19  O         17.7650  -24.7810   88.8450 O.2    74  VAL74      -0.2867
     20  CB        19.2180  -24.2260   91.5340 C.3    74  VAL74       0.0252
     21  CG1       19.6620  -22.7640   91.2160 C.3    74  VAL74       0.0019
     22  CG2       19.4810  -24.6060   93.0100 C.3    74  VAL74       0.0019
     23  N         26.0800  -12.8390   91.4170 N.3    95  TYR95      -0.1241
     24  CA        25.2560  -13.9670   90.9830 C.3    95  TYR95       0.1605
     25  C         23.8590  -13.7850   91.5740 C.2    95  TYR95       0.2264
     26  O         23.7050  -13.7140   92.8040 O.2    95  TYR95      -0.2867
     27  CB        25.8400  -15.3080   91.4160 C.3    95  TYR95       0.0534
     28  CG        27.1090  -15.7290   90.7040 C.ar   95  TYR95      -0.0201
     29  CD1       27.0600  -16.3260   89.4530 C.ar   95  TYR95      -0.0009
     30  CD2       28.3520  -15.5560   91.2760 C.ar   95  TYR95      -0.0009
     31  CE1       28.1920  -16.7520   88.8090 C.ar   95  TYR95       0.0417
     32  CE2       29.5030  -15.9500   90.6200 C.ar   95  TYR95       0.0417
     33  CZ        29.4150  -16.5720   89.3880 C.ar   95  TYR95       0.1957
     34  OH        30.5310  -17.0200   88.7200 O.3    95  TYR95      -0.2866
     35  N         20.2110  -15.3200   92.0090 N.3    97  PHE97      -0.1241
     36  CA        19.3810  -16.5100   92.0840 C.3    97  PHE97       0.1605
     37  C         17.9820  -16.0960   92.5200 C.2    97  PHE97       0.2264
     38  O         17.8360  -15.3730   93.5380 O.2    97  PHE97      -0.2867
     39  CB        19.8920  -17.4950   93.1470 C.3    97  PHE97       0.0534
     40  CG        21.2010  -18.1420   92.8220 C.ar   97  PHE97      -0.0203
     41  CD1       22.4170  -17.5440   93.1740 C.ar   97  PHE97      -0.0042
     42  CD2       21.2420  -19.3810   92.2170 C.ar   97  PHE97      -0.0042
     43  CE1       23.6070  -18.1930   92.9130 C.ar   97  PHE97      -0.0003
     44  CE2       22.4160  -20.0230   91.9770 C.ar   97  PHE97      -0.0003
     45  CZ        23.5990  -19.4440   92.2970 C.ar   97  PHE97      -0.0000
     46  N         17.8210  -25.2940   98.4500 N.3   103  GLN103     -0.1231
     47  CA        19.2720  -25.3710   98.5190 C.3   103  GLN103      0.1698
     48  C         19.8810  -24.2010   99.3170 C.2   103  GLN103      0.2592
     49  O         21.0700  -24.2190   99.6300 O.2   103  GLN103     -0.2718
     50  CB        19.8970  -25.4560   97.1190 C.3   103  GLN103      0.0381
     51  CG        19.4640  -26.6810   96.2780 C.3   103  GLN103      0.0905
     52  CD        19.8290  -28.0310   96.8920 C.2   103  GLN103      0.2608
     53  OE1       19.2020  -28.4720   97.8540 O.2   103  GLN103     -0.2717
     54  NE2       20.8370  -28.6940   96.3290 N.am  103  GLN103     -0.0878
     55  N         19.0680  -23.1910   99.6360 N.am  104  PHE104     -0.1976
     56  CA        19.4960  -22.0250  100.4050 C.3   104  PHE104      0.1639
     57  C         19.0170  -22.0830  101.8540 C.2   104  PHE104      0.2290
     58  O         19.0040  -21.0580  102.5490 O.2   104  PHE104     -0.2864
     59  CB        18.9570  -20.7570   99.7250 C.3   104  PHE104      0.0560
     60  CG        19.5370  -20.5030   98.3550 C.ar  104  PHE104     -0.0200
     61  CD1       20.7040  -19.7630   98.2170 C.ar  104  PHE104     -0.0042
     62  CD2       18.9620  -21.0580   97.2170 C.ar  104  PHE104     -0.0042
     63  CE1       21.2660  -19.5460   96.9560 C.ar  104  PHE104     -0.0003
     64  CE2       19.5390  -20.8190   95.9480 C.ar  104  PHE104     -0.0003
     65  CZ        20.6560  -20.0580   95.8360 C.ar  104  PHE104     -0.0000
     66  N         24.5520  -12.1000   94.9620 N.3   115  ILE115     -0.1245
     67  CA        25.7330  -12.4540   95.7120 C.3   115  ILE115      0.1561
     68  C         26.9910  -11.9050   95.0110 C.2   115  ILE115      0.2260
     69  O         27.3270  -12.3210   93.8940 O.2   115  ILE115     -0.2867
     70  CB        25.8800  -13.9790   95.8070 C.3   115  ILE115      0.0252
     71  CG1       24.5770  -14.6470   96.2980 C.3   115  ILE115      0.0019
     72  CG2       27.0810  -14.3040   96.7070 C.3   115  ILE115      0.0019
     73  CD1       24.5810  -16.1930   96.2790 C.3   115  ILE115      0.0001
     74  N         33.4840  -16.1400   96.4080 N.3   136  ILE136     -0.1245
     75  CA        32.0780  -15.7830   96.6400 C.3   136  ILE136      0.1561
     76  C         31.8810  -15.0950   97.9920 C.2   136  ILE136      0.2260
     77  O         32.4580  -15.5270   99.0290 O.2   136  ILE136     -0.2867
     78  CB        31.2220  -17.0670   96.6560 C.3   136  ILE136      0.0252
     79  CG1       31.4280  -17.9290   95.4130 C.3   136  ILE136      0.0019
     80  CG2       29.7110  -16.7180   96.8820 C.3   136  ILE136      0.0019
     81  CD1       31.1850  -17.3000   94.1120 C.3   136  ILE136      0.0001
     82  N         29.9100  -15.0210  100.6450 N.3   138  TYR138     -0.1241
     83  CA        28.8790  -15.8170  101.3530 C.3   138  TYR138      0.1605
     84  C         28.2350  -15.0600  102.5030 C.2   138  TYR138      0.2264
     85  O         27.0320  -15.2270  102.7490 O.2   138  TYR138     -0.2867
     86  CB        29.4320  -17.1520  101.8550 C.3   138  TYR138      0.0534
     87  CG        29.7000  -18.1430  100.7680 C.ar  138  TYR138     -0.0201
     88  CD1       28.6800  -18.7030  100.0580 C.ar  138  TYR138     -0.0009
     89  CD2       31.0070  -18.5150  100.4520 C.ar  138  TYR138     -0.0009
     90  CE1       28.9170  -19.6150   99.0710 C.ar  138  TYR138      0.0417
     91  CE2       31.2680  -19.4070   99.4630 C.ar  138  TYR138      0.0417
     92  CZ        30.2420  -19.9740   98.7770 C.ar  138  TYR138      0.1957
     93  OH        30.4950  -20.9090   97.7790 O.3   138  TYR138     -0.2866
@<TRIPOS>BOND
     1    34    33    1
     2    31    33   ar
     3    31    29   ar
     4    19    18    2
     5    33    32   ar
     6    29    28   ar
     7    18    17    1
     8    12    14   ar
     9    12    11   ar
    10    10    11    1
    11    10     7    1
    12    32    30   ar
    13    28    30   ar
    14    28    27    1
    15    14    15   ar
    16    11    13   ar
    17     9     8    2
    18    24    27    1
    19    24    23    1
    20    24    25    1
    21    21    20    1
    22    17    16    1
    23    17    20    1
    24    15    13   ar
    25    20    22    1
    26    25    26    2
    27     8     7    1
    28     7     6    1
    29    44    42   ar
    30    44    45   ar
    31    35    36    1
    32    36    37    1
    33    36    39    1
    34    42    40   ar
    35    45    43   ar
    36    37    38    2
    37     6     3   am
    38    40    39    1
    39    40    41   ar
    40    43    41   ar
    41     1     2    1
    42     3     2    1
    43     3     4    2
    44    69    68    2
    45    81    79    1
    46     5     2    1
    47    66    67    1
    48    68    67    1
    49    79    78    1
    50    67    70    1
    51    70    71    1
    52    70    72    1
    53    65    64   ar
    54    65    63   ar
    55    64    62   ar
    56    51    52    1
    57    51    50    1
    58    73    71    1
    59    54    52   am
    60    74    75    1
    61    75    78    1
    62    75    76    1
    63    78    80    1
    64    52    53    2
    65    63    61   ar
    66    50    47    1
    67    62    60   ar
    68    93    92    1
    69    76    77    2
    70    61    60   ar
    71    60    59    1
    72    46    47    1
    73    47    48    1
    74    92    90   ar
    75    92    91   ar
    76    90    88   ar
    77    48    49    2
    78    48    55   am
    79    91    89   ar
    80    55    56    1
    81    59    56    1
    82    88    87   ar
    83    56    57    1
    84    89    87   ar
    85    82    83    1
    86    87    86    1
    87    83    86    1
    88    83    84    1
    89    57    58    2
    90    84    85    2
