@<TRIPOS>MOLECULE
tmp/3gzjA00.pdb
 161 154 0 0 0
SMALL
GASTEIGER

@<TRIPOS>ATOM
      1  N        -32.2650   -0.8890   45.9380 N.3     9  GLY9       -0.1210
      2  CA       -31.3810   -1.8230   46.6460 C.3     9  GLY9        0.1956
      3  C        -32.0930   -2.7180   47.6610 C.2     9  GLY9        0.2612
      4  O        -33.3110   -2.8510   47.6470 O.2     9  GLY9       -0.2717
      5  N        -31.3200   -3.3540   48.5290 N.am   10  GLY10      -0.1956
      6  CA       -31.8550   -4.3110   49.4940 C.3    10  GLY10       0.1869
      7  C        -32.6050   -3.5660   50.5810 C.2    10  GLY10       0.2309
      8  O        -32.2940   -2.3980   50.8960 O.2    10  GLY10      -0.2863
      9  N        -35.2250   -2.0070   50.5630 N.3    12  LEU12      -0.1245
     10  CA       -35.9620   -0.8100   50.1390 C.3    12  LEU12       0.1561
     11  C        -37.1600   -1.1430   49.2330 C.2    12  LEU12       0.2260
     12  O        -37.7170   -2.2570   49.3120 O.2    12  LEU12      -0.2867
     13  CB       -35.0340    0.2280   49.4990 C.3    12  LEU12       0.0270
     14  CG       -34.0670    0.9920   50.4100 C.3    12  LEU12       0.0019
     15  CD1      -34.7450    1.7080   51.5310 C.3    12  LEU12       0.0001
     16  CD2      -33.1000    0.1090   51.0100 C.3    12  LEU12       0.0001
     17  N        -27.0310    0.5030   44.9470 N.3    78  SER78      -0.1202
     18  CA       -26.6110   -0.4800   45.9280 C.3    78  SER78       0.2020
     19  C        -26.7810   -1.8920   45.3570 C.2    78  SER78       0.2618
     20  O        -26.3820   -2.1500   44.2420 O.2    78  SER78      -0.2717
     21  CB       -27.3890   -0.2700   47.2230 C.3    78  SER78       0.2103
     22  OG       -26.6290   -0.5820   48.3690 O.3    78  SER78      -0.2182
     23  N        -27.3730   -2.7990   46.1300 N.am   79  PHE79      -0.1975
     24  CA       -27.6560   -4.1720   45.6820 C.3    79  PHE79       0.1639
     25  C        -28.4620   -4.2450   44.3860 C.2    79  PHE79       0.2290
     26  O        -28.5480   -5.3020   43.7440 O.2    79  PHE79      -0.2864
     27  CB       -28.4050   -4.8990   46.7730 C.3    79  PHE79       0.0560
     28  CG       -28.4320   -6.4030   46.6030 C.ar   79  PHE79      -0.0200
     29  CD1      -27.3040   -7.0940   46.1920 C.ar   79  PHE79      -0.0042
     30  CD2      -29.5710   -7.1240   46.9020 C.ar   79  PHE79      -0.0042
     31  CE1      -27.3320   -8.4840   46.0360 C.ar   79  PHE79      -0.0003
     32  CE2      -29.5930   -8.4950   46.7410 C.ar   79  PHE79      -0.0003
     33  CZ       -28.4610   -9.1750   46.3370 C.ar   79  PHE79      -0.0000
     34  N        -22.8750   -1.9900   43.1220 N.3   104  MET104     -0.1245
     35  CA       -21.8780   -2.9100   42.6020 C.3   104  MET104      0.1570
     36  C        -22.1960   -3.2360   41.1570 C.2   104  MET104      0.2261
     37  O        -23.3580   -3.4070   40.7720 O.2   104  MET104     -0.2867
     38  CB       -21.6930   -4.1800   43.4540 C.3   104  MET104      0.0387
     39  CG       -22.7780   -5.2240   43.3010 C.3   104  MET104      0.0595
     40  SD       -24.2600   -4.6020   44.0750 S.3   104  MET104     -0.1393
     41  CE       -23.7940   -4.8060   45.8100 C.3   104  MET104      0.0692
     42  N        -17.9670   -9.0720   44.1850 N.3   115  PRO115     -0.2102
     43  CA       -18.0770   -7.7250   44.8220 C.3   115  PRO115      0.1504
     44  C        -18.3670   -7.7830   46.3450 C.2   115  PRO115      0.2575
     45  O        -18.0210   -6.8740   47.0770 O.2   115  PRO115     -0.2718
     46  CB       -19.2790   -7.0950   44.0770 C.3   115  PRO115      0.0282
     47  CG       -19.3060   -7.8670   42.7350 C.3   115  PRO115      0.0208
     48  CD       -19.0410   -9.2640   43.1940 C.3   115  PRO115      0.0893
     49  N        -18.9770   -8.8710   46.7980 N.am  116  PHE116     -0.1977
     50  CA       -19.2740   -9.1010   48.2060 C.3   116  PHE116      0.1639
     51  C        -18.0150   -9.4910   48.9810 C.2   116  PHE116      0.2290
     52  O        -17.7140   -8.9090   50.0280 O.2   116  PHE116     -0.2864
     53  CB       -20.4620  -10.0560   48.3320 C.3   116  PHE116      0.0560
     54  CG       -21.6800   -9.5170   47.6120 C.ar  116  PHE116     -0.0200
     55  CD1      -22.5450   -8.6410   48.2530 C.ar  116  PHE116     -0.0042
     56  CD2      -21.8820   -9.7700   46.2590 C.ar  116  PHE116     -0.0042
     57  CE1      -23.6230   -8.0460   47.5780 C.ar  116  PHE116     -0.0003
     58  CE2      -22.9760   -9.1940   45.5640 C.ar  116  PHE116     -0.0003
     59  CZ       -23.8280   -8.3290   46.2340 C.ar  116  PHE116     -0.0000
     60  N        -16.0190   -6.4050   49.2390 N.3   119  TYR119     -0.1241
     61  CA       -16.5590   -5.4940   50.2830 C.3   119  TYR119      0.1605
     62  C        -16.1300   -5.9010   51.7130 C.2   119  TYR119      0.2264
     63  O        -15.8190   -5.0660   52.5340 O.2   119  TYR119     -0.2867
     64  CB       -18.0540   -5.4230   50.1430 C.3   119  TYR119      0.0534
     65  CG       -18.8480   -4.8250   51.2890 C.ar  119  TYR119     -0.0201
     66  CD1      -19.3320   -3.5140   51.2240 C.ar  119  TYR119     -0.0009
     67  CD2      -19.1660   -5.6070   52.4010 C.ar  119  TYR119     -0.0009
     68  CE1      -20.1200   -2.9920   52.2480 C.ar  119  TYR119      0.0417
     69  CE2      -19.9220   -5.1040   53.4270 C.ar  119  TYR119      0.0417
     70  CZ       -20.4070   -3.8000   53.3530 C.ar  119  TYR119      0.1957
     71  OH       -21.1560   -3.3570   54.4240 O.3   119  TYR119     -0.2866
     72  N        -22.1790   -2.1680   59.2000 N.3   128  MET128     -0.1245
     73  CA       -23.6320   -2.0280   59.2950 C.3   128  MET128      0.1570
     74  C        -24.2680   -1.5930   60.6540 C.2   128  MET128      0.2261
     75  O        -25.4980   -1.4660   60.7430 O.2   128  MET128     -0.2867
     76  CB       -24.2810   -3.2420   58.6470 C.3   128  MET128      0.0387
     77  CG       -24.0210   -3.1280   57.2010 C.3   128  MET128      0.0595
     78  SD       -25.0140   -4.0620   56.0690 S.3   128  MET128     -0.1393
     79  CE       -26.6210   -3.2750   56.2800 C.3   128  MET128      0.0692
     80  N        -31.3980   -9.6840   56.6470 N.3   146  MET146     -0.1245
     81  CA       -30.9250   -8.5200   57.3720 C.3   146  MET146      0.1570
     82  C        -32.0370   -7.5070   57.5250 C.2   146  MET146      0.2261
     83  O        -32.8710   -7.3800   56.6620 O.2   146  MET146     -0.2867
     84  CB       -29.6930   -7.9150   56.6920 C.3   146  MET146      0.0387
     85  CG       -30.0150   -7.0880   55.4880 C.3   146  MET146      0.0595
     86  SD       -28.6490   -6.8010   54.3740 S.3   146  MET146     -0.1393
     87  CE       -29.5140   -6.1380   52.9020 C.3   146  MET146      0.0692
     88  N        -32.1240   -3.3380   58.4650 N.3   148  LEU148     -0.1245
     89  CA       -31.4480   -2.0660   58.6570 C.3   148  LEU148      0.1561
     90  C        -31.7500   -1.4780   60.0130 C.2   148  LEU148      0.2260
     91  O        -32.9170   -1.3780   60.3880 O.2   148  LEU148     -0.2867
     92  CB       -31.9010   -1.0730   57.5820 C.3   148  LEU148      0.0270
     93  CG       -31.7770   -1.4980   56.1110 C.3   148  LEU148      0.0019
     94  CD1      -32.1770   -0.3380   55.1570 C.3   148  LEU148      0.0001
     95  CD2      -30.4180   -2.0480   55.7810 C.3   148  LEU148      0.0001
     96  N        -27.9970    3.0490   61.6150 N.3   152  PHE152     -0.1241
     97  CA       -27.4420    2.7720   60.3170 C.3   152  PHE152      0.1605
     98  C        -28.1090    3.6430   59.2580 C.2   152  PHE152      0.2264
     99  O        -27.4520    4.2420   58.3910 O.2   152  PHE152     -0.2867
    100  CB       -27.5710    1.3010   59.9490 C.3   152  PHE152      0.0534
    101  CG       -26.9520    0.9650   58.5830 C.ar  152  PHE152     -0.0203
    102  CD1      -25.5670    0.9980   58.4030 C.ar  152  PHE152     -0.0042
    103  CD2      -27.7550    0.6560   57.4740 C.ar  152  PHE152     -0.0042
    104  CE1      -25.0070    0.7400   57.1690 C.ar  152  PHE152     -0.0003
    105  CE2      -27.1960    0.3930   56.2310 C.ar  152  PHE152     -0.0003
    106  CZ       -25.8250    0.4250   56.0800 C.ar  152  PHE152     -0.0000
    107  N        -27.0860    5.9320   55.6350 N.3   157  MET157     -0.1245
    108  CA       -27.8540    5.9260   54.3450 C.3   157  MET157      0.1570
    109  C        -28.5430    7.2520   53.9860 C.2   157  MET157      0.2261
    110  O        -28.4990    7.6910   52.8320 O.2   157  MET157     -0.2867
    111  CB       -28.9280    4.8310   54.3200 C.3   157  MET157      0.0387
    112  CG       -28.4300    3.3830   54.3080 C.3   157  MET157      0.0595
    113  SD       -29.8250    2.2340   54.4920 S.3   157  MET157     -0.1393
    114  CE       -30.5510    2.1970   52.8790 C.3   157  MET157      0.0692
    115  N        -28.9360  -10.6690   50.8050 N.3   178  LEU178     -0.1245
    116  CA       -27.9550  -10.3580   49.7500 C.3   178  LEU178      0.1561
    117  C        -27.6780  -11.6020   48.9350 C.2   178  LEU178      0.2260
    118  O        -26.8470  -11.5920   48.0140 O.2   178  LEU178     -0.2867
    119  CB       -26.6490   -9.7670   50.2970 C.3   178  LEU178      0.0270
    120  CG       -26.7140   -8.4480   51.0780 C.3   178  LEU178      0.0019
    121  CD1      -25.3930   -8.2010   51.8450 C.3   178  LEU178      0.0001
    122  CD2      -27.0400   -7.2670   50.1940 C.3   178  LEU178      0.0001
    123  N        -22.2960    4.2580   53.4040 N.3   209  SER209     -0.1202
    124  CA       -22.5270    2.8100   53.4220 C.3   209  SER209      0.2020
    125  C        -21.7000    2.0480   52.3610 C.2   209  SER209      0.2618
    126  O        -21.4320    0.8440   52.4760 O.2   209  SER209     -0.2717
    127  CB       -24.0230    2.4860   53.2730 C.3   209  SER209      0.2103
    128  OG       -24.3890    2.5200   51.9090 O.3   209  SER209     -0.2182
    129  N        -21.3210    2.7900   51.3410 N.am  210  PHE210     -0.1975
    130  CA       -20.5820    2.3100   50.1820 C.3   210  PHE210      0.1639
    131  C        -19.5390    3.4140   49.7860 C.2   210  PHE210      0.2290
    132  O        -19.7570    4.1680   48.8380 O.2   210  PHE210     -0.2864
    133  CB       -21.6290    2.0420   49.0820 C.3   210  PHE210      0.0560
    134  CG       -21.0740    1.4440   47.8100 C.ar  210  PHE210     -0.0200
    135  CD1      -19.7780    1.0080   47.7150 C.ar  210  PHE210     -0.0042
    136  CD2      -21.8830    1.3020   46.7070 C.ar  210  PHE210     -0.0042
    137  CE1      -19.2970    0.4180   46.5530 C.ar  210  PHE210     -0.0003
    138  CE2      -21.3750    0.7370   45.5380 C.ar  210  PHE210     -0.0003
    139  CZ       -20.0880    0.2930   45.4800 C.ar  210  PHE210     -0.0000
    140  N        -14.5000    3.1370   47.0490 N.3   214  PHE214     -0.1241
    141  CA       -14.8530    1.7340   46.6930 C.3   214  PHE214      0.1605
    142  C        -15.7520    1.7120   45.4540 C.2   214  PHE214      0.2264
    143  O        -15.7110    0.8000   44.6630 O.2   214  PHE214     -0.2867
    144  CB       -15.5240    1.0470   47.8930 C.3   214  PHE214      0.0534
    145  CG       -15.8240   -0.4600   47.7240 C.ar  214  PHE214     -0.0203
    146  CD1      -14.9750   -1.3170   47.0450 C.ar  214  PHE214     -0.0042
    147  CD2      -16.9700   -1.0210   48.3170 C.ar  214  PHE214     -0.0042
    148  CE1      -15.2570   -2.7030   46.9470 C.ar  214  PHE214     -0.0003
    149  CE2      -17.2570   -2.4060   48.2040 C.ar  214  PHE214     -0.0003
    150  CZ       -16.3790   -3.2410   47.5190 C.ar  214  PHE214     -0.0000
    151  N        -14.8970   -0.0450   41.4620 N.3   218  PHE218     -0.1241
    152  CA       -15.6430   -0.8260   40.4360 C.3   218  PHE218      0.1605
    153  C        -15.4530   -0.2610   39.0360 C.2   218  PHE218      0.2264
    154  O        -15.4210   -1.0130   38.0850 O.2   218  PHE218     -0.2867
    155  CB       -17.1640   -0.9420   40.7400 C.3   218  PHE218      0.0534
    156  CG       -17.4780   -1.9340   41.7950 C.ar  218  PHE218     -0.0203
    157  CD1      -17.6630   -3.2710   41.4720 C.ar  218  PHE218     -0.0042
    158  CD2      -17.5190   -1.5430   43.1300 C.ar  218  PHE218     -0.0042
    159  CE1      -17.9030   -4.2200   42.4860 C.ar  218  PHE218     -0.0003
    160  CE2      -17.7240   -2.4620   44.1400 C.ar  218  PHE218     -0.0003
    161  CZ       -17.9500   -3.8140   43.8090 C.ar  218  PHE218     -0.0000
@<TRIPOS>BOND
     1   154   153    2
     2   153   152    1
     3   152   155    1
     4   152   151    1
     5   155   156    1
     6    37    36    2
     7    36    35    1
     8   157   156   ar
     9   157   159   ar
    10   156   158   ar
    11   159   161   ar
    12    35    34    1
    13    35    38    1
    14    47    48    1
    15    47    46    1
    16   158   160   ar
    17    48    42    1
    18    39    38    1
    19    39    40    1
    20    26    25    2
    21   161   160   ar
    22    40    41    1
    23    46    43    1
    24    42    43    1
    25    20    19    2
    26    25    24    1
    27   143   142    2
    28    43    44    1
    29    17    18    1
    30    19    18    1
    31    19    23   am
    32   142   141    1
    33   139   138   ar
    34   139   137   ar
    35   138   136   ar
    36    58    59   ar
    37    58    56   ar
    38    24    23    1
    39    24    27    1
    40    18    21    1
    41     1     2    1
    42    31    29   ar
    43    31    33   ar
    44    29    28   ar
    45    59    57   ar
    46    56    54   ar
    47    33    32   ar
    48    44    49   am
    49    44    45    2
    50   137   135   ar
    51    28    27    1
    52    28    30   ar
    53     2     3    1
    54   141   140    1
    55   141   144    1
    56   136   134   ar
    57    32    30   ar
    58    49    50    1
    59   148   146   ar
    60   148   150   ar
    61   146   145   ar
    62    21    22    1
    63   150   149   ar
    64    57    55   ar
    65    54    55   ar
    66    54    53    1
    67     4     3    2
    68     3     5   am
    69   135   134   ar
    70   145   144    1
    71   145   147   ar
    72   134   133    1
    73   118   117    2
    74   149   147   ar
    75    50    53    1
    76    50    51    1
    77     5     6    1
    78   132   131    2
    79   117   116    1
    80    51    52    2
    81   133   130    1
    82    11    12    2
    83    11    10    1
    84    60    61    1
    85     6     7    1
    86    13    10    1
    87    13    14    1
    88   116   119    1
    89   116   115    1
    90   131   130    1
    91    10     9    1
    92    64    61    1
    93    64    65    1
    94   130   129    1
    95   122   120    1
    96    61    62    1
    97   119   120    1
    98    14    16    1
    99    14    15    1
   100     7     8    2
   101   120   121    1
   102    66    65   ar
   103    66    68   ar
   104    65    67   ar
   105   129   125   am
   106    62    63    2
   107   128   127    1
   108    68    70   ar
   109   125   126    2
   110   125   124    1
   111    67    69   ar
   112   110   109    2
   113   114   113    1
   114    87    86    1
   115   127   124    1
   116    70    69   ar
   117    70    71    1
   118   123   124    1
   119   109   108    1
   120   112   111    1
   121   112   113    1
   122   111   108    1
   123   108   107    1
   124    86    85    1
   125    94    93    1
   126    85    84    1
   127    95    93    1
   128    78    79    1
   129    78    77    1
   130   106   105   ar
   131   106   104   ar
   132    93    92    1
   133   105   103   ar
   134    80    81    1
   135    83    82    2
   136    84    81    1
   137   104   102   ar
   138    77    76    1
   139    81    82    1
   140   103   101   ar
   141    92    89    1
   142    99    98    2
   143   102   101   ar
   144    88    89    1
   145   101   100    1
   146    76    73    1
   147    89    90    1
   148    72    73    1
   149    98    97    1
   150    73    74    1
   151   100    97    1
   152    90    91    2
   153    97    96    1
   154    74    75    2
