@<TRIPOS>MOLECULE
tmp/3gzlA00.pdb
 81 74 0 0 0
SMALL
GASTEIGER

@<TRIPOS>ATOM
      1  N          7.0370  -23.5710   -6.5700 N.3    32  THR32      -0.1218
      2  CA         7.3590  -24.8330   -5.9070 C.3    32  THR32       0.1862
      3  C          7.8570  -25.9030   -6.8740 C.2    32  THR32       0.2287
      4  O          8.6670  -26.7510   -6.5020 O.2    32  THR32      -0.2866
      5  CB         6.1540  -25.3950   -5.1170 C.3    32  THR32       0.1770
      6  OG1        5.0530  -25.6180   -6.0030 O.3    32  THR32      -0.2211
      7  CG2        5.7230  -24.4320   -4.0250 C.3    32  THR32       0.0375
      8  N          8.2930  -24.7520    2.0340 N.3    39  SER39      -0.1202
      9  CA         7.3210  -24.1060    2.9210 C.3    39  SER39       0.2020
     10  C          7.7820  -22.7510    3.4580 C.2    39  SER39       0.2618
     11  O          7.0140  -21.7830    3.4730 O.2    39  SER39      -0.2717
     12  CB         7.0250  -25.0260    4.1050 C.3    39  SER39       0.2103
     13  OG         6.0110  -24.5390    4.9520 O.3    39  SER39      -0.2182
     14  N          9.0390  -22.7080    3.8980 N.am   40  LEU40      -0.1979
     15  CA         9.6300  -21.5400    4.5530 C.3    40  LEU40       0.1596
     16  C         10.0770  -20.4720    3.5570 C.2    40  LEU40       0.2287
     17  O         10.0470  -19.2840    3.8660 O.2    40  LEU40      -0.2864
     18  CB        10.8100  -21.9640    5.4440 C.3    40  LEU40       0.0297
     19  CG        10.6120  -22.8610    6.6840 C.3    40  LEU40       0.0022
     20  CD1        9.5400  -22.3200    7.6260 C.3    40  LEU40       0.0001
     21  CD2       10.3220  -24.3200    6.3170 C.3    40  LEU40       0.0001
     22  N          8.4440  -19.9130    0.7800 N.3    42  LEU42      -0.1231
     23  CA         7.1760  -19.2980    0.4060 C.3    42  LEU42       0.1693
     24  C          6.7610  -18.2010    1.3790 C.2    42  LEU42       0.2591
     25  O          6.3760  -17.1100    0.9600 O.2    42  LEU42      -0.2718
     26  CB         6.0720  -20.3530    0.3140 C.3    42  LEU42       0.0284
     27  CG         6.0900  -21.3360   -0.8550 C.3    42  LEU42       0.0019
     28  CD1        4.9670  -22.3360   -0.6760 C.3    42  LEU42       0.0001
     29  CD2        5.9740  -20.6210   -2.1970 C.3    42  LEU42       0.0001
     30  N          6.8370  -18.5040    2.6740 N.am   43  VAL43      -0.1980
     31  CA         6.5280  -17.5400    3.7250 C.3    43  VAL43       0.1595
     32  C          7.3990  -16.3030    3.5570 C.2    43  VAL43       0.2287
     33  O          6.8990  -15.1810    3.5750 O.2    43  VAL43      -0.2864
     34  CB         6.7590  -18.1280    5.1390 C.3    43  VAL43       0.0276
     35  CG1        6.3660  -17.1240    6.2070 C.3    43  VAL43       0.0022
     36  CG2        5.9800  -19.4150    5.3210 C.3    43  VAL43       0.0022
     37  N          6.3900  -14.3390    0.2170 N.3    46  ILE46      -0.1245
     38  CA         5.1210  -13.6310    0.3660 C.3    46  ILE46       0.1561
     39  C          5.2900  -12.3910    1.2440 C.2    46  ILE46       0.2260
     40  O          4.6760  -11.3560    0.9950 O.2    46  ILE46      -0.2867
     41  CB         4.0140  -14.5690    0.9310 C.3    46  ILE46       0.0252
     42  CG1        3.6570  -15.6840   -0.0710 C.3    46  ILE46       0.0019
     43  CG2        2.7780  -13.7910    1.3690 C.3    46  ILE46       0.0019
     44  CD1        3.3900  -15.2280   -1.5090 C.3    46  ILE46       0.0001
     45  N         -3.9780  -15.5150    3.5420 N.3    59  ASP59      -0.1239
     46  CA        -3.7410  -16.9410    3.3150 C.3    59  ASP59       0.1674
     47  C         -4.6700  -17.5270    2.2580 C.2    59  ASP59       0.2266
     48  O         -4.3080  -18.4880    1.5800 O.2    59  ASP59      -0.2867
     49  CB        -3.8660  -17.7210    4.6270 C.3    59  ASP59       0.1410
     50  CG        -2.6900  -17.4840    5.5700 C.2    59  ASP59       0.3668
     51  OD1       -1.5590  -17.2240    5.0930 O.co2  59  ASP59      -0.2456
     52  OD2       -2.8970  -17.5710    6.7990 O.co2  59  ASP59      -0.2456
     53  N         -2.9880  -16.4630   -1.0700 N.3    62  ALA62      -0.1231
     54  CA        -1.7090  -17.1430   -1.2620 C.3    62  ALA62       0.1694
     55  C         -1.8700  -18.5510   -1.8310 C.2    62  ALA62       0.2591
     56  O         -0.9340  -19.0990   -2.4000 O.2    62  ALA62      -0.2718
     57  CB        -0.9380  -17.1850    0.0360 C.3    62  ALA62       0.0304
     58  N         -3.0620  -19.1240   -1.6750 N.am   63  LEU63      -0.1980
     59  CA        -3.3990  -20.4350   -2.2400 C.3    63  LEU63       0.1596
     60  C         -3.4690  -20.4240   -3.7640 C.2    63  LEU63       0.2287
     61  O         -3.3700  -21.4740   -4.4060 O.2    63  LEU63      -0.2864
     62  CB        -4.7450  -20.9260   -1.6960 C.3    63  LEU63       0.0297
     63  CG        -4.8690  -21.3760   -0.2390 C.3    63  LEU63       0.0022
     64  CD1       -6.3150  -21.7370    0.0550 C.3    63  LEU63       0.0001
     65  CD2       -3.9540  -22.5500    0.0760 C.3    63  LEU63       0.0001
     66  N         -1.5540  -18.2860   -5.6650 N.3    65  ILE65      -0.1231
     67  CA        -0.3040  -17.7620   -6.2030 C.3    65  ILE65       0.1692
     68  C          0.6730  -18.9100   -6.4170 C.2    65  ILE65       0.2592
     69  O          1.4250  -19.2830   -5.5160 O.2    65  ILE65      -0.2718
     70  CB         0.2910  -16.6530   -5.3050 C.3    65  ILE65       0.0266
     71  CG1       -0.6380  -15.4360   -5.3080 C.3    65  ILE65       0.0019
     72  CG2        1.6910  -16.2560   -5.7770 C.3    65  ILE65       0.0020
     73  CD1       -0.4600  -14.5120   -4.1340 C.3    65  ILE65       0.0001
     74  N          0.6300  -19.4760   -7.6180 N.am   66  ASN66      -0.1974
     75  CA         1.4930  -20.5910   -7.9840 C.3    66  ASN66       0.1688
     76  C          2.6640  -20.1550   -8.8530 C.2    66  ASN66       0.2292
     77  O          3.7420  -20.7330   -8.7690 O.2    66  ASN66      -0.2864
     78  CB         0.6960  -21.6850   -8.7100 C.3    66  ASN66       0.1181
     79  CG        -0.3810  -22.3350   -7.8330 C.2    66  ASN66       0.2629
     80  OD1       -1.2610  -23.0340   -8.3450 O.2    66  ASN66      -0.2716
     81  ND2       -0.3140  -22.1170   -6.5170 N.am   66  ASN66      -0.0877
@<TRIPOS>BOND
     1    76    77    2
     2    76    75    1
     3    78    75    1
     4    78    79    1
     5    80    79    2
     6    75    74    1
     7    79    81   am
     8    74    68   am
     9     3     4    2
    10     3     2    1
    11     1     2    1
    12    68    67    1
    13    68    69    2
    14    67    66    1
    15    67    70    1
    16     6     5    1
    17     2     5    1
    18    72    70    1
    19    71    70    1
    20    71    73    1
    21     5     7    1
    22    61    60    2
    23    60    59    1
    24    56    55    2
    25    59    62    1
    26    59    58    1
    27    29    27    1
    28    55    58   am
    29    55    54    1
    30    62    63    1
    31    44    42    1
    32    54    53    1
    33    54    57    1
    34    27    28    1
    35    27    26    1
    36    63    64    1
    37    63    65    1
    38    42    41    1
    39    37    38    1
    40    26    23    1
    41    38    41    1
    42    38    39    1
    43    23    22    1
    44    23    24    1
    45    41    43    1
    46    25    24    2
    47    40    39    2
    48    24    30   am
    49    48    47    2
    50     8     9    1
    51    47    46    1
    52    30    31    1
    53     9    10    1
    54     9    12    1
    55    46    45    1
    56    46    49    1
    57    10    11    2
    58    10    14   am
    59    16    17    2
    60    16    15    1
    61    32    33    2
    62    32    31    1
    63    31    34    1
    64    14    15    1
    65    12    13    1
    66    15    18    1
    67    49    50    1
    68    51    50   ar
    69    34    36    1
    70    34    35    1
    71    18    19    1
    72    50    52   ar
    73    21    19    1
    74    19    20    1
