@<TRIPOS>MOLECULE
tmp/3gznD00.pdb
 198 188 0 0 0
SMALL
GASTEIGER

@<TRIPOS>ATOM
      1  N         12.3580   83.6540   35.7940 N.3    43  ILE43      -0.1231
      2  CA        11.4670   83.9720   36.9040 C.3    43  ILE43       0.1692
      3  C         11.6710   85.3810   37.4260 C.2    43  ILE43       0.2592
      4  O         12.7140   85.7030   38.0010 O.2    43  ILE43      -0.2718
      5  CB        11.5340   82.9620   38.0560 C.3    43  ILE43       0.0266
      6  CG1       11.1770   81.5540   37.5560 C.3    43  ILE43       0.0019
      7  CG2       10.5960   83.4010   39.1830 C.3    43  ILE43       0.0020
      8  CD1       11.1920   80.4710   38.6220 C.3    43  ILE43       0.0001
      9  N         10.6460   86.2060   37.2180 N.am   44  GLY44      -0.1957
     10  CA        10.6470   87.5930   37.6320 C.3    44  GLY44       0.1869
     11  C         10.9130   88.4890   36.4480 C.2    44  GLY44       0.2309
     12  O         11.8750   88.2790   35.7160 O.2    44  GLY44      -0.2863
     13  N         11.4600   91.7870   36.8550 N.3    46  GLY46      -0.1210
     14  CA        11.9340   93.0150   37.4790 C.3    46  GLY46       0.1956
     15  C         13.2390   93.5220   36.8950 C.2    46  GLY46       0.2612
     16  O         13.4860   93.3910   35.6910 O.2    46  GLY46      -0.2717
     17  N         14.0650   94.1150   37.7590 N.am   47  GLY47      -0.1942
     18  CA        15.4100   94.5580   37.4020 C.3    47  GLY47       0.2014
     19  C         16.2270   93.4530   36.7480 C.2    47  GLY47       0.2638
     20  O         16.5680   93.5440   35.5680 O.2    47  GLY47      -0.2714
     21  N         16.5280   92.3980   37.5010 N.am   48  LEU48      -0.1977
     22  CA        17.2690   91.2740   36.9390 C.3    48  LEU48       0.1596
     23  C         16.5270   90.6250   35.7760 C.2    48  LEU48       0.2287
     24  O         17.1150   90.3350   34.7450 O.2    48  LEU48      -0.2864
     25  CB        17.5520   90.2290   38.0090 C.3    48  LEU48       0.0297
     26  CG        18.7250   90.4300   38.9550 C.3    48  LEU48       0.0022
     27  CD1       18.5640   89.4470   40.0610 C.3    48  LEU48       0.0001
     28  CD2       20.0230   90.1910   38.2360 C.3    48  LEU48       0.0001
     29  N          7.5100   84.3480   34.4650 N.3    67  ILE67      -0.1231
     30  CA         6.5120   84.4670   35.5010 C.3    67  ILE67       0.1692
     31  C          6.8620   85.7110   36.3090 C.2    67  ILE67       0.2592
     32  O          8.0210   85.9100   36.6850 O.2    67  ILE67      -0.2718
     33  CB         6.4640   83.2140   36.4120 C.3    67  ILE67       0.0266
     34  CG1        6.2240   81.9470   35.5800 C.3    67  ILE67       0.0019
     35  CG2        5.3750   83.3570   37.4700 C.3    67  ILE67       0.0020
     36  CD1        6.7130   80.6740   36.2370 C.3    67  ILE67       0.0001
     37  N          5.8580   86.5560   36.5290 N.am   68  ASP68      -0.1960
     38  CA         5.9560   87.6760   37.4510 C.3    68  ASP68       0.1840
     39  C          4.5420   88.0570   37.8850 C.2    68  ASP68       0.2622
     40  O          3.6020   88.0280   37.0870 O.2    68  ASP68      -0.2715
     41  CB         6.6910   88.8470   36.8100 C.3    68  ASP68       0.1450
     42  CG         7.0840   89.9150   37.8130 C.2    68  ASP68       0.3671
     43  OD1        6.1930   90.4520   38.5010 O.co2  68  ASP68      -0.2456
     44  OD2        8.2840   90.2460   37.8960 O.co2  68  ASP68      -0.2456
     45  N          4.4020   88.3960   39.1600 N.am   69  MET69      -0.1963
     46  CA         3.0970   88.5840   39.7750 C.3    69  MET69       0.1736
     47  C          2.7200   90.0510   39.9920 C.2    69  MET69       0.2616
     48  O          1.5470   90.3820   40.1660 O.2    69  MET69      -0.2715
     49  CB         3.0390   87.8220   41.0950 C.3    69  MET69       0.0427
     50  CG         3.9970   88.3110   42.1630 C.3    69  MET69       0.0599
     51  SD         3.4280   87.8110   43.7980 S.3    69  MET69      -0.1393
     52  CE         4.3940   88.9230   44.8320 C.3    69  MET69       0.0692
     53  N          3.7290   90.9160   39.9790 N.am   70  ASP70      -0.1971
     54  CA         3.5650   92.3450   40.2140 C.3    70  ASP70       0.1709
     55  C          3.0140   93.0810   38.9910 C.2    70  ASP70       0.2293
     56  O          3.0780   92.5880   37.8550 O.2    70  ASP70      -0.2864
     57  CB         4.9170   92.9580   40.5890 C.3    70  ASP70       0.1436
     58  CG         5.2340   92.8610   42.0800 C.2    70  ASP70       0.3671
     59  OD1        4.6870   91.9860   42.7880 O.co2  70  ASP70      -0.2456
     60  OD2        6.0600   93.6790   42.5450 O.co2  70  ASP70      -0.2456
     61  N         15.3180  101.4480   36.1070 N.3    79  ARG79      -0.1231
     62  CA        16.1330  100.2950   35.7110 C.3    79  ARG79       0.1694
     63  C         15.3830   99.2390   34.8960 C.2    79  ARG79       0.2591
     64  O         15.9680   98.5860   34.0340 O.2    79  ARG79      -0.2718
     65  CB        16.7810   99.6490   36.9380 C.3    79  ARG79       0.0321
     66  CG        15.8170   98.9890   37.8720 C.3    79  ARG79       0.0489
     67  CD        16.2950   99.0440   39.2960 C.3    79  ARG79       0.2205
     68  NE        15.3730   98.2970   40.1430 N.pl3  79  ARG79      -0.0865
     69  CZ        14.2160   98.7610   40.6110 C.cat  79  ARG79       0.5346
     70  NH1       13.8110   99.9960   40.3490 N.pl3  79  ARG79       0.1354
     71  NH2       13.4580   97.9790   41.3570 N.pl3  79  ARG79       0.1354
     72  N         14.0930   99.0680   35.1610 N.am   80  GLN80      -0.1979
     73  CA        13.3110   98.0520   34.4660 C.3    80  GLN80       0.1601
     74  C         12.9300   98.5380   33.0550 C.2    80  GLN80       0.2287
     75  O         11.7920   98.9280   32.7810 O.2    80  GLN80      -0.2864
     76  CB        12.1280   97.6210   35.3370 C.3    80  GLN80       0.0394
     77  CG        12.6050   97.0960   36.7060 C.3    80  GLN80       0.0908
     78  CD        11.4940   96.6920   37.6580 C.2    80  GLN80       0.2608
     79  OE1       10.4940   96.0950   37.2660 O.2    80  GLN80      -0.2717
     80  NE2       11.6810   96.9960   38.9280 N.am   80  GLN80      -0.0878
     81  N          3.7730   93.2950   34.6130 N.3    92  LYS92      -0.1245
     82  CA         5.1730   93.1970   34.1690 C.3    92  LYS92       0.1561
     83  C          5.4280   92.1380   33.0970 C.2    92  LYS92       0.2260
     84  O          5.9400   92.4470   32.0270 O.2    92  LYS92      -0.2867
     85  CB         6.0960   92.9340   35.3620 C.3    92  LYS92       0.0271
     86  CG         6.2150   94.0960   36.3390 C.3    92  LYS92       0.0035
     87  CD         7.0000   93.7080   37.5720 C.3    92  LYS92       0.0206
     88  CE         7.5820   94.9270   38.2510 C.3    92  LYS92       0.1093
     89  NZ         8.5380   94.5620   39.3440 N.3    92  LYS92      -0.1314
     90  N          1.3490   85.5600   37.0020 N.3   114  ASN114     -0.1225
     91  CA         1.1360   84.4810   37.9520 C.3   114  ASN114      0.1785
     92  C          2.0750   84.5800   39.1410 C.2   114  ASN114      0.2597
     93  O          3.1230   85.2240   39.0570 O.2   114  ASN114     -0.2718
     94  CB         1.3310   83.1280   37.2490 C.3   114  ASN114      0.1169
     95  CG         0.1420   82.7450   36.3750 C.2   114  ASN114      0.2627
     96  OD1        0.2500   82.6320   35.1480 O.2   114  ASN114     -0.2716
     97  ND2       -1.0120   82.5720   37.0060 N.am  114  ASN114     -0.0877
     98  N          1.6820   83.9550   40.2500 N.am  115  LYS115     -0.1966
     99  CA         2.5880   83.6760   41.3590 C.3   115  LYS115      0.1728
    100  C          3.2650   82.3440   41.0410 C.2   115  LYS115      0.2616
    101  O          2.6880   81.5070   40.3560 O.2   115  LYS115     -0.2715
    102  CB         1.8100   83.5720   42.6730 C.3   115  LYS115      0.0311
    103  CG         1.0740   84.8540   43.1060 C.3   115  LYS115      0.0038
    104  CD         0.2960   84.6950   44.4310 C.3   115  LYS115      0.0206
    105  CE         1.2350   84.3420   45.5880 C.3   115  LYS115      0.1093
    106  NZ         0.7250   84.6760   46.9440 N.3   115  LYS115     -0.1314
    107  N          4.4890   82.1390   41.5110 N.am  116  ILE116     -0.1963
    108  CA         5.1610   80.8590   41.2540 C.3   116  ILE116      0.1727
    109  C          4.4550   79.7130   41.9830 C.2   116  ILE116      0.2616
    110  O          4.4630   78.5750   41.5160 O.2   116  ILE116     -0.2715
    111  CB         6.6860   80.8840   41.5530 C.3   116  ILE116      0.0290
    112  CG1        6.9750   81.4180   42.9550 C.3   116  ILE116      0.0022
    113  CG2        7.4100   81.7010   40.5080 C.3   116  ILE116      0.0023
    114  CD1        8.3970   81.1830   43.4180 C.3   116  ILE116      0.0001
    115  N          3.8240   80.0320   43.1110 N.am  117  GLN117     -0.1977
    116  CA         3.0160   79.0710   43.8480 C.3   117  GLN117      0.1601
    117  C          1.8340   78.5230   43.0260 C.2   117  GLN117      0.2287
    118  O          1.3740   77.4010   43.2760 O.2   117  GLN117     -0.2864
    119  CB         2.4830   79.6870   45.1410 C.3   117  GLN117      0.0394
    120  CG         3.5370   80.2250   46.0860 C.3   117  GLN117      0.0908
    121  CD         3.6920   81.7310   46.0010 C.2   117  GLN117      0.2608
    122  OE1        3.9260   82.2860   44.9250 O.2   117  GLN117     -0.2717
    123  NE2        3.5780   82.4030   47.1470 N.am  117  GLN117     -0.0878
    124  N         15.2450   85.8920   38.8710 N.3   133  GLY133     -0.1210
    125  CA        15.6170   87.1060   39.5810 C.3   133  GLY133      0.1956
    126  C         14.5110   87.5260   40.5320 C.2   133  GLY133      0.2612
    127  O         13.5790   88.2230   40.1340 O.2   133  GLY133     -0.2717
    128  N         14.6260   87.1180   41.7970 N.am  134  LEU134     -0.1965
    129  CA        13.5500   87.3120   42.7680 C.3   134  LEU134      0.1728
    130  C         13.8050   88.3820   43.8320 C.2   134  LEU134      0.2616
    131  O         14.9420   88.7220   44.1440 O.2   134  LEU134     -0.2715
    132  CB        13.1700   85.9760   43.4360 C.3   134  LEU134      0.0311
    133  CG        12.4300   84.8900   42.6300 C.3   134  LEU134      0.0022
    134  CD1       12.7320   83.4890   43.1550 C.3   134  LEU134      0.0001
    135  CD2       10.9270   85.1420   42.6090 C.3   134  LEU134      0.0001
    136  N         12.6910   88.9110   44.3410 N.am  135  ASP135     -0.1957
    137  CA        12.5800   89.8290   45.4750 C.3   135  ASP135      0.1840
    138  C         13.3530   89.4100   46.7140 C.2   135  ASP135      0.2622
    139  O         14.1890   90.1550   47.2190 O.2   135  ASP135     -0.2715
    140  CB        11.1120   89.8430   45.9210 C.3   135  ASP135      0.1450
    141  CG        10.3310   90.9850   45.3470 C.2   135  ASP135      0.3671
    142  OD1       10.9570   91.9580   44.8750 O.co2 135  ASP135     -0.2456
    143  OD2        9.0760   90.9230   45.3940 O.co2 135  ASP135     -0.2456
    144  N         13.0380   88.2070   47.1950 N.am  136  SER136     -0.1950
    145  CA        13.1610   87.8510   48.5970 C.3   136  SER136      0.1924
    146  C         13.7870   86.4840   48.7510 C.2   136  SER136      0.2314
    147  O         13.8900   85.7440   47.7770 O.2   136  SER136     -0.2863
    148  CB        11.7620   87.8030   49.2080 C.3   136  SER136      0.2116
    149  OG        10.9870   86.7620   48.6190 O.3   136  SER136     -0.2180
    150  N         12.5720   83.9390   50.8390 N.3   138  ILE138     -0.1231
    151  CA        11.4990   82.9440   50.8930 C.3   138  ILE138      0.1692
    152  C         11.1470   82.3630   49.5220 C.2   138  ILE138      0.2591
    153  O         11.0270   81.1540   49.3920 O.2   138  ILE138     -0.2718
    154  CB        10.2470   83.4730   51.6580 C.3   138  ILE138      0.0266
    155  CG1        9.0860   82.4800   51.5720 C.3   138  ILE138      0.0019
    156  CG2        9.8270   84.8380   51.1460 C.3   138  ILE138      0.0020
    157  CD1        8.2220   82.4160   52.8100 C.3   138  ILE138      0.0001
    158  N         11.0180   83.2100   48.5010 N.am  139  ALA139     -0.1980
    159  CA        10.6700   82.7460   47.1530 C.3   139  ALA139      0.1597
    160  C         11.7850   81.9170   46.4970 C.2   139  ALA139      0.2287
    161  O         11.5110   80.9270   45.8100 O.2   139  ALA139     -0.2864
    162  CB        10.2750   83.9100   46.2730 C.3   139  ALA139      0.0319
    163  N         11.4870   78.6110   47.8840 N.3   142  TRP142     -0.1241
    164  CA        10.3590   77.8790   47.3140 C.3   142  TRP142      0.1605
    165  C         10.6910   77.1960   45.9830 C.2   142  TRP142      0.2264
    166  O         10.4470   76.0010   45.8150 O.2   142  TRP142     -0.2867
    167  CB         9.1440   78.7920   47.1690 C.3   142  TRP142      0.0550
    168  CG         7.8380   78.0640   46.9820 C.ar  142  TRP142      0.0003
    169  CD1        6.9030   77.7950   47.9470 C.ar  142  TRP142      0.0946
    170  CD2        7.3190   77.5320   45.7620 C.ar  142  TRP142      0.0152
    171  NE1        5.8300   77.1190   47.4030 N.ar  142  TRP142     -0.2442
    172  CE2        6.0550   76.9450   46.0630 C.ar  142  TRP142      0.0810
    173  CE3        7.7900   77.4900   44.4440 C.ar  142  TRP142      0.0012
    174  CZ2        5.2630   76.3130   45.0950 C.ar  142  TRP142      0.0191
    175  CZ3        7.0000   76.8610   43.4750 C.ar  142  TRP142      0.0001
    176  CH2        5.7440   76.2810   43.8090 C.ar  142  TRP142      0.0015
    177  N         20.7210   91.0300   43.7340 N.3   171  THR171     -0.1218
    178  CA        21.4060   92.3240   43.8310 C.3   171  THR171      0.1862
    179  C         20.9100   93.1420   45.0130 C.2   171  THR171      0.2287
    180  O         19.7530   93.0370   45.4130 O.2   171  THR171     -0.2866
    181  CB        21.1720   93.2150   42.5820 C.3   171  THR171      0.1770
    182  OG1       19.7620   93.3410   42.3420 O.3   171  THR171     -0.2211
    183  CG2       21.8790   92.6620   41.3320 C.3   171  THR171      0.0375
    184  N         22.3260   95.4770   38.5550 N.3   285  ASN285     -0.1240
    185  CA        21.3600   94.5340   37.9960 C.3   285  ASN285      0.1653
    186  C         21.7830   93.9210   36.6620 C.2   285  ASN285      0.2266
    187  O         21.6240   92.7180   36.4510 O.2   285  ASN285     -0.2867
    188  CB        19.9950   95.1920   37.8670 C.3   285  ASN285      0.1155
    189  CG        19.1740   95.0270   39.1040 C.2   285  ASN285      0.2627
    190  OD1       19.1210   93.9410   39.6680 O.2   285  ASN285     -0.2716
    191  ND2       18.5220   96.0960   39.5420 N.am  285  ASN285     -0.0877
    192  N          5.4260   77.3060   54.3490 N.3   416  VAL416     -0.1245
    193  CA         5.3040   78.1460   53.1460 C.3   416  VAL416      0.1561
    194  C          6.6140   78.3690   52.3710 C.2   416  VAL416      0.2260
    195  O          6.5790   78.6290   51.1650 O.2   416  VAL416     -0.2867
    196  CB         4.5970   79.5020   53.4160 C.3   416  VAL416      0.0252
    197  CG1        3.0930   79.2960   53.5890 C.3   416  VAL416      0.0019
    198  CG2        5.2050   80.2230   54.6180 C.3   416  VAL416      0.0019
@<TRIPOS>BOND
     1    84    83    2
     2    75    74    2
     3    74    73    1
     4    83    82    1
     5    64    63    2
     6    82    81    1
     7    82    85    1
     8    29    30    1
     9    73    72    1
    10    73    76    1
    11    24    23    2
    12    63    72   am
    13    63    62    1
    14    96    95    2
    15    76    77    1
    16    85    86    1
    17    30    31    1
    18    30    33    1
    19    20    19    2
    20    34    36    1
    21    34    33    1
    22    16    15    2
    23    62    61    1
    24    62    65    1
    25    12    11    2
    26    23    22    1
    27     1     2    1
    28    31    37   am
    29    31    32    2
    30    86    87    1
    31    95    97   am
    32    95    94    1
    33    33    35    1
    34    11    10    1
    35   187   186    2
    36    37    38    1
    37   186   185    1
    38    77    78    1
    39    19    18    1
    40    19    21   am
    41    41    38    1
    42    41    42    1
    43    13    14    1
    44    15    14    1
    45    15    17   am
    46     2     3    1
    47     2     5    1
    48    65    66    1
    49    22    21    1
    50    22    25    1
    51    90    91    1
    52    40    39    2
    53     9     3   am
    54     9    10    1
    55    94    91    1
    56    79    78    2
    57    18    17    1
    58     3     4    2
    59    38    39    1
    60     6     5    1
    61     6     8    1
    62    87    88    1
    63    78    80   am
    64    42    44   ar
    65    42    43   ar
    66    56    55    2
    67   188   185    1
    68   188   189    1
    69    66    67    1
    70    39    45   am
    71    91    92    1
    72   185   184    1
    73    25    26    1
    74     5     7    1
    75    28    26    1
    76    88    89    1
    77   124   125    1
    78    26    27    1
    79    55    54    1
    80    93    92    2
    81   189   191   am
    82   189   190    2
    83    92    98   am
    84    45    46    1
    85    67    68    1
    86   125   126    1
    87    46    47    1
    88    46    49    1
    89    53    47   am
    90    53    54    1
    91    47    48    2
    92   127   126    2
    93    68    69    2
    94    54    57    1
    95    98    99    1
    96    70    69    1
    97   101   100    2
    98   113   111    1
    99   126   128   am
   100    57    58    1
   101    69    71    1
   102   100    99    1
   103   100   107   am
   104    49    50    1
   105   108   107    1
   106   108   111    1
   107   108   109    1
   108   183   181    1
   109    99   102    1
   110   110   109    2
   111   111   112    1
   112   128   129    1
   113   109   115   am
   114    58    60   ar
   115    58    59   ar
   116    50    51    1
   117   182   181    1
   118   181   178    1
   119   135   133    1
   120   133   134    1
   121   133   132    1
   122   102   103    1
   123   129   132    1
   124   129   130    1
   125   112   114    1
   126   117   118    2
   127   117   116    1
   128   103   104    1
   129   115   116    1
   130   175   176   ar
   131   175   173   ar
   132   177   178    1
   133    51    52    1
   134   176   174   ar
   135   178   179    1
   136   130   131    2
   137   130   136   am
   138   116   119    1
   139   136   137    1
   140   104   105    1
   141   173   170   ar
   142   142   141   ar
   143   122   121    2
   144   179   180    2
   145   174   172   ar
   146   119   120    1
   147   141   143   ar
   148   141   140    1
   149   137   140    1
   150   137   138    1
   151   105   106    1
   152   170   172   ar
   153   170   168   ar
   154   161   160    2
   155   166   165    2
   156   165   164    1
   157   121   120    1
   158   121   123   am
   159   172   171   ar
   160   162   159    1
   161   160   159    1
   162   138   144   am
   163   138   139    2
   164   168   167    1
   165   168   169   ar
   166   159   158    1
   167   167   164    1
   168   144   145    1
   169   164   163    1
   170   171   169   ar
   171   147   146    2
   172   158   152   am
   173   145   146    1
   174   145   148    1
   175   149   148    1
   176   153   152    2
   177   152   151    1
   178   150   151    1
   179   151   154    1
   180   156   154    1
   181   195   194    2
   182   155   154    1
   183   155   157    1
   184   194   193    1
   185   193   196    1
   186   193   192    1
   187   196   197    1
   188   196   198    1
