@<TRIPOS>MOLECULE
tmp/3gzoH00.pdb
 76 72 0 0 0
SMALL
GASTEIGER

@<TRIPOS>ATOM
      1  N         66.3810  -46.2770   21.9390 N.3    64  PHE64      -0.1241
      2  CA        66.9960  -46.7960   23.1720 C.3    64  PHE64       0.1605
      3  C         65.9090  -46.9240   24.2480 C.2    64  PHE64       0.2264
      4  O         65.2500  -45.9440   24.5970 O.2    64  PHE64      -0.2867
      5  CB        68.1610  -45.8860   23.6210 C.3    64  PHE64       0.0534
      6  CG        68.8330  -46.3160   24.9130 C.ar   64  PHE64      -0.0203
      7  CD1       69.1770  -47.6400   25.1410 C.ar   64  PHE64      -0.0042
      8  CD2       69.1520  -45.3800   25.8810 C.ar   64  PHE64      -0.0042
      9  CE1       69.7980  -48.0210   26.3160 C.ar   64  PHE64      -0.0003
     10  CE2       69.7790  -45.7570   27.0620 C.ar   64  PHE64      -0.0003
     11  CZ        70.1030  -47.0800   27.2800 C.ar   64  PHE64      -0.0000
     12  N         65.7850  -49.0580   27.6330 N.3    66  PRO66      -0.2102
     13  CA        66.2570  -50.0220   28.6380 C.3    66  PRO66       0.1504
     14  C         65.1750  -50.3850   29.6620 C.2    66  PRO66       0.2575
     15  O         65.2820  -51.4300   30.3050 O.2    66  PRO66      -0.2718
     16  CB        67.3930  -49.2830   29.3510 C.3    66  PRO66       0.0282
     17  CG        67.2010  -47.8400   29.0400 C.3    66  PRO66       0.0208
     18  CD        66.2370  -47.6820   27.9090 C.3    66  PRO66       0.0893
     19  N         64.1690  -49.5280   29.8230 N.am   67  LEU67      -0.1980
     20  CA        63.0710  -49.8030   30.7440 C.3    67  LEU67       0.1596
     21  C         61.8630  -50.4540   30.0500 C.2    67  LEU67       0.2287
     22  O         60.8050  -50.5970   30.6520 O.2    67  LEU67      -0.2864
     23  CB        62.6520  -48.5280   31.4740 C.3    67  LEU67       0.0297
     24  CG        63.6510  -48.1270   32.5550 C.3    67  LEU67       0.0022
     25  CD1       63.3140  -46.7700   33.1750 C.3    67  LEU67       0.0001
     26  CD2       63.6920  -49.2160   33.6000 C.3    67  LEU67       0.0001
     27  N         63.6700  -44.2030   26.9430 N.3    81  VAL81      -0.1245
     28  CA        64.6890  -43.2760   27.4180 C.3    81  VAL81       0.1561
     29  C         65.1770  -42.3890   26.2740 C.2    81  VAL81       0.2260
     30  O         65.4260  -41.1980   26.4580 O.2    81  VAL81      -0.2867
     31  CB        65.8980  -43.9930   28.0660 C.3    81  VAL81       0.0252
     32  CG1       67.0460  -43.0170   28.2280 C.3    81  VAL81       0.0019
     33  CG2       65.5180  -44.5610   29.4350 C.3    81  VAL81       0.0019
     34  N         65.4320  -37.4500   31.7420 N.3   103  VAL103     -0.1245
     35  CA        65.3310  -38.9040   31.7050 C.3   103  VAL103      0.1561
     36  C         66.6300  -39.5470   31.1990 C.2   103  VAL103      0.2260
     37  O         67.0610  -40.5860   31.6990 O.2   103  VAL103     -0.2867
     38  CB        64.1230  -39.3630   30.8500 C.3   103  VAL103      0.0252
     39  CG1       64.2620  -40.8390   30.4410 C.3   103  VAL103      0.0019
     40  CG2       62.8000  -39.1190   31.6040 C.3   103  VAL103      0.0019
     41  N         70.7610  -39.7500   30.6320 N.3   105  SER105     -0.1217
     42  CA        71.8940  -39.4000   31.4790 C.3   105  SER105      0.1889
     43  C         73.2220  -39.6080   30.7470 C.2   105  SER105      0.2288
     44  O         73.3170  -40.4360   29.8430 O.2   105  SER105     -0.2866
     45  CB        71.8810  -40.2440   32.7570 C.3   105  SER105      0.2089
     46  OG        72.8430  -39.7590   33.6800 O.3   105  SER105     -0.2183
     47  N         75.8190  -40.4470   32.6070 N.3   107  SER107     -0.1217
     48  CA        76.5090  -41.4520   33.4170 C.3   107  SER107      0.1889
     49  C         75.6510  -42.6810   33.7050 C.2   107  SER107      0.2288
     50  O         74.4870  -42.7660   33.2860 O.2   107  SER107     -0.2866
     51  CB        77.0950  -40.8630   34.7080 C.3   107  SER107      0.2089
     52  OG        76.4210  -39.6860   35.0960 O.3   107  SER107     -0.2183
     53  N         73.9470  -48.3170   31.8030 N.3   110  HIS110     -0.1226
     54  CA        73.1720  -48.1970   30.5460 C.3   110  HIS110      0.1752
     55  C         73.6540  -47.0220   29.6870 C.2   110  HIS110      0.2596
     56  O         74.5550  -47.1820   28.8790 O.2   110  HIS110     -0.2718
     57  CB        71.6700  -48.0500   30.8380 C.3   110  HIS110      0.0759
     58  CG        71.0790  -49.2180   31.5700 C.ar  110  HIS110      0.0818
     59  ND1       69.7860  -49.6520   31.3610 N.ar  110  HIS110     -0.2268
     60  CD2       71.6060  -50.0460   32.5060 C.ar  110  HIS110      0.1154
     61  CE1       69.5360  -50.6890   32.1420 C.ar  110  HIS110      0.1986
     62  NE2       70.6250  -50.9510   32.8460 N.ar  110  HIS110     -0.2212
     63  N         73.0380  -45.8530   29.8540 N.am  111  CYS111     -0.1956
     64  CA        73.6330  -44.6040   29.3810 C.3   111  CYS111      0.1843
     65  C         73.5610  -44.3700   27.8590 C.2   111  CYS111      0.2625
     66  O         73.8050  -45.2790   27.0720 O.2   111  CYS111     -0.2714
     67  CB        75.0850  -44.5550   29.8290 C.3   111  CYS111      0.0997
     68  SG        75.6910  -42.8890   29.9230 S.3   111  CYS111     -0.0797
     69  N         73.2510  -43.1430   27.4430 N.am  112  ILE112     -0.1977
     70  CA        73.1500  -42.8340   26.0140 C.3   112  ILE112      0.1596
     71  C         74.5410  -42.7050   25.3810 C.2   112  ILE112      0.2287
     72  O         74.6820  -42.7170   24.1530 O.2   112  ILE112     -0.2864
     73  CB        72.3340  -41.5360   25.7500 C.3   112  ILE112      0.0276
     74  CG1       73.0320  -40.3330   26.3790 C.3   112  ILE112      0.0022
     75  CG2       70.9110  -41.6710   26.2870 C.3   112  ILE112      0.0022
     76  CD1       72.4750  -38.9680   25.9200 C.3   112  ILE112      0.0001
@<TRIPOS>BOND
     1     1     2    1
     2     2     5    1
     3     2     3    1
     4     5     6    1
     5    72    71    2
     6     3     4    2
     7     6     7   ar
     8     6     8   ar
     9     7     9   ar
    10    71    70    1
    11    73    70    1
    12    73    75    1
    13    73    74    1
    14     8    10   ar
    15    76    74    1
    16    70    69    1
    17    29    30    2
    18    29    28    1
    19     9    11   ar
    20    27    28    1
    21    10    11   ar
    22    66    65    2
    23    28    31    1
    24    69    65   am
    25    12    18    1
    26    12    13    1
    27    65    64    1
    28    18    17    1
    29    31    32    1
    30    31    33    1
    31    13    16    1
    32    13    14    1
    33    56    55    2
    34    17    16    1
    35    64    67    1
    36    64    63    1
    37    14    19   am
    38    14    15    2
    39    55    63   am
    40    55    54    1
    41    19    20    1
    42    67    68    1
    43    44    43    2
    44    21    22    2
    45    21    20    1
    46    39    38    1
    47    54    57    1
    48    54    53    1
    49    41    42    1
    50    20    23    1
    51    43    42    1
    52    57    58    1
    53    38    40    1
    54    38    35    1
    55    36    37    2
    56    36    35    1
    57    59    58   ar
    58    59    61   ar
    59    23    24    1
    60    42    45    1
    61    58    60   ar
    62    35    34    1
    63    61    62   ar
    64    60    62   ar
    65    24    25    1
    66    24    26    1
    67    47    48    1
    68    45    46    1
    69    50    49    2
    70    48    49    1
    71    48    51    1
    72    51    52    1
