@<TRIPOS>MOLECULE
tmp/3gzxA00.pdb
 153 147 0 0 0
SMALL
GASTEIGER

@<TRIPOS>ATOM
      1  N        -23.3870   91.8240   10.0250 N.3   209  GLN209     -0.1231
      2  CA       -23.8790   92.6080    8.8930 C.3   209  GLN209      0.1698
      3  C        -25.3240   92.2620    8.5440 C.2   209  GLN209      0.2592
      4  O        -26.1470   93.1510    8.3210 O.2   209  GLN209     -0.2718
      5  CB       -22.9830   92.4350    7.6650 C.3   209  GLN209      0.0381
      6  CG       -23.0820   93.5930    6.6830 C.3   209  GLN209      0.0905
      7  CD       -22.6890   93.2110    5.2700 C.2   209  GLN209      0.2608
      8  OE1      -23.3710   92.4230    4.6130 O.2   209  GLN209     -0.2717
      9  NE2      -21.5930   93.7830    4.7880 N.am  209  GLN209     -0.0878
     10  N        -25.6220   90.9670    8.5090 N.am  210  PHE210     -0.1976
     11  CA       -26.9670   90.4890    8.2100 C.3   210  PHE210      0.1639
     12  C        -27.8880   90.6070    9.4280 C.2   210  PHE210      0.2290
     13  O        -29.1100   90.5990    9.2900 O.2   210  PHE210     -0.2864
     14  CB       -26.9170   89.0460    7.6940 C.3   210  PHE210      0.0560
     15  CG       -26.4520   88.9220    6.2640 C.ar  210  PHE210     -0.0200
     16  CD1      -25.1430   89.2390    5.9060 C.ar  210  PHE210     -0.0042
     17  CD2      -27.3220   88.4680    5.2770 C.ar  210  PHE210     -0.0042
     18  CE1      -24.7140   89.1230    4.5860 C.ar  210  PHE210     -0.0003
     19  CE2      -26.9010   88.3450    3.9530 C.ar  210  PHE210     -0.0003
     20  CZ       -25.5950   88.6730    3.6080 C.ar  210  PHE210     -0.0000
     21  N        -26.8360   95.4040   10.2190 N.3   213  ASP213     -0.1225
     22  CA       -26.1370   96.3920    9.3970 C.3   213  ASP213      0.1805
     23  C        -26.8170   96.7250    8.0610 C.2   213  ASP213      0.2597
     24  O        -26.3860   96.2700    7.0010 O.2   213  ASP213     -0.2718
     25  CB       -24.6780   95.9590    9.1880 C.3   213  ASP213      0.1424
     26  CG       -23.7870   97.0780    8.6680 C.2   213  ASP213      0.3668
     27  OD1      -24.2600   98.2210    8.4980 O.co2 213  ASP213     -0.2456
     28  OD2      -22.5930   96.8040    8.4280 O.co2 213  ASP213     -0.2456
     29  N        -27.8780   97.5250    8.1220 N.am  214  MET214     -0.1979
     30  CA       -28.4490   98.1300    6.9190 C.3   214  MET214      0.1605
     31  C        -27.6440   99.3860    6.5770 C.2   214  MET214      0.2287
     32  O        -27.6420   99.8530    5.4330 O.2   214  MET214     -0.2864
     33  CB       -29.9210   98.4850    7.1350 C.3   214  MET214      0.0413
     34  CG       -30.6350   98.9670    5.8780 C.3   214  MET214      0.0598
     35  SD       -31.0610   97.6400    4.7360 S.3   214  MET214     -0.1393
     36  CE       -32.6110   97.0970    5.4450 C.3   214  MET214      0.0692
     37  N        -24.5090   99.9670    6.0700 N.3   216  HIS216     -0.1226
     38  CA       -23.5460   99.8540    4.9700 C.3   216  HIS216      0.1752
     39  C        -24.2080   99.9750    3.5920 C.2   216  HIS216      0.2595
     40  O        -23.6490  100.5910    2.6830 O.2   216  HIS216     -0.2718
     41  CB       -22.7220   98.5620    5.0860 C.3   216  HIS216      0.0759
     42  CG       -23.3910   97.3530    4.5090 C.ar  216  HIS216      0.0818
     43  ND1      -24.4750   96.7450    5.1020 N.ar  216  HIS216     -0.2268
     44  CD2      -23.1230   96.6370    3.3910 C.ar  216  HIS216      0.1154
     45  CE1      -24.8510   95.7100    4.3720 C.ar  216  HIS216      0.1986
     46  NE2      -24.0450   95.6210    3.3300 N.ar  216  HIS216     -0.2212
     47  N        -25.4000   99.3960    3.4550 N.am  217  ALA217     -0.1980
     48  CA       -26.1490   99.4270    2.1990 C.3   217  ALA217      0.1597
     49  C        -26.7130  100.8160    1.9070 C.2   217  ALA217      0.2287
     50  O        -26.7910  101.2300    0.7490 O.2   217  ALA217     -0.2864
     51  CB       -27.2640   98.3920    2.2190 C.3   217  ALA217      0.0319
     52  N        -22.6030   99.7900   -1.4280 N.3   222  HIS222     -0.1241
     53  CA       -23.2830   99.2020   -2.5850 C.3   222  HIS222      0.1621
     54  C        -23.7510  100.1970   -3.6490 C.2   222  HIS222      0.2264
     55  O        -24.6940   99.9150   -4.3920 O.2   222  HIS222     -0.2867
     56  CB       -24.4500   98.3230   -2.1230 C.3   222  HIS222      0.0745
     57  CG       -24.0250   97.1400   -1.3110 C.ar  222  HIS222      0.0817
     58  ND1      -23.1410   96.1950   -1.7830 N.ar  222  HIS222     -0.2268
     59  CD2      -24.3640   96.7490   -0.0600 C.ar  222  HIS222      0.1154
     60  CE1      -22.9500   95.2740   -0.8560 C.ar  222  HIS222      0.1986
     61  NE2      -23.6800   95.5860    0.1990 N.ar  222  HIS222     -0.2212
     62  N        -34.9240   99.9350   -2.4420 N.3   266  ILE266     -0.1231
     63  CA       -33.7770   99.0640   -2.1560 C.3   266  ILE266      0.1692
     64  C        -34.0120   97.6190   -2.6060 C.2   266  ILE266      0.2591
     65  O        -33.0660   96.9150   -2.9640 O.2   266  ILE266     -0.2718
     66  CB       -33.3340   99.1130   -0.6520 C.3   266  ILE266      0.0266
     67  CG1      -34.2840   98.3180    0.2680 C.3   266  ILE266      0.0019
     68  CG2      -33.1050  100.5620   -0.1890 C.3   266  ILE266      0.0020
     69  CD1      -35.6940   98.8850    0.4300 C.3   266  ILE266      0.0001
     70  N        -35.2730   97.1920   -2.5860 N.am  267  LEU267     -0.1980
     71  CA       -35.6490   95.8620   -3.0500 C.3   267  LEU267      0.1596
     72  C        -35.6590   95.8280   -4.5780 C.2   267  LEU267      0.2287
     73  O        -35.1100   94.9080   -5.1840 O.2   267  LEU267     -0.2864
     74  CB       -37.0150   95.4560   -2.4800 C.3   267  LEU267      0.0297
     75  CG       -37.4290   93.9800   -2.5240 C.3   267  LEU267      0.0022
     76  CD1      -36.5160   93.1050   -1.6690 C.3   267  LEU267      0.0001
     77  CD2      -38.8790   93.8200   -2.0900 C.3   267  LEU267      0.0001
     78  N        -32.3680   95.3550   -6.3150 N.3   270  VAL270     -0.1245
     79  CA       -31.8020   94.0090   -6.2320 C.3   270  VAL270      0.1561
     80  C        -32.6130   92.9760   -7.0230 C.2   270  VAL270      0.2260
     81  O        -32.0470   92.2040   -7.8010 O.2   270  VAL270     -0.2867
     82  CB       -31.6420   93.5460   -4.7550 C.3   270  VAL270      0.0252
     83  CG1      -30.9590   92.1870   -4.6810 C.3   270  VAL270      0.0019
     84  CG2      -30.8530   94.5730   -3.9490 C.3   270  VAL270      0.0019
     85  N        -36.6030   95.0230    1.7230 N.3   302  GLY302     -0.1210
     86  CA       -35.1540   94.8210    1.7950 C.3   302  GLY302      0.1956
     87  C        -34.6590   94.2890    3.1280 C.2   302  GLY302      0.2612
     88  O        -33.5870   94.6760    3.5970 O.2   302  GLY302     -0.2717
     89  N        -35.4390   93.3930    3.7290 N.am  303  GLN303     -0.1965
     90  CA       -35.1350   92.8430    5.0490 C.3   303  GLN303      0.1733
     91  C        -33.8260   92.0510    5.0830 C.2   303  GLN303      0.2616
     92  O        -33.5080   91.3180    4.1450 O.2   303  GLN303     -0.2715
     93  CB       -36.2890   91.9610    5.5360 C.3   303  GLN303      0.0408
     94  CG       -36.2100   91.5680    7.0100 C.3   303  GLN303      0.0908
     95  CD       -37.2300   90.5120    7.3990 C.2   303  GLN303      0.2608
     96  OE1      -38.3260   90.4470    6.8390 O.2   303  GLN303     -0.2717
     97  NE2      -36.8740   89.6800    8.3720 N.am  303  GLN303     -0.0878
     98  N        -33.0730   92.2250    6.1680 N.am  304  HIS304     -0.1973
     99  CA       -31.9140   91.3880    6.4650 C.3   304  HIS304      0.1656
    100  C        -32.1070   90.6970    7.8090 C.2   304  HIS304      0.2291
    101  O        -32.7570   91.2470    8.6980 O.2   304  HIS304     -0.2864
    102  CB       -30.6130   92.2020    6.4540 C.3   304  HIS304      0.0771
    103  CG       -30.5570   93.2890    7.4840 C.ar  304  HIS304      0.0820
    104  ND1      -30.2210   93.0520    8.8000 N.ar  304  HIS304     -0.2267
    105  CD2      -30.7710   94.6220    7.3850 C.ar  304  HIS304      0.1154
    106  CE1      -30.2420   94.1900    9.4690 C.ar  304  HIS304      0.1986
    107  NE2      -30.5710   95.1590    8.6340 N.ar  304  HIS304     -0.2212
    108  N        -31.9200   87.0460    3.4420 N.3   314  LEU314     -0.1245
    109  CA       -32.5120   88.3200    3.0380 C.3   314  LEU314      0.1561
    110  C        -33.9040   88.1220    2.4320 C.2   314  LEU314      0.2260
    111  O        -34.0300   87.9490    1.2180 O.2   314  LEU314     -0.2867
    112  CB       -31.6000   89.0520    2.0420 C.3   314  LEU314      0.0270
    113  CG       -30.1390   89.3270    2.4130 C.3   314  LEU314      0.0019
    114  CD1      -29.3910   89.9040    1.2290 C.3   314  LEU314      0.0001
    115  CD2      -30.0360   90.2580    3.6000 C.3   314  LEU314      0.0001
    116  N        -35.2800   89.0010   -1.3810 N.3   317  ILE317     -0.1245
    117  CA       -34.2550   88.5520   -2.3200 C.3   317  ILE317      0.1561
    118  C        -34.1660   87.0280   -2.2380 C.2   317  ILE317      0.2260
    119  O        -33.9780   86.3480   -3.2520 O.2   317  ILE317     -0.2867
    120  CB       -32.8780   89.1960   -2.0120 C.3   317  ILE317      0.0252
    121  CG1      -33.0200   90.7180   -1.8630 C.3   317  ILE317      0.0019
    122  CG2      -31.8600   88.8450   -3.0990 C.3   317  ILE317      0.0019
    123  CD1      -31.8760   91.3940   -1.1250 C.3   317  ILE317      0.0001
    124  N        -26.4400   88.5630   -5.0990 N.3   359  PHE359     -0.1241
    125  CA       -25.8890   87.9440   -3.8960 C.3   359  PHE359      0.1605
    126  C        -25.3190   86.5660   -4.1950 C.2   359  PHE359      0.2264
    127  O        -25.9580   85.5290   -3.9920 O.2   359  PHE359     -0.2867
    128  CB       -26.9100   87.9530   -2.7550 C.3   359  PHE359      0.0534
    129  CG       -27.1290   89.3200   -2.1740 C.ar  359  PHE359     -0.0203
    130  CD1      -26.3360   89.7780   -1.1260 C.ar  359  PHE359     -0.0042
    131  CD2      -28.1020   90.1680   -2.6990 C.ar  359  PHE359     -0.0042
    132  CE1      -26.5190   91.0510   -0.5960 C.ar  359  PHE359     -0.0003
    133  CE2      -28.2940   91.4450   -2.1740 C.ar  359  PHE359     -0.0003
    134  CZ       -27.5010   91.8870   -1.1200 C.ar  359  PHE359     -0.0000
    135  N        -23.4660   92.8930   -5.7090 N.3   365  PHE365     -0.1241
    136  CA       -23.5430   93.3530   -4.3230 C.3   365  PHE365      0.1605
    137  C        -22.5320   92.6240   -3.4410 C.2   365  PHE365      0.2264
    138  O        -21.7330   93.2570   -2.7480 O.2   365  PHE365     -0.2867
    139  CB       -24.9630   93.1810   -3.7670 C.3   365  PHE365      0.0534
    140  CG       -25.9330   94.2300   -4.2400 C.ar  365  PHE365     -0.0203
    141  CD1      -26.6090   94.0800   -5.4460 C.ar  365  PHE365     -0.0042
    142  CD2      -26.1750   95.3670   -3.4740 C.ar  365  PHE365     -0.0042
    143  CE1      -27.5070   95.0480   -5.8880 C.ar  365  PHE365     -0.0003
    144  CE2      -27.0730   96.3410   -3.9060 C.ar  365  PHE365     -0.0003
    145  CZ       -27.7390   96.1810   -5.1170 C.ar  365  PHE365     -0.0000
    146  N        -19.0740   93.4640   -0.4550 N.3   369  ASP369     -0.1239
    147  CA       -19.1910   93.0820    0.9550 C.3   369  ASP369      0.1674
    148  C        -17.9240   92.3900    1.4440 C.2   369  ASP369      0.2266
    149  O        -17.3360   92.7950    2.4500 O.2   369  ASP369     -0.2867
    150  CB       -20.3930   92.1580    1.1730 C.3   369  ASP369      0.1410
    151  CG       -21.7050   92.9090    1.2550 C.2   369  ASP369      0.3668
    152  OD1      -21.7760   93.9350    1.9690 O.co2 369  ASP369     -0.2456
    153  OD2      -22.6820   92.4640    0.6160 O.co2 369  ASP369     -0.2456
@<TRIPOS>BOND
     1    81    80    2
     2    80    79    1
     3    78    79    1
     4    79    82    1
     5   143   141   ar
     6   143   145   ar
     7   135   136    1
     8   141   140   ar
     9    73    72    2
    10   145   144   ar
    11   124   125    1
    12    82    83    1
    13    82    84    1
    14    72    71    1
    15    55    54    2
    16   136   139    1
    17   136   137    1
    18   140   139    1
    19   140   142   ar
    20   126   127    2
    21   126   125    1
    22   144   142   ar
    23   125   128    1
    24    54    53    1
    25   137   138    2
    26   119   118    2
    27   122   120    1
    28    71    70    1
    29    71    74    1
    30    65    64    2
    31   128   129    1
    32   131   129   ar
    33   131   133   ar
    34    64    70   am
    35    64    63    1
    36    53    56    1
    37    53    52    1
    38    75    74    1
    39    75    77    1
    40    75    76    1
    41    62    63    1
    42   117   118    1
    43   117   120    1
    44   117   116    1
    45   129   130   ar
    46   133   134   ar
    47    63    66    1
    48    56    57    1
    49   120   121    1
    50   121   123    1
    51    58    57   ar
    52    58    60   ar
    53    57    59   ar
    54   130   132   ar
    55   134   132   ar
    56    60    61   ar
    57    66    68    1
    58    66    67    1
    59   146   147    1
    60    59    61   ar
    61    67    69    1
    62   153   151   ar
    63    50    49    2
    64   147   150    1
    65   147   148    1
    66   150   151    1
    67   111   110    2
    68   114   113    1
    69   151   152   ar
    70   148   149    2
    71    85    86    1
    72    86    87    1
    73    49    48    1
    74   112   113    1
    75   112   109    1
    76    48    51    1
    77    48    47    1
    78   113   115    1
    79   110   109    1
    80    40    39    2
    81   109   108    1
    82    87    88    2
    83    87    89   am
    84    46    44   ar
    85    46    45   ar
    86    44    42   ar
    87    47    39   am
    88    39    38    1
    89    20    19   ar
    90    20    18   ar
    91    89    90    1
    92    19    17   ar
    93    92    91    2
    94    45    43   ar
    95    42    41    1
    96    42    43   ar
    97    18    16   ar
    98     8     7    2
    99    35    36    1
   100    35    34    1
   101     9     7   am
   102    38    41    1
   103    38    37    1
   104    90    91    1
   105    90    93    1
   106    91    98   am
   107     7     6    1
   108    17    15   ar
   109    32    31    2
   110    93    94    1
   111    34    33    1
   112    16    15   ar
   113    98    99    1
   114    15    14    1
   115   102    99    1
   116   102   103    1
   117    99   100    1
   118    31    30    1
   119     6     5    1
   120    96    95    2
   121    30    33    1
   122    30    29    1
   123    24    23    2
   124    94    95    1
   125   105   103   ar
   126   105   107   ar
   127    95    97   am
   128   103   104   ar
   129     5     2    1
   130    14    11    1
   131   100   101    2
   132    23    29   am
   133    23    22    1
   134    11    10    1
   135    11    12    1
   136     4     3    2
   137    28    26   ar
   138    27    26   ar
   139    10     3   am
   140     3     2    1
   141   107   106   ar
   142    26    25    1
   143   104   106   ar
   144     2     1    1
   145    25    22    1
   146    13    12    2
   147    22    21    1
