@<TRIPOS>MOLECULE
tmp/3h03A00.pdb
 152 146 0 0 0
SMALL
GASTEIGER

@<TRIPOS>ATOM
      1  N         21.2920   -7.8710   29.5300 N.3     9  GLU9       -0.1245
      2  CA        22.3940   -7.2770   28.7800 C.3     9  GLU9        0.1567
      3  C         23.3170   -6.6140   29.7940 C.2     9  GLU9        0.2260
      4  O         22.9220   -5.6620   30.4610 O.2     9  GLU9       -0.2867
      5  CB        21.8420   -6.2200   27.8150 C.3     9  GLU9        0.0388
      6  CG        22.8650   -5.5570   26.9190 C.3     9  GLU9        0.1160
      7  CD        23.2400   -6.4160   25.7310 C.2     9  GLU9        0.3649
      8  OE1       24.3270   -7.0260   25.7630 O.co2   9  GLU9       -0.2457
      9  OE2       22.4360   -6.4850   24.7720 O.co2   9  GLU9       -0.2457
     10  N         23.7080   -3.6490   32.2070 N.3    12  TYR12      -0.1241
     11  CA        22.3760   -3.1000   32.4610 C.3    12  TYR12       0.1605
     12  C         21.5330   -3.9790   33.3790 C.2    12  TYR12       0.2264
     13  O         20.9910   -3.5090   34.3800 O.2    12  TYR12      -0.2867
     14  CB        21.6610   -2.8940   31.1260 C.3    12  TYR12       0.0534
     15  CG        22.4430   -2.0100   30.1830 C.ar   12  TYR12      -0.0201
     16  CD1       22.4290   -0.6210   30.3220 C.ar   12  TYR12      -0.0009
     17  CD2       23.2390   -2.5640   29.1850 C.ar   12  TYR12      -0.0009
     18  CE1       23.1890    0.1890   29.4940 C.ar   12  TYR12       0.0417
     19  CE2       24.0020   -1.7680   28.3540 C.ar   12  TYR12       0.0417
     20  CZ        23.9760   -0.3910   28.5110 C.ar   12  TYR12       0.1957
     21  OH        24.7460    0.3980   27.6930 O.3    12  TYR12      -0.2866
     22  N         15.0540   -6.3660   21.5300 N.3    57  TYR57      -0.1241
     23  CA        14.8070   -4.9690   21.8630 C.3    57  TYR57       0.1605
     24  C         13.5360   -4.4180   21.2360 C.2    57  TYR57       0.2264
     25  O         12.6770   -3.9040   21.9410 O.2    57  TYR57      -0.2867
     26  CB        16.0020   -4.1100   21.4620 C.3    57  TYR57       0.0534
     27  CG        17.1740   -4.2680   22.3980 C.ar   57  TYR57      -0.0201
     28  CD1       18.1530   -5.2360   22.1690 C.ar   57  TYR57      -0.0009
     29  CD2       17.2870   -3.4700   23.5350 C.ar   57  TYR57      -0.0009
     30  CE1       19.2200   -5.4040   23.0540 C.ar   57  TYR57       0.0417
     31  CE2       18.3470   -3.6300   24.4260 C.ar   57  TYR57       0.0417
     32  CZ        19.3090   -4.5940   24.1790 C.ar   57  TYR57       0.1957
     33  OH        20.3640   -4.7340   25.0490 O.3    57  TYR57      -0.2866
     34  N         18.6160   -0.4570   27.6870 N.3    85  PRO85      -0.2102
     35  CA        19.3260    0.3820   26.7140 C.3    85  PRO85       0.1504
     36  C         18.6110    0.3530   25.3610 C.2    85  PRO85       0.2576
     37  O         19.1080   -0.2100   24.3840 O.2    85  PRO85      -0.2718
     38  CB        20.7180   -0.2450   26.6650 C.3    85  PRO85       0.0282
     39  CG        20.4350   -1.7040   26.9380 C.3    85  PRO85       0.0208
     40  CD        19.4210   -1.6370   28.0570 C.3    85  PRO85       0.0893
     41  N         17.4350    0.9700   25.3240 N.am   86  LEU86      -0.1966
     42  CA        16.6120    1.0220   24.1240 C.3    86  LEU86       0.1728
     43  C         16.8290    2.3460   23.3980 C.2    86  LEU86       0.2616
     44  O         16.5380    3.4100   23.9370 O.2    86  LEU86      -0.2715
     45  CB        15.1460    0.8650   24.5280 C.3    86  LEU86       0.0311
     46  CG        14.0830    0.6730   23.4560 C.3    86  LEU86       0.0022
     47  CD1       14.2910   -0.6620   22.7430 C.3    86  LEU86       0.0001
     48  CD2       12.7190    0.7220   24.1200 C.3    86  LEU86       0.0001
     49  N         17.3550    2.2810   22.1790 N.am   87  THR87      -0.1951
     50  CA        17.6190    3.4970   21.4130 C.3    87  THR87       0.1897
     51  C         16.3520    4.2140   20.9570 C.2    87  THR87       0.2313
     52  O         15.4120    3.5860   20.4790 O.2    87  THR87      -0.2863
     53  CB        18.4730    3.2010   20.1690 C.3    87  THR87       0.1794
     54  OG1       19.7290    2.6480   20.5800 O.3    87  THR87      -0.2208
     55  CG2       18.7290    4.4870   19.3720 C.3    87  THR87       0.0378
     56  N         10.2610    3.7660   16.2740 N.3    92  ARG92      -0.1245
     57  CA         9.7510    3.3400   17.5760 C.3    92  ARG92       0.1563
     58  C          8.9400    4.4620   18.2210 C.2    92  ARG92       0.2260
     59  O          7.8890    4.2180   18.8180 O.2    92  ARG92      -0.2867
     60  CB        10.9010    2.9440   18.5010 C.3    92  ARG92       0.0307
     61  CG        11.5510    1.6190   18.1490 C.3    92  ARG92       0.0489
     62  CD        12.8450    1.4670   18.9120 C.3    92  ARG92       0.2205
     63  NE        13.4920    0.1890   18.6500 N.pl3  92  ARG92      -0.0865
     64  CZ        14.7200   -0.1180   19.0540 C.cat  92  ARG92       0.5346
     65  NH1       15.4320    0.7690   19.7390 N.pl3  92  ARG92       0.1354
     66  NH2       15.2290   -1.3140   18.7860 N.pl3  92  ARG92       0.1354
     67  N         27.3280   -5.0270   12.5370 N.3   134  LEU134     -0.1245
     68  CA        26.3120   -6.0700   12.6150 C.3   134  LEU134      0.1561
     69  C         25.7130   -6.1310   11.2090 C.2   134  LEU134      0.2260
     70  O         25.6920   -5.1220   10.5050 O.2   134  LEU134     -0.2867
     71  CB        25.2400   -5.6930   13.6390 C.3   134  LEU134      0.0270
     72  CG        25.6710   -5.8520   15.0990 C.3   134  LEU134      0.0019
     73  CD1       24.6080   -5.2740   16.0290 C.3   134  LEU134      0.0001
     74  CD2       25.9050   -7.3260   15.3950 C.3   134  LEU134      0.0001
     75  N         23.5970    0.8290   12.9070 N.3   139  THR139     -0.1218
     76  CA        24.9920    1.1020   12.5670 C.3   139  THR139      0.1862
     77  C         25.2570    0.8160   11.0910 C.2   139  THR139      0.2287
     78  O         25.9050    1.6110   10.4050 O.2   139  THR139     -0.2866
     79  CB        25.9590    0.2810   13.4530 C.3   139  THR139      0.1770
     80  OG1       25.8140    0.6960   14.8210 O.3   139  THR139     -0.2211
     81  CG2       27.4090    0.5030   13.0210 C.3   139  THR139      0.0375
     82  N         27.0420   -9.1280   18.7940 N.3   170  THR170     -0.1218
     83  CA        28.1120   -8.3760   19.4260 C.3   170  THR170      0.1862
     84  C         29.2520   -9.3210   19.7890 C.2   170  THR170      0.2287
     85  O         30.4130   -9.0540   19.4830 O.2   170  THR170     -0.2866
     86  CB        27.6130   -7.6980   20.7100 C.3   170  THR170      0.1770
     87  OG1       26.5480   -6.7960   20.3870 O.3   170  THR170     -0.2211
     88  CG2       28.7400   -6.9380   21.3870 C.3   170  THR170      0.0375
     89  N         35.9130   -3.5350   14.7750 N.3   186  TYR186     -0.1227
     90  CA        34.4590   -3.6290   14.8460 C.3   186  TYR186      0.1736
     91  C         33.7900   -2.2850   15.1600 C.2   186  TYR186      0.2595
     92  O         34.1710   -1.5930   16.1060 O.2   186  TYR186     -0.2718
     93  CB        34.0930   -4.6880   15.9000 C.3   186  TYR186      0.0548
     94  CG        32.6150   -4.9000   16.1300 C.ar  186  TYR186     -0.0200
     95  CD1       31.7360   -5.0780   15.0620 C.ar  186  TYR186     -0.0009
     96  CD2       32.0940   -4.9300   17.4240 C.ar  186  TYR186     -0.0009
     97  CE1       30.3720   -5.2730   15.2760 C.ar  186  TYR186      0.0417
     98  CE2       30.7320   -5.1310   17.6470 C.ar  186  TYR186      0.0417
     99  CZ        29.8800   -5.2970   16.5680 C.ar  186  TYR186      0.1957
    100  OH        28.5320   -5.4710   16.7810 O.3   186  TYR186     -0.2866
    101  N         32.8030   -1.9170   14.3460 N.am  187  LEU187     -0.1966
    102  CA        32.0550   -0.6690   14.5240 C.3   187  LEU187      0.1728
    103  C         30.8180   -0.9640   15.3730 C.2   187  LEU187      0.2616
    104  O         29.9470   -1.7310   14.9590 O.2   187  LEU187     -0.2715
    105  CB        31.6460   -0.1220   13.1540 C.3   187  LEU187      0.0311
    106  CG        32.8060    0.3990   12.3060 C.3   187  LEU187      0.0022
    107  CD1       32.4560    0.3270   10.8240 C.3   187  LEU187      0.0001
    108  CD2       33.1230    1.8360   12.7200 C.3   187  LEU187      0.0001
    109  N         30.7350   -0.3550   16.5550 N.am  188  LEU188     -0.1963
    110  CA        29.6120   -0.6090   17.4570 C.3   188  LEU188      0.1728
    111  C         29.2610    0.5880   18.3410 C.2   188  LEU188      0.2616
    112  O         29.9550    1.6010   18.3340 O.2   188  LEU188     -0.2715
    113  CB        29.9480   -1.7990   18.3580 C.3   188  LEU188      0.0311
    114  CG        30.9240   -1.5480   19.5120 C.3   188  LEU188      0.0022
    115  CD1       30.9540   -2.7650   20.4160 C.3   188  LEU188      0.0001
    116  CD2       32.3170   -1.2360   18.9820 C.3   188  LEU188      0.0001
    117  N         28.1840    0.4560   19.1110 N.am  189  GLU189     -0.1977
    118  CA        27.7540    1.5230   20.0080 C.3   189  GLU189      0.1602
    119  C         28.8360    1.7870   21.0620 C.2   189  GLU189      0.2287
    120  O         29.4010    0.8600   21.6430 O.2   189  GLU189     -0.2864
    121  CB        26.4050    1.1540   20.6540 C.3   189  GLU189      0.0415
    122  CG        25.2760    1.0560   19.6140 C.3   189  GLU189      0.1163
    123  CD        23.8810    0.8020   20.1900 C.2   189  GLU189      0.3649
    124  OE1       22.9250    0.7850   19.3850 O.co2 189  GLU189     -0.2457
    125  OE2       23.7250    0.6210   21.4200 O.co2 189  GLU189     -0.2457
    126  N         28.8190    2.7810   24.1410 N.3   191  THR191     -0.1203
    127  CA        28.5800    2.2200   25.4690 C.3   191  THR191      0.1994
    128  C         29.1270    0.8010   25.5980 C.2   191  THR191      0.2617
    129  O         29.8190    0.4750   26.5700 O.2   191  THR191     -0.2717
    130  CB        27.0770    2.1960   25.7870 C.3   191  THR191      0.1784
    131  OG1       26.3530    1.8010   24.6150 O.3   191  THR191     -0.2211
    132  CG2       26.6070    3.5720   26.2330 C.3   191  THR191      0.0376
    133  N         28.8020   -0.0460   24.6260 N.am  192  MET192     -0.1979
    134  CA        29.2720   -1.4280   24.6290 C.3   192  MET192      0.1605
    135  C         30.7930   -1.4360   24.4650 C.2   192  MET192      0.2287
    136  O         31.4980   -2.1980   25.1370 O.2   192  MET192     -0.2864
    137  CB        28.6050   -2.2140   23.4910 C.3   192  MET192      0.0413
    138  CG        29.0100   -3.6880   23.3850 C.3   192  MET192      0.0598
    139  SD        28.6120   -4.7240   24.8370 S.3   192  MET192     -0.1393
    140  CE        26.8970   -5.0730   24.5450 C.3   192  MET192      0.0692
    141  N         19.6340    6.4990   24.7540 N.3   216  TYR216     -0.1241
    142  CA        18.6960    5.4950   25.2190 C.3   216  TYR216      0.1605
    143  C         17.6330    6.2210   26.0380 C.2   216  TYR216      0.2264
    144  O         17.9330    7.1670   26.7660 O.2   216  TYR216     -0.2867
    145  CB        19.3720    4.4570   26.1310 C.3   216  TYR216      0.0534
    146  CG        20.5440    3.6940   25.5440 C.ar  216  TYR216     -0.0201
    147  CD1       20.5440    3.2670   24.2160 C.ar  216  TYR216     -0.0009
    148  CD2       21.6310    3.3380   26.3500 C.ar  216  TYR216     -0.0009
    149  CE1       21.6000    2.4990   23.7050 C.ar  216  TYR216      0.0417
    150  CE2       22.6820    2.5730   25.8540 C.ar  216  TYR216      0.0417
    151  CZ        22.6610    2.1570   24.5340 C.ar  216  TYR216      0.1957
    152  OH        23.7000    1.3970   24.0540 O.3   216  TYR216     -0.2866
@<TRIPOS>BOND
     1    78    77    2
     2    70    69    2
     3   107   106    1
     4    77    76    1
     5    69    68    1
     6   106   108    1
     7   106   105    1
     8    67    68    1
     9    76    75    1
    10    76    79    1
    11    68    71    1
    12    81    79    1
    13   105   102    1
    14    79    80    1
    15    71    72    1
    16   101   102    1
    17   101    91   am
    18   102   103    1
    19    89    90    1
    20    90    91    1
    21    90    93    1
    22   104   103    2
    23    95    97   ar
    24    95    94   ar
    25    72    74    1
    26    72    73    1
    27    91    92    2
    28    97    99   ar
    29   103   109   am
    30    93    94    1
    31    94    96   ar
    32    56    57    1
    33   109   110    1
    34    99   100    1
    35    99    98   ar
    36    96    98   ar
    37   110   111    1
    38   110   113    1
    39    57    58    1
    40    57    60    1
    41    61    60    1
    42    61    62    1
    43    58    59    2
    44   112   111    2
    45   111   117   am
    46   113   114    1
    47    63    62    1
    48    63    64    2
    49    66    64    1
    50    82    83    1
    51   116   114    1
    52    64    65    1
    53   117   118    1
    54    55    53    1
    55   124   123   ar
    56    83    84    1
    57    83    86    1
    58    85    84    2
    59   114   115    1
    60   122   123    1
    61   122   121    1
    62   118   121    1
    63   118   119    1
    64    53    54    1
    65    53    50    1
    66   123   125   ar
    67    87    86    1
    68    52    51    2
    69    86    88    1
    70    51    50    1
    71   119   120    2
    72    24    23    1
    73    24    25    2
    74    50    49    1
    75    26    23    1
    76    26    27    1
    77    22    23    1
    78    28    27   ar
    79    28    30   ar
    80    49    43   am
    81    27    29   ar
    82    47    46    1
    83    30    32   ar
    84   138   137    1
    85   138   139    1
    86    43    44    2
    87    43    42    1
    88    46    48    1
    89    46    45    1
    90   137   134    1
    91    29    31   ar
    92   149   147   ar
    93   149   151   ar
    94   152   151    1
    95    42    45    1
    96    42    41    1
    97   126   127    1
    98    32    31   ar
    99    32    33    1
   100   147   146   ar
   101    37    36    2
   102   135   134    1
   103   135   136    2
   104   151   150   ar
   105   140   139    1
   106   131   130    1
   107   133   134    1
   108   133   128   am
   109   141   142    1
   110     9     7   ar
   111   142   143    1
   112   142   145    1
   113    41    36   am
   114    36    35    1
   115   127   128    1
   116   127   130    1
   117   146   145    1
   118   146   148   ar
   119   128   129    2
   120     7     8   ar
   121     7     6    1
   122   130   132    1
   123   150   148   ar
   124   143   144    2
   125    38    35    1
   126    38    39    1
   127    35    34    1
   128     6     5    1
   129    39    40    1
   130    34    40    1
   131    21    20    1
   132     5     2    1
   133    19    20   ar
   134    19    17   ar
   135    20    18   ar
   136     2     1    1
   137     2     3    1
   138    17    15   ar
   139    18    16   ar
   140     3     4    2
   141    15    16   ar
   142    15    14    1
   143    14    11    1
   144    10    11    1
   145    11    12    1
   146    12    13    2
