@<TRIPOS>MOLECULE
tmp/3h06D00.pdb
 168 162 0 0 0
SMALL
GASTEIGER

@<TRIPOS>ATOM
      1  N         32.4630  -21.1800   12.5030 N.3     9  GLU9       -0.1231
      2  CA        33.7160  -21.8180   12.1950 C.3     9  GLU9        0.1699
      3  C         33.4500  -22.7110   10.9940 C.2     9  GLU9        0.2592
      4  O         32.4540  -23.4250   10.9590 O.2     9  GLU9       -0.2718
      5  CB        34.1560  -22.6520   13.3940 C.3     9  GLU9        0.0402
      6  CG        35.5880  -23.1170   13.3430 C.3     9  GLU9        0.1161
      7  CD        36.5620  -22.0200   13.6930 C.2     9  GLU9        0.3649
      8  OE1       37.7390  -22.1290   13.2990 O.co2   9  GLU9       -0.2457
      9  OE2       36.1530  -21.0540   14.3720 O.co2   9  GLU9       -0.2457
     10  N         34.3240  -22.6480    9.9970 N.am   10  SER10      -0.1952
     11  CA        34.1790  -23.4780    8.8060 C.3    10  SER10       0.1924
     12  C         34.8560  -24.8230    9.0360 C.2    10  SER10       0.2314
     13  O         35.9420  -24.8930    9.6270 O.2    10  SER10      -0.2863
     14  CB        34.8200  -22.8090    7.5850 C.3    10  SER10       0.2116
     15  OG        33.9610  -21.8510    7.0010 O.3    10  SER10      -0.2180
     16  N         31.9700  -26.0560   10.0640 N.3    12  TYR12      -0.1241
     17  CA        31.0270  -26.4990   11.0780 C.3    12  TYR12       0.1605
     18  C         29.7060  -25.7610   10.9760 C.2    12  TYR12       0.2264
     19  O         28.6470  -26.3420   11.2070 O.2    12  TYR12      -0.2867
     20  CB        31.6500  -26.3120   12.4460 C.3    12  TYR12       0.0534
     21  CG        32.9590  -27.0430   12.5810 C.ar   12  TYR12      -0.0201
     22  CD1       32.9970  -28.4330   12.6950 C.ar   12  TYR12      -0.0009
     23  CD2       34.1610  -26.3500   12.5880 C.ar   12  TYR12      -0.0009
     24  CE1       34.2130  -29.1100   12.8170 C.ar   12  TYR12       0.0417
     25  CE2       35.3690  -27.0100   12.7080 C.ar   12  TYR12       0.0417
     26  CZ        35.3910  -28.3830   12.8210 C.ar   12  TYR12       0.1957
     27  OH        36.5970  -29.0250   12.9320 O.3    12  TYR12      -0.2866
     28  N         34.6320  -19.9080   22.1740 N.3    57  TYR57      -0.1241
     29  CA        34.2920  -21.2660   22.5020 C.3    57  TYR57       0.1605
     30  C         33.9350  -21.3950   23.9640 C.2    57  TYR57       0.2264
     31  O         32.9190  -21.9960   24.3090 O.2    57  TYR57      -0.2867
     32  CB        35.4350  -22.1820   22.0950 C.3    57  TYR57       0.0534
     33  CG        35.4040  -22.4030   20.6060 C.ar   57  TYR57      -0.0201
     34  CD1       34.5400  -23.3460   20.0410 C.ar   57  TYR57      -0.0009
     35  CD2       36.1630  -21.6110   19.7510 C.ar   57  TYR57      -0.0009
     36  CE1       34.4380  -23.4880   18.6630 C.ar   57  TYR57       0.0417
     37  CE2       36.0680  -21.7450   18.3800 C.ar   57  TYR57       0.0417
     38  CZ        35.2090  -22.6810   17.8420 C.ar   57  TYR57       0.1957
     39  OH        35.1300  -22.8150   16.4790 O.3    57  TYR57      -0.2866
     40  N         32.2640  -27.5640   17.3200 N.3    85  PRO85      -0.2102
     41  CA        33.5250  -28.2990   17.4580 C.3    85  PRO85       0.1504
     42  C         34.1750  -27.9680   18.7990 C.2    85  PRO85       0.2576
     43  O         35.2220  -27.3240   18.8580 O.2    85  PRO85      -0.2718
     44  CB        34.3380  -27.8070   16.2660 C.3    85  PRO85       0.0282
     45  CG        33.8590  -26.4040   16.0930 C.3    85  PRO85       0.0208
     46  CD        32.3610  -26.5770   16.2280 C.3    85  PRO85       0.0893
     47  N         33.5250  -28.4210   19.8690 N.am   86  LEU86      -0.1966
     48  CA        33.9790  -28.2070   21.2400 C.3    86  LEU86       0.1728
     49  C         34.7890  -29.3790   21.8190 C.2    86  LEU86       0.2616
     50  O         34.2580  -30.4490   22.1360 O.2    86  LEU86      -0.2715
     51  CB        32.7730  -27.9170   22.1390 C.3    86  LEU86       0.0311
     52  CG        32.4590  -26.4520   22.4460 C.3    86  LEU86       0.0022
     53  CD1       30.9870  -26.2970   22.7450 C.3    86  LEU86       0.0001
     54  CD2       33.3060  -25.9940   23.6280 C.3    86  LEU86       0.0001
     55  N         36.0860  -29.1450   21.9540 N.am   87  THR87      -0.1951
     56  CA        36.9980  -30.1280   22.4900 C.3    87  THR87       0.1897
     57  C         36.5820  -30.4750   23.9140 C.2    87  THR87       0.2313
     58  O         36.3300  -29.5870   24.7270 O.2    87  THR87      -0.2863
     59  CB        38.4540  -29.5730   22.5050 C.3    87  THR87       0.1794
     60  OG1       38.9320  -29.4210   21.1600 O.3    87  THR87      -0.2208
     61  CG2       39.3780  -30.5070   23.2640 C.3    87  THR87       0.0378
     62  N         36.2720  -27.8580   31.4450 N.3    92  ARG92      -0.1245
     63  CA        34.8820  -27.6990   31.0540 C.3    92  ARG92       0.1563
     64  C         33.9950  -28.8400   31.5710 C.2    92  ARG92       0.2260
     65  O         32.8260  -28.6150   31.9090 O.2    92  ARG92      -0.2867
     66  CB        34.7810  -27.6150   29.5230 C.3    92  ARG92       0.0307
     67  CG        35.5520  -26.4430   28.8810 C.3    92  ARG92       0.0489
     68  CD        35.7980  -26.6710   27.3720 C.3    92  ARG92       0.2205
     69  NE        36.2310  -25.4590   26.6690 N.pl3  92  ARG92      -0.0865
     70  CZ        36.6590  -25.4250   25.4040 C.cat  92  ARG92       0.5346
     71  NH1       36.7190  -26.5360   24.6800 N.pl3  92  ARG92       0.1354
     72  NH2       37.0280  -24.2740   24.8540 N.pl3  92  ARG92       0.1354
     73  N         50.6140  -22.2410   17.4410 N.3   134  LEU134     -0.1245
     74  CA        49.8260  -21.0630   17.7920 C.3   134  LEU134      0.1561
     75  C         50.5190  -20.4490   19.0010 C.2   134  LEU134      0.2260
     76  O         50.9240  -21.1690   19.9090 O.2   134  LEU134     -0.2867
     77  CB        48.4090  -21.4750   18.1750 C.3   134  LEU134      0.0270
     78  CG        47.4470  -20.3340   18.4830 C.3   134  LEU134      0.0019
     79  CD1       47.2470  -19.4960   17.2440 C.3   134  LEU134      0.0001
     80  CD2       46.1240  -20.9030   18.9440 C.3   134  LEU134      0.0001
     81  N         47.8380  -21.7140   23.3310 N.3   137  GLY137     -0.1210
     82  CA        46.7150  -22.6100   23.1150 C.3   137  GLY137      0.1956
     83  C         47.0730  -24.0550   23.4020 C.2   137  GLY137      0.2613
     84  O         48.1500  -24.3400   23.9300 O.2   137  GLY137     -0.2717
     85  N         46.1720  -24.9660   23.0430 N.am  138  SER138     -0.1938
     86  CA        46.3680  -26.3980   23.2640 C.3   138  SER138      0.2055
     87  C         47.6770  -26.9580   22.7260 C.2   138  SER138      0.2643
     88  O         48.4860  -27.4810   23.4890 O.2   138  SER138     -0.2714
     89  CB        45.2170  -27.2020   22.6520 C.3   138  SER138      0.2130
     90  OG        44.0430  -27.1360   23.4380 O.3   138  SER138     -0.2179
     91  N         47.8780  -26.8670   21.4130 N.am  139  THR139     -0.1950
     92  CA        49.0910  -27.3950   20.7910 C.3   139  THR139      0.1897
     93  C         50.3600  -26.9500   21.5110 C.2   139  THR139      0.2313
     94  O         51.1720  -27.7850   21.9210 O.2   139  THR139     -0.2863
     95  CB        49.1780  -26.9880   19.3140 C.3   139  THR139      0.1794
     96  OG1       48.0450  -27.5070   18.6210 O.3   139  THR139     -0.2208
     97  CG2       50.4170  -27.5640   18.6760 C.3   139  THR139      0.0378
     98  N         45.4600  -17.9410   13.9820 N.3   170  THR170     -0.1218
     99  CA        45.6200  -19.2790   13.4100 C.3   170  THR170      0.1862
    100  C         45.7270  -19.2390   11.8920 C.2   170  THR170      0.2287
    101  O         46.4320  -20.0490   11.2940 O.2   170  THR170     -0.2866
    102  CB        44.4520  -20.2200   13.8120 C.3   170  THR170      0.1770
    103  OG1       44.9910  -21.4320   14.3530 O.3   170  THR170     -0.2211
    104  CG2       43.5810  -20.5610   12.6070 C.3   170  THR170      0.0375
    105  N         53.7350  -26.0090   10.3030 N.3   186  TYR186     -0.1227
    106  CA        52.8300  -25.5820   11.3530 C.3   186  TYR186      0.1736
    107  C         52.1880  -26.7810   12.0140 C.2   186  TYR186      0.2595
    108  O         51.8960  -27.7860   11.3750 O.2   186  TYR186     -0.2718
    109  CB        51.7440  -24.6730   10.7780 C.3   186  TYR186      0.0548
    110  CG        50.9530  -23.8920   11.8110 C.ar  186  TYR186     -0.0200
    111  CD1       51.5990  -23.1340   12.7890 C.ar  186  TYR186     -0.0009
    112  CD2       49.5580  -23.8700   11.7750 C.ar  186  TYR186     -0.0009
    113  CE1       50.8760  -22.3690   13.7020 C.ar  186  TYR186      0.0417
    114  CE2       48.8270  -23.1090   12.6800 C.ar  186  TYR186      0.0417
    115  CZ        49.4880  -22.3580   13.6410 C.ar  186  TYR186      0.1957
    116  OH        48.7620  -21.5890   14.5300 O.3   186  TYR186     -0.2866
    117  N         51.9740  -26.6610   13.3100 N.am  187  LEU187     -0.1966
    118  CA        51.3550  -27.7260   14.0630 C.3   187  LEU187      0.1728
    119  C         49.9590  -27.2670   14.4450 C.2   187  LEU187      0.2616
    120  O         49.7820  -26.1620   14.9570 O.2   187  LEU187     -0.2715
    121  CB        52.2010  -28.0090   15.2920 C.3   187  LEU187      0.0311
    122  CG        53.6350  -28.2330   14.8190 C.3   187  LEU187      0.0022
    123  CD1       54.6200  -28.1270   15.9730 C.3   187  LEU187      0.0001
    124  CD2       53.7010  -29.5870   14.1400 C.3   187  LEU187      0.0001
    125  N         48.9680  -28.1030   14.1590 N.am  188  LEU188     -0.1963
    126  CA        47.5910  -27.7730   14.4720 C.3   188  LEU188      0.1728
    127  C         46.6670  -28.9790   14.4690 C.2   188  LEU188      0.2616
    128  O         47.0460  -30.0750   14.0480 O.2   188  LEU188     -0.2715
    129  CB        47.0560  -26.7050   13.5070 C.3   188  LEU188      0.0311
    130  CG        47.4340  -26.7220   12.0260 C.3   188  LEU188      0.0022
    131  CD1       47.3540  -28.1200   11.4770 C.3   188  LEU188      0.0001
    132  CD2       46.5080  -25.7800   11.2610 C.3   188  LEU188      0.0001
    133  N         45.4490  -28.7560   14.9580 N.am  189  GLU189     -0.1977
    134  CA        44.4290  -29.7860   15.0410 C.3   189  GLU189      0.1602
    135  C         44.1980  -30.4120   13.6720 C.2   189  GLU189      0.2287
    136  O         44.0860  -29.7080   12.6630 O.2   189  GLU189     -0.2864
    137  CB        43.1260  -29.1790   15.5650 C.3   189  GLU189      0.0415
    138  CG        43.2300  -28.5450   16.9520 C.3   189  GLU189      0.1163
    139  CD        43.1890  -29.5600   18.0840 C.2   189  GLU189      0.3649
    140  OE1       44.0210  -30.5000   18.0780 O.co2 189  GLU189     -0.2457
    141  OE2       42.3230  -29.4070   18.9840 O.co2 189  GLU189     -0.2457
    142  N         41.6440  -31.6630   12.2480 N.3   191  THR191     -0.1203
    143  CA        40.4730  -31.0810   11.5990 C.3   191  THR191      0.1994
    144  C         40.7740  -29.8830   10.7000 C.2   191  THR191      0.2617
    145  O         40.4650  -29.9050    9.5110 O.2   191  THR191     -0.2717
    146  CB        39.4410  -30.6340   12.6510 C.3   191  THR191      0.1784
    147  OG1       40.1190  -29.9170   13.6940 O.3   191  THR191     -0.2211
    148  CG2       38.6950  -31.8460   13.2400 C.3   191  THR191      0.0376
    149  N         41.3640  -28.8340   11.2760 N.am  192  MET192     -0.1979
    150  CA        41.6930  -27.6150   10.5320 C.3   192  MET192      0.1605
    151  C         42.6870  -27.9100    9.4150 C.2   192  MET192      0.2287
    152  O         42.5040  -27.4910    8.2750 O.2   192  MET192     -0.2864
    153  CB        42.2660  -26.5500   11.4770 C.3   192  MET192      0.0413
    154  CG        42.4570  -25.1770   10.8320 C.3   192  MET192      0.0598
    155  SD        40.9470  -24.5390   10.0410 S.3   192  MET192     -0.1393
    156  CE        40.2770  -23.5920   11.3480 C.3   192  MET192      0.0692
    157  N         35.6980  -33.8090   19.8760 N.3   216  TYR216     -0.1241
    158  CA        34.7410  -32.7430   20.1250 C.3   216  TYR216      0.1605
    159  C         33.4840  -33.3570   20.6920 C.2   216  TYR216      0.2264
    160  O         33.2120  -34.5400   20.4760 O.2   216  TYR216     -0.2867
    161  CB        34.3760  -32.0290   18.8410 C.3   216  TYR216      0.0534
    162  CG        35.5400  -31.4320   18.1310 C.ar  216  TYR216     -0.0201
    163  CD1       36.5340  -30.7570   18.8340 C.ar  216  TYR216     -0.0009
    164  CD2       35.6060  -31.4580   16.7450 C.ar  216  TYR216     -0.0009
    165  CE1       37.5580  -30.1120   18.1710 C.ar  216  TYR216      0.0417
    166  CE2       36.6230  -30.8180   16.0670 C.ar  216  TYR216      0.0417
    167  CZ        37.5920  -30.1420   16.7820 C.ar  216  TYR216      0.1957
    168  OH        38.5650  -29.4580   16.1040 O.3   216  TYR216     -0.2866
@<TRIPOS>BOND
     1    15    14    1
     2    14    11    1
     3   152   151    2
     4    11    12    1
     5    11    10    1
     6    12    13    2
     7   151   150    1
     8   145   144    2
     9    10     3   am
    10   155   154    1
    11   155   156    1
    12    16    17    1
    13   105   106    1
    14   150   149    1
    15   150   153    1
    16   144   149   am
    17   144   143    1
    18   109   106    1
    19   109   110    1
    20   154   153    1
    21     4     3    2
    22    18    17    1
    23    18    19    2
    24     3     2    1
    25    17    20    1
    26   132   130    1
    27   101   100    2
    28   106   107    1
    29   108   107    2
    30   131   130    1
    31   143   142    1
    32   143   146    1
    33   112   110   ar
    34   112   114   ar
    35   110   111   ar
    36   100    99    1
    37   107   117   am
    38   130   129    1
    39     2     1    1
    40     2     5    1
    41    20    21    1
    42    21    23   ar
    43    21    22   ar
    44    23    25   ar
    45   104   102    1
    46   146   148    1
    47   146   147    1
    48   136   135    2
    49   114   115   ar
    50    22    24   ar
    51    25    26   ar
    52   111   113   ar
    53    24    26   ar
    54    26    27    1
    55     8     7   ar
    56   117   118    1
    57     6     5    1
    58     6     7    1
    59    99   102    1
    60    99    98    1
    61   129   126    1
    62   115   113   ar
    63   115   116    1
    64   135   134    1
    65     7     9   ar
    66   102   103    1
    67   128   127    2
    68   118   119    1
    69   118   121    1
    70   124   122    1
    71   125   119   am
    72   125   126    1
    73   119   120    2
    74   127   126    1
    75   127   133   am
    76   122   121    1
    77   122   123    1
    78   133   134    1
    79   134   137    1
    80   137   138    1
    81   166   164   ar
    82   166   167   ar
    83    45    46    1
    84    45    44    1
    85   168   167    1
    86    46    40    1
    87    44    41    1
    88    39    38    1
    89   164   162   ar
    90   167   165   ar
    91   138   139    1
    92    79    78    1
    93    40    41    1
    94    73    74    1
    95    41    42    1
    96    74    77    1
    97    74    75    1
    98    38    37   ar
    99    38    36   ar
   100   140   139   ar
   101   139   141   ar
   102   162   163   ar
   103   162   161    1
   104   165   163   ar
   105    77    78    1
   106    37    35   ar
   107    78    80    1
   108    96    95    1
   109    36    34   ar
   110    97    95    1
   111    42    43    2
   112    42    47   am
   113   161   158    1
   114    75    76    2
   115    95    92    1
   116    35    33   ar
   117    47    48    1
   118   157   158    1
   119    34    33   ar
   120   158   159    1
   121   160   159    2
   122    33    32    1
   123    92    91    1
   124    92    93    1
   125    60    59    1
   126    48    49    1
   127    48    51    1
   128    91    87   am
   129    93    94    2
   130    49    55   am
   131    49    50    2
   132    55    56    1
   133    32    29    1
   134    51    52    1
   135    28    29    1
   136    52    53    1
   137    52    54    1
   138    56    59    1
   139    56    57    1
   140    29    30    1
   141    59    61    1
   142    89    86    1
   143    89    90    1
   144    87    86    1
   145    87    88    2
   146    85    86    1
   147    85    83   am
   148    82    81    1
   149    82    83    1
   150    83    84    2
   151    57    58    2
   152    30    31    2
   153    71    70    1
   154    72    70    1
   155    70    69    2
   156    69    68    1
   157    68    67    1
   158    67    66    1
   159    66    63    1
   160    63    62    1
   161    63    64    1
   162    64    65    2
