@<TRIPOS>MOLECULE
tmp/3h0aA01.pdb
 211 199 0 0 0
SMALL
GASTEIGER

@<TRIPOS>ATOM
      1  N         67.0420   17.9230   40.6510 N.3    20  VAL20      -0.1245
      2  CA        68.0270   17.0360   40.0450 C.3    20  VAL20       0.1561
      3  C         68.0300   15.6510   40.7400 C.2    20  VAL20       0.2260
      4  O         67.9100   14.6090   40.0870 O.2    20  VAL20      -0.2867
      5  CB        69.4500   17.6850   40.0600 C.3    20  VAL20       0.0252
      6  CG1       70.1720   17.3720   41.3770 C.3    20  VAL20       0.0019
      7  CG2       70.2720   17.2450   38.8380 C.3    20  VAL20       0.0019
      8  N         63.9820   13.1780   41.8650 N.3    23  ILE23      -0.1231
      9  CA        63.3630   12.2180   40.9510 C.3    23  ILE23       0.1692
     10  C         63.8540   10.7870   41.1350 C.2    23  ILE23       0.2592
     11  O         63.0660    9.8770   41.3900 O.2    23  ILE23      -0.2718
     12  CB        63.6240   12.5980   39.4890 C.3    23  ILE23       0.0266
     13  CG1       62.6670   13.7030   39.0660 C.3    23  ILE23       0.0019
     14  CG2       63.4650   11.3850   38.5880 C.3    23  ILE23       0.0020
     15  CD1       62.4850   14.7610   40.1090 C.3    23  ILE23       0.0001
     16  N         65.1510   10.5700   40.9530 N.am   24  CYS24      -0.1970
     17  CA        65.6930    9.2080   41.0330 C.3    24  CYS24       0.1712
     18  C         65.4290    8.6110   42.4200 C.2    24  CYS24       0.2296
     19  O         65.1120    7.4280   42.5670 O.2    24  CYS24      -0.2864
     20  CB        67.1860    9.1810   40.6470 C.3    24  CYS24       0.0983
     21  SG        68.3110   10.2150   41.6270 S.3    24  CYS24      -0.0798
     22  N         62.7180    9.2050   44.2310 N.3    26  ALA26      -0.1231
     23  CA        61.3310    8.7460   44.1990 C.3    26  ALA26       0.1694
     24  C         61.2030    7.3860   43.5030 C.2    26  ALA26       0.2591
     25  O         60.4030    6.5440   43.9350 O.2    26  ALA26      -0.2718
     26  CB        60.4420    9.7790   43.5310 C.3    26  ALA26       0.0304
     27  N         62.0030    7.1760   42.4450 N.am   27  ALA27      -0.1980
     28  CA        61.9950    5.9090   41.6700 C.3    27  ALA27       0.1597
     29  C         62.6800    4.7500   42.3940 C.2    27  ALA27       0.2287
     30  O         62.3210    3.5870   42.2060 O.2    27  ALA27      -0.2864
     31  CB        62.6040    6.1030   40.2860 C.3    27  ALA27       0.0319
     32  N         59.9550    3.7150   44.3340 N.3    30  GLN30      -0.1245
     33  CA        59.0580    2.9610   43.4590 C.3    30  GLN30       0.1566
     34  C         59.5150    1.5150   43.2090 C.2    30  GLN30       0.2260
     35  O         58.7010    0.6440   42.9800 O.2    30  GLN30      -0.2867
     36  CB        58.9100    3.6800   42.1020 C.3    30  GLN30       0.0367
     37  CG        58.1130    4.9690   42.1360 C.3    30  GLN30       0.0905
     38  CD        56.7510    4.8000   42.8020 C.2    30  GLN30       0.2608
     39  OE1       55.7290    4.5820   42.1270 O.2    30  GLN30      -0.2717
     40  NE2       56.7370    4.8710   44.1410 N.am   30  GLN30      -0.0878
     41  N         62.2340   -2.1670   34.1110 N.3    60  TRP60      -0.1227
     42  CA        61.7550   -1.6990   35.3930 C.3    60  TRP60       0.1737
     43  C         61.2590   -0.2910   35.0560 C.2    60  TRP60       0.2595
     44  O         60.2780    0.2250   35.6280 O.2    60  TRP60      -0.2718
     45  CB        62.8890   -1.6490   36.4570 C.3    60  TRP60       0.0564
     46  CG        64.0790   -0.7190   36.1320 C.ar   60  TRP60       0.0003
     47  CD1       65.2370   -1.0740   35.5050 C.ar   60  TRP60       0.0946
     48  CD2       64.2020    0.7070   36.4100 C.ar   60  TRP60       0.0152
     49  NE1       66.0620    0.0240   35.3620 N.ar   60  TRP60      -0.2442
     50  CE2       65.4510    1.1240   35.9060 C.ar   60  TRP60       0.0810
     51  CE3       63.3770    1.6590   37.0290 C.ar   60  TRP60       0.0012
     52  CZ2       65.9000    2.4500   36.0060 C.ar   60  TRP60       0.0191
     53  CZ3       63.8210    2.9780   37.1180 C.ar   60  TRP60       0.0001
     54  CH2       65.0710    3.3570   36.6100 C.ar   60  TRP60       0.0015
     55  N         61.9300    0.3020   34.0750 N.am   61  ASN61      -0.1974
     56  CA        61.9000    1.7490   33.9230 C.3    61  ASN61       0.1688
     57  C         60.7500    2.2700   33.0750 C.2    61  ASN61       0.2292
     58  O         60.1830    3.3230   33.3830 O.2    61  ASN61      -0.2864
     59  CB        63.2550    2.2700   33.4430 C.3    61  ASN61       0.1181
     60  CG        63.2230    2.7220   32.0220 C.2    61  ASN61       0.2629
     61  OD1       62.5240    3.6800   31.7090 O.2    61  ASN61      -0.2716
     62  ND2       63.9870    2.0470   31.1360 N.am   61  ASN61      -0.0877
     63  N         57.7700    1.9710   35.1210 N.3    64  LEU64      -0.1231
     64  CA        57.8420    2.9780   36.1400 C.3    64  LEU64       0.1693
     65  C         57.5970    4.3500   35.5530 C.2    64  LEU64       0.2591
     66  O         57.1800    5.2490   36.2780 O.2    64  LEU64      -0.2718
     67  CB        59.2000    2.9270   36.8130 C.3    64  LEU64       0.0284
     68  CG        59.2140    3.1200   38.3290 C.3    64  LEU64       0.0019
     69  CD1       58.3980    1.9960   39.0640 C.3    64  LEU64       0.0001
     70  CD2       60.6850    3.2950   38.8910 C.3    64  LEU64       0.0001
     71  N         57.8420    4.5260   34.2550 N.am   65  ILE65      -0.1980
     72  CA        57.5590    5.8220   33.6090 C.3    65  ILE65       0.1595
     73  C         56.0690    6.0180   33.3710 C.2    65  ILE65       0.2287
     74  O         55.5730    7.1380   33.3840 O.2    65  ILE65      -0.2864
     75  CB        58.1970    5.9550   32.2090 C.3    65  ILE65       0.0276
     76  CG1       59.6790    5.5980   32.2250 C.3    65  ILE65       0.0022
     77  CG2       57.9640    7.3550   31.6700 C.3    65  ILE65       0.0022
     78  CD1       60.2010    5.2780   30.8460 C.3    65  ILE65       0.0001
     79  N         53.6780    4.5130   35.2380 N.3    67  SER67      -0.1202
     80  CA        53.0410    4.7230   36.5400 C.3    67  SER67       0.2020
     81  C         52.8880    6.2140   36.8800 C.2    67  SER67       0.2618
     82  O         51.7720    6.6870   37.1240 O.2    67  SER67      -0.2717
     83  CB        53.7710    3.9690   37.6430 C.3    67  SER67       0.2103
     84  OG        54.5600    2.9180   37.1140 O.3    67  SER67      -0.2182
     85  N         54.0010    6.9560   36.8760 N.am   68  PHE68      -0.1975
     86  CA        53.9880    8.3680   37.2920 C.3    68  PHE68       0.1639
     87  C         53.4190    9.3350   36.2500 C.2    68  PHE68       0.2290
     88  O         52.8530   10.3860   36.6170 O.2    68  PHE68      -0.2864
     89  CB        55.3850    8.8360   37.7470 C.3    68  PHE68       0.0560
     90  CG        56.3250    9.2360   36.6160 C.ar   68  PHE68      -0.0200
     91  CD1       56.2670   10.5020   36.0540 C.ar   68  PHE68      -0.0042
     92  CD2       57.3160    8.3620   36.1700 C.ar   68  PHE68      -0.0042
     93  CE1       57.1390   10.8760   35.0310 C.ar   68  PHE68      -0.0003
     94  CE2       58.2010    8.7300   35.1450 C.ar   68  PHE68      -0.0003
     95  CZ        58.1070    9.9900   34.5810 C.ar   68  PHE68      -0.0000
     96  N         49.7700    9.1290   36.3790 N.3    71  ARG71      -0.1245
     97  CA        49.5990    9.8210   37.6650 C.3    71  ARG71       0.1563
     98  C         49.7150   11.3330   37.6040 C.2    71  ARG71       0.2260
     99  O         49.3510   12.0410   38.5590 O.2    71  ARG71      -0.2867
    100  CB        50.6480    9.3450   38.6680 C.3    71  ARG71       0.0307
    101  CG        50.4750   10.0300   40.0070 C.3    71  ARG71       0.0489
    102  CD        51.5670    9.6790   40.9590 C.3    71  ARG71       0.2205
    103  NE        51.7550    8.2370   41.0870 N.pl3  71  ARG71      -0.0865
    104  CZ        52.9180    7.6220   40.8990 C.cat  71  ARG71       0.5346
    105  NH1       53.9890    8.3380   40.5740 N.pl3  71  ARG71       0.1354
    106  NH2       53.0130    6.3100   41.0520 N.pl3  71  ARG71       0.1354
    107  N         55.0680   16.7820   36.8360 N.3    79  ILE79      -0.1245
    108  CA        54.6870   15.4670   37.3540 C.3    79  ILE79       0.1561
    109  C         54.5350   15.4280   38.8720 C.2    79  ILE79       0.2260
    110  O         55.0920   16.2540   39.5980 O.2    79  ILE79      -0.2867
    111  CB        55.6870   14.3420   36.9410 C.3    79  ILE79       0.0252
    112  CG1       57.1220   14.7250   37.3210 C.3    79  ILE79       0.0019
    113  CG2       55.5750   14.0490   35.4550 C.3    79  ILE79       0.0019
    114  CD1       58.0860   13.5570   37.3950 C.3    79  ILE79       0.0001
    115  N         55.5560   12.9660   41.7600 N.3    81  LEU81      -0.1231
    116  CA        56.5220   11.8880   41.9130 C.3    81  LEU81       0.1693
    117  C         55.9590   10.7540   42.7730 C.2    81  LEU81       0.2591
    118  O         54.7570   10.7030   43.0490 O.2    81  LEU81      -0.2718
    119  CB        57.8500   12.4250   42.4770 C.3    81  LEU81       0.0284
    120  CG        58.7080   13.2720   41.5170 C.3    81  LEU81       0.0019
    121  CD1       59.8090   14.0730   42.2170 C.3    81  LEU81       0.0001
    122  CD2       59.2980   12.4000   40.4230 C.3    81  LEU81       0.0001
    123  N         56.8300    9.8350   43.1730 N.am   82  ALA82      -0.1980
    124  CA        56.4380    8.7570   44.0840 C.3    82  ALA82       0.1597
    125  C         56.1030    9.3140   45.4690 C.2    82  ALA82       0.2287
    126  O         55.0600    8.9860   46.0520 O.2    82  ALA82      -0.2864
    127  CB        57.5410    7.7190   44.1850 C.3    82  ALA82       0.0319
    128  N         67.8020   18.5880   32.6390 N.3    97  VAL97      -0.1245
    129  CA        67.0050   17.4500   32.1220 C.3    97  VAL97       0.1561
    130  C         65.6350   17.8120   31.5280 C.2    97  VAL97       0.2260
    131  O         64.7310   16.9630   31.4570 O.2    97  VAL97      -0.2867
    132  CB        66.7900   16.3710   33.2300 C.3    97  VAL97       0.0252
    133  CG1       67.8230   15.2330   33.1000 C.3    97  VAL97       0.0019
    134  CG2       66.8080   17.0220   34.6610 C.3    97  VAL97       0.0019
    135  N         64.1200   15.6100   27.7050 N.3   100  ILE100     -0.1231
    136  CA        63.5180   14.3010   27.9440 C.3   100  ILE100      0.1692
    137  C         62.2620   14.4450   28.8410 C.2   100  ILE100      0.2592
    138  O         61.4480   13.5210   28.9700 O.2   100  ILE100     -0.2718
    139  CB        64.5540   13.3050   28.4980 C.3   100  ILE100      0.0266
    140  CG1       63.9850   11.8800   28.5110 C.3   100  ILE100      0.0019
    141  CG2       64.9740   13.7170   29.8910 C.3   100  ILE100      0.0020
    142  CD1       63.6990   11.3200   29.9270 C.3   100  ILE100      0.0001
    143  N         62.0990   15.6420   29.4020 N.am  101  PHE101     -0.1976
    144  CA        60.9770   15.9660   30.2780 C.3   101  PHE101      0.1639
    145  C         59.7690   16.4750   29.4880 C.2   101  PHE101      0.2290
    146  O         58.6290   16.0540   29.7010 O.2   101  PHE101     -0.2864
    147  CB        61.4030   17.0380   31.2870 C.3   101  PHE101      0.0560
    148  CG        60.5710   17.0620   32.5460 C.ar  101  PHE101     -0.0200
    149  CD1       59.6070   18.0410   32.7470 C.ar  101  PHE101     -0.0042
    150  CD2       60.7680   16.1120   33.5450 C.ar  101  PHE101     -0.0042
    151  CE1       58.8430   18.0630   33.9240 C.ar  101  PHE101     -0.0003
    152  CE2       60.0130   16.1310   34.7080 C.ar  101  PHE101     -0.0003
    153  CZ        59.0490   17.1120   34.8980 C.ar  101  PHE101     -0.0000
    154  N         57.9710   13.5340   27.9830 N.3   104  VAL104     -0.1245
    155  CA        57.1610   12.8640   29.0010 C.3   104  VAL104      0.1561
    156  C         55.7870   13.4970   29.1140 C.2   104  VAL104      0.2260
    157  O         54.7700   12.8320   29.0370 O.2   104  VAL104     -0.2867
    158  CB        57.8570   12.9260   30.3740 C.3   104  VAL104      0.0252
    159  CG1       56.8590   12.7700   31.4880 C.3   104  VAL104      0.0019
    160  CG2       58.9180   11.8700   30.4670 C.3   104  VAL104      0.0019
    161  N         61.7760    6.6190   25.3260 N.3   183  ILE183     -0.1245
    162  CA        61.7980    7.4710   26.5040 C.3   183  ILE183      0.1561
    163  C         62.2940    6.6380   27.6670 C.2   183  ILE183      0.2260
    164  O         62.7670    7.1700   28.6420 O.2   183  ILE183     -0.2867
    165  CB        60.3970    8.0580   26.8400 C.3   183  ILE183      0.0252
    166  CG1       59.9910    9.1410   25.8290 C.3   183  ILE183      0.0019
    167  CG2       60.3960    8.6780   28.2130 C.3   183  ILE183      0.0019
    168  CD1       58.5570    9.7120   26.0900 C.3   183  ILE183      0.0001
    169  N         65.8660    7.9350   29.0390 N.3   187  CYS187     -0.1235
    170  CA        65.8270    8.1250   30.4590 C.3   187  CYS187      0.1677
    171  C         67.0400    7.3710   30.9410 C.2   187  CYS187      0.2270
    172  O         67.8730    7.9260   31.6580 O.2   187  CYS187     -0.2867
    173  CB        64.5800    7.5530   31.1180 C.3   187  CYS187      0.0956
    174  SG        64.6720    7.6800   32.9290 S.3   187  CYS187     -0.0801
    175  N         70.4430    8.7840   30.4110 N.3   190  HIS190     -0.1226
    176  CA        70.6470    9.8240   31.4040 C.3   190  HIS190      0.1752
    177  C         71.1560    9.3040   32.7550 C.2   190  HIS190      0.2595
    178  O         72.1630    9.7960   33.2840 O.2   190  HIS190     -0.2718
    179  CB        69.3420   10.5760   31.5920 C.3   190  HIS190      0.0759
    180  CG        69.1340   11.6530   30.5870 C.ar  190  HIS190      0.0818
    181  ND1       68.2180   12.6620   30.7620 N.ar  190  HIS190     -0.2268
    182  CD2       69.7550   11.9050   29.4100 C.ar  190  HIS190      0.1154
    183  CE1       68.2580   13.4740   29.7220 C.ar  190  HIS190      0.1986
    184  NE2       69.1880   13.0430   28.8910 N.ar  190  HIS190     -0.2212
    185  N         70.4520    8.3220   33.3180 N.am  191  LEU191     -0.1980
    186  CA        70.8210    7.7890   34.6280 C.3   191  LEU191      0.1596
    187  C         72.2980    7.3770   34.7040 C.2   191  LEU191      0.2287
    188  O         72.9790    7.6740   35.7050 O.2   191  LEU191     -0.2864
    189  CB        69.9130    6.6310   35.0400 C.3   191  LEU191      0.0297
    190  CG        68.4960    7.0320   35.4400 C.3   191  LEU191      0.0022
    191  CD1       67.7790    5.8270   35.9970 C.3   191  LEU191      0.0001
    192  CD2       68.4870    8.1690   36.4490 C.3   191  LEU191      0.0001
    193  N         74.4360   10.5900   35.1310 N.3   194  PHE194     -0.1241
    194  CA        74.3740   11.1420   36.4790 C.3   194  PHE194      0.1605
    195  C         75.0310   10.1460   37.4630 C.2   194  PHE194      0.2264
    196  O         75.1110   10.4190   38.6650 O.2   194  PHE194     -0.2867
    197  CB        72.9050   11.4470   36.8960 C.3   194  PHE194      0.0534
    198  CG        72.2280   12.5890   36.1070 C.ar  194  PHE194     -0.0203
    199  CD1       72.7770   13.8850   36.0880 C.ar  194  PHE194     -0.0042
    200  CD2       71.0210   12.3720   35.4330 C.ar  194  PHE194     -0.0042
    201  CE1       72.1670   14.9280   35.3660 C.ar  194  PHE194     -0.0003
    202  CE2       70.4050   13.4040   34.7150 C.ar  194  PHE194     -0.0003
    203  CZ        70.9800   14.6840   34.6800 C.ar  194  PHE194     -0.0000
    204  N         67.8630    1.7010   42.8080 N.3   206  LEU206     -0.1245
    205  CA        68.1600    2.2840   41.5150 C.3   206  LEU206      0.1561
    206  C         69.4630    1.6790   41.0220 C.2   206  LEU206      0.2260
    207  O         69.5320    1.0820   39.9420 O.2   206  LEU206     -0.2867
    208  CB        68.3060    3.8090   41.6460 C.3   206  LEU206      0.0270
    209  CG        67.0710    4.5470   42.1780 C.3   206  LEU206      0.0019
    210  CD1       67.3740    6.0250   42.4480 C.3   206  LEU206      0.0001
    211  CD2       65.8920    4.3840   41.2130 C.3   206  LEU206      0.0001
@<TRIPOS>BOND
     1   161   162    1
     2   166   168    1
     3   166   165    1
     4   162   165    1
     5   162   163    1
     6   165   167    1
     7   163   164    2
     8   135   136    1
     9   136   139    1
    10   136   137    1
    11   154   155    1
    12   139   140    1
    13   139   141    1
    14   140   142    1
    15   137   138    2
    16   137   143   am
    17   184   182   ar
    18   184   183   ar
    19   155   156    1
    20   155   158    1
    21   157   156    2
    22   169   170    1
    23   143   144    1
    24   182   180   ar
    25   145   146    2
    26   145   144    1
    27   183   181   ar
    28   144   147    1
    29   158   160    1
    30   158   159    1
    31   175   176    1
    32   170   171    1
    33   170   173    1
    34   180   181   ar
    35   180   179    1
    36    78    76    1
    37   171   172    2
    38   173   174    1
    39    62    60   am
    40   147   148    1
    41   176   179    1
    42   176   177    1
    43   131   130    2
    44   130   129    1
    45    77    75    1
    46    61    60    2
    47    60    59    1
    48   129   128    1
    49   129   132    1
    50    75    76    1
    51    75    72    1
    52   148   149   ar
    53   148   150   ar
    54   149   151   ar
    55   177   178    2
    56   177   185   am
    57    57    58    2
    58    57    56    1
    59   133   132    1
    60   132   134    1
    61   185   186    1
    62    73    74    2
    63    73    72    1
    64    59    56    1
    65   150   152   ar
    66    72    71    1
    67    56    55    1
    68   151   153   ar
    69    55    43   am
    70    41    42    1
    71    71    65   am
    72    95    93   ar
    73    95    94   ar
    74   186   187    1
    75   186   189    1
    76   203   202   ar
    77   203   201   ar
    78   187   188    2
    79   152   153   ar
    80   202   200   ar
    81    93    91   ar
    82   189   190    1
    83    43    42    1
    84    43    44    2
    85    63    64    1
    86   193   194    1
    87    94    92   ar
    88    79    80    1
    89    49    47   ar
    90    49    50   ar
    91   201   199   ar
    92    42    45    1
    93   200   198   ar
    94   190   191    1
    95   190   192    1
    96   113   111    1
    97    47    46   ar
    98    65    64    1
    99    65    66    2
   100    50    52   ar
   101    50    48   ar
   102    52    54   ar
   103    91    90   ar
   104   199   198   ar
   105   198   197    1
   106    46    48   ar
   107    46    45    1
   108    64    67    1
   109    92    90   ar
   110    87    88    2
   111    87    86    1
   112    96    97    1
   113    48    51   ar
   114   194   197    1
   115   194   195    1
   116    80    81    1
   117    80    83    1
   118    54    53   ar
   119    90    89    1
   120    67    68    1
   121   107   108    1
   122    85    81   am
   123    85    86    1
   124    81    82    2
   125   111   112    1
   126   111   108    1
   127    51    53   ar
   128    84    83    1
   129    86    89    1
   130   112   114    1
   131   108   109    1
   132   195   196    2
   133    98    97    1
   134    98    99    2
   135    97   100    1
   136    68    70    1
   137    68    69    1
   138    14    12    1
   139   100   101    1
   140     7     5    1
   141   109   110    2
   142    13    12    1
   143    13    15    1
   144    12     9    1
   145   207   206    2
   146   101   102    1
   147     2     5    1
   148     2     1    1
   149     2     3    1
   150     5     6    1
   151     4     3    2
   152    31    28    1
   153   122   120    1
   154   105   104    1
   155    20    17    1
   156    20    21    1
   157   104   106    1
   158   104   103    2
   159     9    10    1
   160     9     8    1
   161    16    17    1
   162    16    10   am
   163   102   103    1
   164   206   205    1
   165    17    18    1
   166    10    11    2
   167   211   209    1
   168   205   208    1
   169   205   204    1
   170   120   121    1
   171   120   119    1
   172   208   209    1
   173    28    29    1
   174    28    27    1
   175   115   116    1
   176   116   119    1
   177   116   117    1
   178    36    37    1
   179    36    33    1
   180    39    38    2
   181    37    38    1
   182   209   210    1
   183    30    29    2
   184    18    19    2
   185    27    24   am
   186   117   118    2
   187   117   123   am
   188    38    40   am
   189    35    34    2
   190   123   124    1
   191    34    33    1
   192    33    32    1
   193    24    25    2
   194    24    23    1
   195    26    23    1
   196   124   127    1
   197   124   125    1
   198    23    22    1
   199   125   126    2
