@<TRIPOS>MOLECULE
tmp/3h0aA00.pdb
 125 119 0 0 0
SMALL
GASTEIGER

@<TRIPOS>ATOM
      1  N         60.4750   -0.9890   44.8930 N.3    32  PHE32      -0.1241
      2  CA        59.9430   -2.0330   45.7690 C.3    32  PHE32       0.1605
      3  C         58.4490   -2.2820   45.4830 C.2    32  PHE32       0.2264
      4  O         57.9040   -3.3870   45.6890 O.2    32  PHE32      -0.2867
      5  CB        60.1460   -1.6020   47.2160 C.3    32  PHE32       0.0534
      6  CG        61.4240   -0.8650   47.4460 C.ar   32  PHE32      -0.0203
      7  CD1       61.6330    0.3730   46.8700 C.ar   32  PHE32      -0.0042
      8  CD2       62.4190   -1.4030   48.2480 C.ar   32  PHE32      -0.0042
      9  CE1       62.8070    1.0650   47.0760 C.ar   32  PHE32      -0.0003
     10  CE2       63.6150   -0.7110   48.4590 C.ar   32  PHE32      -0.0003
     11  CZ        63.8020    0.5300   47.8630 C.ar   32  PHE32      -0.0000
     12  N         58.1980   -4.3200   42.5910 N.3    35  VAL35      -0.1231
     13  CA        58.4570   -5.6730   43.0120 C.3    35  VAL35       0.1692
     14  C         57.0710   -6.2370   43.1940 C.2    35  VAL35       0.2591
     15  O         56.7330   -7.2890   42.6560 O.2    35  VAL35      -0.2718
     16  CB        59.2500   -5.7080   44.3500 C.3    35  VAL35       0.0266
     17  CG1       59.1290   -7.0640   45.0150 C.3    35  VAL35       0.0020
     18  CG2       60.7260   -5.3380   44.1200 C.3    35  VAL35       0.0020
     19  N         56.2600   -5.4730   43.9180 N.am   36  GLU36      -0.1979
     20  CA        54.9490   -5.9190   44.3880 C.3    36  GLU36       0.1602
     21  C         53.9200   -6.1100   43.2820 C.2    36  GLU36       0.2287
     22  O         53.2490   -7.1450   43.2230 O.2    36  GLU36      -0.2864
     23  CB        54.3960   -4.9510   45.4440 C.3    36  GLU36       0.0415
     24  CG        55.1930   -4.9090   46.7460 C.3    36  GLU36       0.1163
     25  CD        55.2610   -6.2590   47.4800 C.2    36  GLU36       0.3649
     26  OE1       54.2480   -6.6530   48.1100 O.co2  36  GLU36      -0.2457
     27  OE2       56.3400   -6.9050   47.4440 O.co2  36  GLU36      -0.2457
     28  N         53.4700   -9.2460   40.9590 N.3    39  LYS39      -0.1245
     29  CA        53.3310  -10.4800   41.7400 C.3    39  LYS39       0.1561
     30  C         52.0240  -11.2070   41.4030 C.2    39  LYS39       0.2260
     31  O         51.9610  -12.4380   41.2220 O.2    39  LYS39      -0.2867
     32  CB        53.3770  -10.1410   43.2400 C.3    39  LYS39       0.0271
     33  CG        54.5840   -9.3300   43.6790 C.3    39  LYS39       0.0035
     34  CD        55.8280   -9.7820   42.9650 C.3    39  LYS39       0.0206
     35  CE        56.9700  -10.0170   43.9160 C.3    39  LYS39       0.1093
     36  NZ        57.0010  -11.4510   44.3580 N.3    39  LYS39      -0.1314
     37  N         51.4960  -16.0710   35.9140 N.3    44  PHE44      -0.1241
     38  CA        52.8010  -15.4400   36.0120 C.3    44  PHE44       0.1605
     39  C         53.7480  -16.1480   36.9770 C.2    44  PHE44       0.2264
     40  O         54.9130  -16.4050   36.6360 O.2    44  PHE44      -0.2867
     41  CB        52.6180  -14.0010   36.4630 C.3    44  PHE44       0.0534
     42  CG        53.8520  -13.3820   37.0460 C.ar   44  PHE44      -0.0203
     43  CD1       54.8840  -12.9490   36.2230 C.ar   44  PHE44      -0.0042
     44  CD2       53.9680  -13.1960   38.4140 C.ar   44  PHE44      -0.0042
     45  CE1       56.0260  -12.3590   36.7580 C.ar   44  PHE44      -0.0003
     46  CE2       55.0960  -12.6100   38.9540 C.ar   44  PHE44      -0.0003
     47  CZ        56.1300  -12.1910   38.1260 C.ar   44  PHE44      -0.0000
     48  N         62.1690  -18.2540   37.3370 N.3    49  LEU49      -0.1231
     49  CA        62.4090  -17.3410   38.4340 C.3    49  LEU49       0.1693
     50  C         63.4210  -16.2620   38.0070 C.2    49  LEU49       0.2592
     51  O         63.0520  -15.1050   37.8400 O.2    49  LEU49      -0.2718
     52  CB        62.8960  -18.1300   39.6630 C.3    49  LEU49       0.0284
     53  CG        62.2350  -19.5150   39.8250 C.3    49  LEU49       0.0019
     54  CD1       62.9810  -20.4540   40.8060 C.3    49  LEU49       0.0001
     55  CD2       60.7590  -19.3600   40.1990 C.3    49  LEU49       0.0001
     56  N         64.6850  -16.6310   37.8100 N.am   50  ASP50      -0.1974
     57  CA        65.6600  -15.6570   37.3400 C.3    50  ASP50       0.1709
     58  C         65.0790  -14.8340   36.1910 C.2    50  ASP50       0.2293
     59  O         65.4210  -13.6730   36.0030 O.2    50  ASP50      -0.2864
     60  CB        66.9620  -16.3370   36.9130 C.3    50  ASP50       0.1436
     61  CG        66.7230  -17.6760   36.2390 C.2    50  ASP50       0.3671
     62  OD1       67.6500  -18.5160   36.2070 O.co2  50  ASP50      -0.2456
     63  OD2       65.5940  -17.8970   35.7530 O.co2  50  ASP50      -0.2456
     64  N         61.7210  -14.1560   35.6570 N.3    52  GLN52      -0.1231
     65  CA        60.7610  -13.2470   36.2810 C.3    52  GLN52       0.1698
     66  C         61.5210  -12.0500   36.8890 C.2    52  GLN52       0.2592
     67  O         60.9460  -10.9820   37.1960 O.2    52  GLN52      -0.2718
     68  CB        59.8700  -13.9820   37.3120 C.3    52  GLN52       0.0381
     69  CG        58.4620  -14.3510   36.7430 C.3    52  GLN52       0.0905
     70  CD        57.5090  -15.0350   37.7330 C.2    52  GLN52       0.2608
     71  OE1       56.3060  -14.7270   37.7730 O.2    52  GLN52      -0.2717
     72  NE2       58.0340  -15.9860   38.5080 N.am   52  GLN52      -0.0878
     73  N         62.8330  -12.2560   37.0330 N.am   53  VAL53      -0.1980
     74  CA        63.7710  -11.2210   37.4510 C.3    53  VAL53       0.1595
     75  C         64.2630  -10.4470   36.2240 C.2    53  VAL53       0.2287
     76  O         64.0440   -9.2470   36.1030 O.2    53  VAL53      -0.2864
     77  CB        65.0230  -11.8170   38.2210 C.3    53  VAL53       0.0276
     78  CG1       66.2160  -10.8570   38.1520 C.3    53  VAL53       0.0022
     79  CG2       64.6800  -12.1750   39.6720 C.3    53  VAL53       0.0022
     80  N         61.9630   -7.7200   35.0360 N.3    56  LEU56      -0.1231
     81  CA        61.8800   -6.4550   35.7860 C.3    56  LEU56       0.1693
     82  C         63.1730   -5.6300   35.7620 C.2    56  LEU56       0.2591
     83  O         63.1770   -4.4810   36.1880 O.2    56  LEU56      -0.2718
     84  CB        61.4170   -6.6710   37.2410 C.3    56  LEU56       0.0284
     85  CG        59.9220   -6.8890   37.5330 C.3    56  LEU56       0.0019
     86  CD1       59.6120   -8.4110   37.7020 C.3    56  LEU56       0.0001
     87  CD2       59.4160   -6.0810   38.7460 C.3    56  LEU56       0.0001
     88  N         64.2680   -6.2270   35.2900 N.am   57  ARG57      -0.1980
     89  CA        65.5160   -5.4930   35.0370 C.3    57  ARG57       0.1597
     90  C         65.4900   -4.8980   33.6390 C.2    57  ARG57       0.2287
     91  O         66.1320   -3.8860   33.3840 O.2    57  ARG57      -0.2864
     92  CB        66.7280   -6.4170   35.1280 C.3    57  ARG57       0.0334
     93  CG        67.1300   -6.8010   36.5280 C.3    57  ARG57       0.0492
     94  CD        68.5040   -7.4490   36.5160 C.3    57  ARG57       0.2205
     95  NE        69.5810   -6.4500   36.5430 N.pl3  57  ARG57      -0.0865
     96  CZ        70.1780   -6.0260   37.6560 C.cat  57  ARG57       0.5346
     97  NH1       69.8210   -6.5180   38.8440 N.pl3  57  ARG57       0.1354
     98  NH2       71.1420   -5.1110   37.5830 N.pl3  57  ARG57       0.1354
     99  N         70.0980    3.0100   46.8150 N.3   204  THR204     -0.1203
    100  CA        70.6930    1.6630   46.7890 C.3   204  THR204      0.1994
    101  C         70.1280    0.7220   45.7390 C.2   204  THR204      0.2617
    102  O         70.8400   -0.1790   45.2710 O.2   204  THR204     -0.2717
    103  CB        70.5280    0.9090   48.1020 C.3   204  THR204      0.1784
    104  OG1       70.8140   -0.4760   47.8530 O.3   204  THR204     -0.2211
    105  CG2       69.0870    1.0440   48.6240 C.3   204  THR204      0.0376
    106  N         68.8470    0.9290   45.4090 N.am  205  PHE205     -0.1975
    107  CA        68.0460    0.0390   44.5450 C.3   205  PHE205      0.1639
    108  C         68.1680    0.4410   43.0730 C.2   205  PHE205      0.2290
    109  O         68.5120   -0.3620   42.1980 O.2   205  PHE205     -0.2864
    110  CB        66.5720    0.1110   44.9600 C.3   205  PHE205      0.0560
    111  CG        65.7970   -1.1290   44.6660 C.ar  205  PHE205     -0.0200
    112  CD1       64.7290   -1.4840   45.4570 C.ar  205  PHE205     -0.0042
    113  CD2       66.1500   -1.9590   43.6030 C.ar  205  PHE205     -0.0042
    114  CE1       64.0070   -2.6350   45.1930 C.ar  205  PHE205     -0.0003
    115  CE2       65.4310   -3.1180   43.3230 C.ar  205  PHE205     -0.0003
    116  CZ        64.3560   -3.4580   44.1220 C.ar  205  PHE205     -0.0000
    117  N         71.0070   -1.0290   41.6430 N.3   208  GLU208     -0.1245
    118  CA        71.0760   -2.4700   41.3310 C.3   208  GLU208      0.1567
    119  C         71.4710   -2.8390   39.8880 C.2   208  GLU208      0.2260
    120  O         71.1260   -3.9160   39.4280 O.2   208  GLU208     -0.2867
    121  CB        69.7700   -3.1640   41.7090 C.3   208  GLU208      0.0388
    122  CG        69.9220   -4.5970   42.2140 C.3   208  GLU208      0.1160
    123  CD        68.8120   -4.9860   43.1870 C.2   208  GLU208      0.3649
    124  OE1       68.0460   -4.0830   43.6000 O.co2 208  GLU208     -0.2457
    125  OE2       68.7090   -6.1810   43.5490 O.co2 208  GLU208     -0.2457
@<TRIPOS>BOND
     1    91    90    2
     2    90    89    1
     3    80    81    1
     4    89    92    1
     5    89    88    1
     6    92    93    1
     7    88    82   am
     8    64    65    1
     9    63    61   ar
    10    82    81    1
    11    82    83    2
    12    81    84    1
    13    37    38    1
    14    59    58    2
    15    38    41    1
    16    38    39    1
    17    76    75    2
    18    58    57    1
    19    62    61   ar
    20    43    45   ar
    21    43    42   ar
    22    75    74    1
    23    61    60    1
    24    65    66    1
    25    65    68    1
    26    41    42    1
    27    94    93    1
    28    94    95    1
    29    95    96    2
    30    40    39    2
    31    69    68    1
    32    69    70    1
    33    45    47   ar
    34    66    73   am
    35    66    67    2
    36    60    57    1
    37    73    74    1
    38    42    44   ar
    39    84    85    1
    40    48    49    1
    41    57    56    1
    42    74    77    1
    43    85    86    1
    44    85    87    1
    45    98    96    1
    46    96    97    1
    47    70    71    2
    48    70    72   am
    49    56    50   am
    50    51    50    2
    51    50    49    1
    52    47    46   ar
    53    78    77    1
    54    77    79    1
    55    44    46   ar
    56    49    52    1
    57   120   119    2
    58    52    53    1
    59    53    55    1
    60    53    54    1
    61   119   118    1
    62    28    29    1
    63    31    30    2
    64   118   117    1
    65   118   121    1
    66    30    29    1
    67   121   122    1
    68    29    32    1
    69   109   108    2
    70   122   123    1
    71    12    13    1
    72    15    14    2
    73    34    33    1
    74    34    35    1
    75    13    14    1
    76    13    16    1
    77   108   107    1
    78   123   125   ar
    79   123   124   ar
    80    14    19   am
    81    22    21    2
    82    32    33    1
    83    21    20    1
    84   115   113   ar
    85   115   116   ar
    86   113   111   ar
    87    35    36    1
    88    19    20    1
    89    18    16    1
    90   116   114   ar
    91    16    17    1
    92    20    23    1
    93   107   110    1
    94   107   106    1
    95   111   110    1
    96   111   112   ar
    97     1     2    1
    98   114   112   ar
    99   102   101    2
   100   106   101   am
   101    23    24    1
   102     3     4    2
   103     3     2    1
   104   101   100    1
   105     2     5    1
   106    24    25    1
   107   100    99    1
   108   100   103    1
   109     7     9   ar
   110     7     6   ar
   111     9    11   ar
   112     5     6    1
   113    27    25   ar
   114     6     8   ar
   115    25    26   ar
   116   104   103    1
   117    11    10   ar
   118   103   105    1
   119     8    10   ar
