@<TRIPOS>MOLECULE
tmp/3h0bA00.pdb
 180 173 0 0 0
SMALL
GASTEIGER

@<TRIPOS>ATOM
      1  N          3.2690   -2.9940   31.9050 N.3    14  GLY14      -0.1210
      2  CA         3.0420   -3.2760   30.4910 C.3    14  GLY14       0.1956
      3  C          2.8590   -2.0540   29.6110 C.2    14  GLY14       0.2612
      4  O          2.6180   -2.1810   28.4120 O.2    14  GLY14      -0.2717
      5  N          2.9740   -0.8650   30.1960 N.am   15  GLN15      -0.1965
      6  CA         2.7720    0.3730   29.4440 C.3    15  GLN15       0.1733
      7  C          3.9890    1.2910   29.4780 C.2    15  GLN15       0.2616
      8  O          3.9740    2.3710   28.8900 O.2    15  GLN15      -0.2715
      9  CB         1.5360    1.1220   29.9490 C.3    15  GLN15       0.0408
     10  CG         0.2070    0.4960   29.5370 C.3    15  GLN15       0.0908
     11  CD        -0.9900    1.1940   30.1680 C.2    15  GLN15       0.2608
     12  OE1       -0.8870    2.3310   30.6370 O.2    15  GLN15      -0.2717
     13  NE2       -2.1330    0.5140   30.1820 N.am   15  GLN15      -0.0878
     14  N          5.0410    0.8680   30.1700 N.am   16  GLY16      -0.1955
     15  CA         6.2760    1.6400   30.2150 C.3    16  GLY16       0.1869
     16  C          6.3770    2.6180   31.3730 C.2    16  GLY16       0.2309
     17  O          5.4350    2.7890   32.1450 O.2    16  GLY16      -0.2863
     18  N          6.8260    9.1300   28.2330 N.3    33  LEU33      -0.1245
     19  CA         7.3840    7.7880   28.3160 C.3    33  LEU33       0.1561
     20  C          8.8800    7.8270   28.0520 C.2    33  LEU33       0.2260
     21  O          9.3350    8.5230   27.1490 O.2    33  LEU33      -0.2867
     22  CB         6.7130    6.8840   27.2860 C.3    33  LEU33       0.0270
     23  CG         7.1990    5.4380   27.2010 C.3    33  LEU33       0.0019
     24  CD1        6.3390    4.5420   28.0800 C.3    33  LEU33       0.0001
     25  CD2        7.1590    4.9610   25.7570 C.3    33  LEU33       0.0001
     26  N         11.7810    6.1380   26.4920 N.3    35  ASP35      -0.1239
     27  CA        11.9690    5.1080   25.4780 C.3    35  ASP35       0.1674
     28  C         13.3900    5.0760   24.9080 C.2    35  ASP35       0.2266
     29  O         13.7420    5.8990   24.0660 O.2    35  ASP35      -0.2867
     30  CB        10.9620    5.3360   24.3490 C.3    35  ASP35       0.1410
     31  CG        10.8760    4.1680   23.3950 C.2    35  ASP35       0.3668
     32  OD1       10.1110    4.2590   22.4140 O.co2  35  ASP35      -0.2456
     33  OD2       11.5670    3.1580   23.6250 O.co2  35  ASP35      -0.2456
     34  N         14.3220    2.9150   23.0190 N.3    37  GLY37      -0.1210
     35  CA        14.1280    2.1370   21.8000 C.3    37  GLY37       0.1956
     36  C         13.6720    2.9860   20.6250 C.2    37  GLY37       0.2612
     37  O         13.3480    2.4660   19.5600 O.2    37  GLY37      -0.2717
     38  N         13.6410    4.2980   20.8290 N.am   38  SER38      -0.1952
     39  CA        13.2980    5.2440   19.7760 C.3    38  SER38       0.1924
     40  C         14.0800    6.5370   19.9980 C.2    38  SER38       0.2314
     41  O         14.7740    6.6760   21.0040 O.2    38  SER38      -0.2863
     42  CB        11.7920    5.5140   19.7530 C.3    38  SER38       0.2116
     43  OG        11.4130    6.4030   20.7880 O.3    38  SER38      -0.2180
     44  N         12.7560    9.9620   18.9310 N.3    40  ASN40      -0.1240
     45  CA        11.9640   11.1740   18.7890 C.3    40  ASN40       0.1653
     46  C         11.4060   11.6700   20.1120 C.2    40  ASN40       0.2266
     47  O         11.0210   10.8840   20.9810 O.2    40  ASN40      -0.2867
     48  CB        10.8050   10.9610   17.8120 C.3    40  ASN40       0.1155
     49  CG        11.2630   10.8740   16.3750 C.2    40  ASN40       0.2627
     50  OD1       11.6590    9.8120   15.9010 O.2    40  ASN40      -0.2716
     51  ND2       11.2020   11.9950   15.6670 N.am   40  ASN40      -0.0877
     52  N          8.2570   13.1470   20.9610 N.3    42  ALA42      -0.1245
     53  CA         6.9360   13.3510   20.3880 C.3    42  ALA42       0.1562
     54  C          5.8930   13.4700   21.4890 C.2    42  ALA42       0.2260
     55  O          5.9140   12.7170   22.4620 O.2    42  ALA42      -0.2867
     56  CB         6.5910   12.2110   19.4510 C.3    42  ALA42       0.0290
     57  N          4.4990    8.5210   11.0680 N.3    72  VAL72      -0.1231
     58  CA         5.1120    7.3290   11.6280 C.3    72  VAL72       0.1678
     59  C          4.0950    6.2050   11.7440 C.2    72  VAL72       0.2434
     60  O          3.1880    6.2680   12.5730 O.2    72  VAL72      -0.2733
     61  CB         5.7190    7.6120   13.0130 C.3    72  VAL72       0.0265
     62  CG1        6.3430    6.3550   13.5880 C.3    72  VAL72       0.0020
     63  CG2        6.7450    8.7250   12.9170 C.3    72  VAL72       0.0020
     64  N          4.2310    5.1790   10.8930 N.am   73  PRO73      -0.2718
     65  CA         3.3910    3.9940   10.9950 C.3    73  PRO73       0.1535
     66  C          3.8290    3.1500   12.1820 C.2    73  PRO73       0.2598
     67  O          5.0010    2.7900   12.2800 O.2    73  PRO73      -0.2715
     68  CB         3.6730    3.2410    9.6890 C.3    73  PRO73       0.0310
     69  CG         4.3980    4.2130    8.8050 C.3    73  PRO73       0.0237
     70  CD         5.1300    5.1180    9.7310 C.3    73  PRO73       0.0939
     71  N          2.9000    2.8500   13.0830 N.am   74  TYR74      -0.1974
     72  CA         3.2090    2.0080   14.2320 C.3    74  TYR74       0.1639
     73  C          2.3450    0.7580   14.2330 C.2    74  TYR74       0.2290
     74  O          1.1360    0.8260   14.4530 O.2    74  TYR74      -0.2864
     75  CB         3.0250    2.7720   15.5410 C.3    74  TYR74       0.0560
     76  CG         3.3070    1.9260   16.7590 C.ar   74  TYR74      -0.0198
     77  CD1        4.5790    1.4200   16.9970 C.ar   74  TYR74      -0.0009
     78  CD2        2.3040    1.6260   17.6680 C.ar   74  TYR74      -0.0009
     79  CE1        4.8440    0.6400   18.1090 C.ar   74  TYR74       0.0417
     80  CE2        2.5610    0.8470   18.7840 C.ar   74  TYR74       0.0417
     81  CZ         3.8320    0.3570   18.9990 C.ar   74  TYR74       0.1957
     82  OH         4.0920   -0.4170   20.1060 O.3    74  TYR74      -0.2866
     83  N          0.9880    7.4770   13.8330 N.3    79  TRP79      -0.1241
     84  CA         0.8040    8.8210   14.3390 C.3    79  TRP79       0.1605
     85  C          1.4120    9.8070   13.3500 C.2    79  TRP79       0.2264
     86  O          2.3270    9.4660   12.6020 O.2    79  TRP79      -0.2867
     87  CB         1.3870    8.9830   15.7500 C.3    79  TRP79       0.0550
     88  CG         2.8790    8.8720   15.8470 C.ar   79  TRP79       0.0003
     89  CD1        3.6000    7.7600   16.1650 C.ar   79  TRP79       0.0946
     90  CD2        3.8320    9.9230   15.6480 C.ar   79  TRP79       0.0152
     91  NE1        4.9430    8.0500   16.1680 N.ar   79  TRP79      -0.2442
     92  CE2        5.1110    9.3710   15.8530 C.ar   79  TRP79       0.0810
     93  CE3        3.7270   11.2740   15.3110 C.ar   79  TRP79       0.0012
     94  CZ2        6.2750   10.1220   15.7320 C.ar   79  TRP79       0.0191
     95  CZ3        4.8840   12.0170   15.1900 C.ar   79  TRP79       0.0001
     96  CH2        6.1410   11.4410   15.4000 C.ar   79  TRP79       0.0015
     97  N         -2.6230    4.3070   18.3610 N.3   111  PHE111     -0.1241
     98  CA        -1.3210    4.6060   18.9420 C.3   111  PHE111      0.1605
     99  C         -1.4210    4.7720   20.4540 C.2   111  PHE111      0.2264
    100  O         -0.9220    3.9390   21.2090 O.2   111  PHE111     -0.2867
    101  CB        -0.7230    5.8620   18.3070 C.3   111  PHE111      0.0534
    102  CG         0.6650    6.1810   18.7830 C.ar  111  PHE111     -0.0203
    103  CD1        1.7500    5.4560   18.3270 C.ar  111  PHE111     -0.0042
    104  CD2        0.8850    7.2100   19.6830 C.ar  111  PHE111     -0.0042
    105  CE1        3.0270    5.7470   18.7620 C.ar  111  PHE111     -0.0003
    106  CE2        2.1590    7.5050   20.1210 C.ar  111  PHE111     -0.0003
    107  CZ         3.2310    6.7730   19.6590 C.ar  111  PHE111     -0.0000
    108  N         -2.6370    4.5700   24.1280 N.3   113  ILE113     -0.1245
    109  CA        -3.3120    3.5070   24.8530 C.3   113  ILE113      0.1561
    110  C         -4.4810    4.0410   25.6660 C.2   113  ILE113      0.2260
    111  O         -4.3960    5.1110   26.2650 O.2   113  ILE113     -0.2867
    112  CB        -2.3390    2.7870   25.7920 C.3   113  ILE113      0.0252
    113  CG1       -1.3220    1.9860   24.9760 C.3   113  ILE113      0.0019
    114  CG2       -3.0980    1.8880   26.7550 C.3   113  ILE113      0.0019
    115  CD1       -0.0810    1.6090   25.7510 C.3   113  ILE113      0.0001
    116  N          0.7710    8.5030   30.2020 N.3   118  TRP118     -0.1241
    117  CA         1.6890    9.3390   29.4370 C.3   118  TRP118      0.1605
    118  C          1.0740    9.9800   28.1920 C.2   118  TRP118      0.2264
    119  O          0.2180    9.3920   27.5350 O.2   118  TRP118     -0.2867
    120  CB         3.0090    8.6160   29.1290 C.3   118  TRP118      0.0550
    121  CG         2.9100    7.2800   28.4330 C.ar  118  TRP118      0.0003
    122  CD1        2.9440    6.0470   29.0160 C.ar  118  TRP118      0.0946
    123  CD2        2.8210    7.0520   27.0220 C.ar  118  TRP118      0.0152
    124  NE1        2.8610    5.0670   28.0590 N.ar  118  TRP118     -0.2442
    125  CE2        2.7840    5.6580   26.8260 C.ar  118  TRP118      0.0810
    126  CE3        2.7580    7.8920   25.9070 C.ar  118  TRP118      0.0012
    127  CZ2        2.6870    5.0840   25.5580 C.ar  118  TRP118      0.0191
    128  CZ3        2.6610    7.3220   24.6520 C.ar  118  TRP118      0.0001
    129  CH2        2.6250    5.9330   24.4870 C.ar  118  TRP118      0.0015
    130  N          6.3690   10.7870   24.2040 N.3   121  ILE121     -0.1245
    131  CA         7.4600    9.8300   24.2430 C.3   121  ILE121      0.1561
    132  C          8.7940   10.5560   24.1880 C.2   121  ILE121      0.2260
    133  O          8.9570   11.5230   23.4390 O.2   121  ILE121     -0.2867
    134  CB         7.3730    8.8460   23.0690 C.3   121  ILE121      0.0252
    135  CG1        6.0170    8.1420   23.0770 C.3   121  ILE121      0.0019
    136  CG2        8.5070    7.8310   23.1330 C.3   121  ILE121      0.0019
    137  CD1        5.6700    7.4930   21.7620 C.3   121  ILE121      0.0001
    138  N         12.8110    9.8970   13.3530 N.3   131  ARG131     -0.1245
    139  CA        11.9040   10.2190   12.2560 C.3   131  ARG131      0.1563
    140  C         11.7450   11.7290   12.1450 C.2   131  ARG131      0.2260
    141  O         11.6530   12.4200   13.1590 O.2   131  ARG131     -0.2867
    142  CB        10.5340    9.5850   12.4820 C.3   131  ARG131      0.0307
    143  CG        10.5720    8.1000   12.7620 C.3   131  ARG131      0.0489
    144  CD        11.2570    7.3520   11.6410 C.3   131  ARG131      0.2205
    145  NE        11.0330    5.9160   11.7490 N.pl3 131  ARG131     -0.0865
    146  CZ         9.9470    5.2990   11.2980 C.cat 131  ARG131      0.5346
    147  NH1        8.9850    5.9950   10.7070 N.pl3 131  ARG131      0.1354
    148  NH2        9.8210    3.9880   11.4390 N.pl3 131  ARG131      0.1354
    149  N         15.8960   -1.8320   25.4400 N.3   220  ASP220     -0.1225
    150  CA        14.7600   -0.9830   25.1210 C.3   220  ASP220      0.1805
    151  C         13.7760   -0.8430   26.2750 C.2   220  ASP220      0.2598
    152  O         12.9750   -1.7420   26.5330 O.2   220  ASP220     -0.2718
    153  CB        14.0380   -1.5280   23.8870 C.3   220  ASP220      0.1424
    154  CG        12.8950   -0.6450   23.4480 C.2   220  ASP220      0.3668
    155  OD1       12.8530    0.5270   23.8720 O.co2 220  ASP220     -0.2456
    156  OD2       12.0390   -1.1180   22.6800 O.co2 220  ASP220     -0.2456
    157  N         13.8370    0.2950   26.9590 N.am  221  SER221     -0.1938
    158  CA        12.9110    0.5850   28.0480 C.3   221  SER221      0.2055
    159  C         11.4820    0.7600   27.5270 C.2   221  SER221      0.2644
    160  O         10.5320    0.8010   28.2980 O.2   221  SER221     -0.2714
    161  CB        13.3600    1.8330   28.8130 C.3   221  SER221      0.2130
    162  OG        13.4410    2.9570   27.9530 O.3   221  SER221     -0.2179
    163  N         11.3370    0.8570   26.2110 N.am  222  GLY222     -0.1939
    164  CA        10.0240    1.0420   25.6040 C.3   222  GLY222      0.2014
    165  C          9.3520   -0.2750   25.2680 C.2   222  GLY222      0.2640
    166  O          8.3070   -0.3040   24.6170 O.2   222  GLY222     -0.2714
    167  N          9.9630   -1.3690   25.7090 N.am  223  THR223     -0.1936
    168  CA         9.4120   -2.6980   25.4940 C.3   223  THR223      0.2028
    169  C          9.3020   -3.4160   26.8240 C.2   223  THR223      0.2642
    170  O         10.2250   -3.3810   27.6350 O.2   223  THR223     -0.2714
    171  CB        10.2890   -3.5300   24.5410 C.3   223  THR223      0.1808
    172  OG1       10.3070   -2.9130   23.2490 O.3   223  THR223     -0.2208
    173  CG2        9.7510   -4.9510   24.4190 C.3   223  THR223      0.0379
    174  N          8.1660   -4.0670   27.0440 N.am  224  THR224     -0.1950
    175  CA         7.9010   -4.7440   28.3060 C.3   224  THR224      0.1897
    176  C          8.6930   -6.0350   28.4420 C.2   224  THR224      0.2313
    177  O          9.4500   -6.2140   29.3940 O.2   224  THR224     -0.2863
    178  CB         6.4070   -5.0700   28.4480 C.3   224  THR224      0.1794
    179  OG1        5.6660   -3.8520   28.5660 O.3   224  THR224     -0.2208
    180  CG2        6.1570   -5.9300   29.6770 C.3   224  THR224      0.0378
@<TRIPOS>BOND
     1    69    68    1
     2    69    70    1
     3    68    65    1
     4    70    64    1
     5   147   146    1
     6    64    65    1
     7    64    59   am
     8    65    66    1
     9    57    58    1
    10   146   148    1
    11   146   145    2
    12    58    59    1
    13    58    61    1
    14   144   145    1
    15   144   143    1
    16    59    60    2
    17   140   139    1
    18   140   141    2
    19    66    67    2
    20    66    71   am
    21   139   142    1
    22   139   138    1
    23   142   143    1
    24    86    85    2
    25    63    61    1
    26    61    62    1
    27    71    72    1
    28    85    84    1
    29    83    84    1
    30    72    73    1
    31    72    75    1
    32    73    74    2
    33    84    87    1
    34    95    93   ar
    35    95    96   ar
    36    93    90   ar
    37    96    94   ar
    38    75    76    1
    39    90    88   ar
    40    90    92   ar
    41    51    49   am
    42    94    92   ar
    43    87    88    1
    44    88    89   ar
    45    92    91   ar
    46    50    49    2
    47    89    91   ar
    48    49    48    1
    49    76    77   ar
    50    76    78   ar
    51    77    79   ar
    52    78    80   ar
    53    48    45    1
    54    79    81   ar
    55   101   102    1
    56   101    98    1
    57   103   105   ar
    58   103   102   ar
    59    97    98    1
    60   105   107   ar
    61   102   104   ar
    62    80    81   ar
    63    45    44    1
    64    45    46    1
    65    98    99    1
    66    81    82    1
    67    56    53    1
    68    37    36    2
    69   107   106   ar
    70   104   106   ar
    71    42    39    1
    72    42    43    1
    73    39    40    1
    74    39    38    1
    75    40    41    2
    76    46    47    2
    77    53    52    1
    78    53    54    1
    79    99   100    2
    80    36    38   am
    81    36    35    1
    82    54    55    2
    83   137   135    1
    84    35    34    1
    85    32    31   ar
    86   156   154   ar
    87   134   135    1
    88   134   136    1
    89   134   131    1
    90   172   171    1
    91    31    33   ar
    92    31    30    1
    93   133   132    2
    94   154   155   ar
    95   154   153    1
    96   153   150    1
    97    29    28    2
    98   108   109    1
    99   132   131    1
   100   130   131    1
   101    30    27    1
   102   173   171    1
   103   129   128   ar
   104   129   127   ar
   105   171   168    1
   106   166   165    2
   107   128   126   ar
   108   109   110    1
   109   109   112    1
   110    28    27    1
   111   113   115    1
   112   113   112    1
   113   150   149    1
   114   150   151    1
   115   165   164    1
   116   165   167   am
   117    27    26    1
   118   168   167    1
   119   168   169    1
   120   127   125   ar
   121   164   163    1
   122   110   111    2
   123    25    23    1
   124   112   114    1
   125   126   123   ar
   126   163   159   am
   127   151   152    2
   128   151   157   am
   129   169   174   am
   130   169   170    2
   131   125   123   ar
   132   125   124   ar
   133   157   158    1
   134   123   121   ar
   135   174   175    1
   136    21    20    2
   137    23    22    1
   138    23    24    1
   139    22    19    1
   140   159   158    1
   141   159   160    2
   142   119   118    2
   143   162   161    1
   144   158   161    1
   145    20    19    1
   146   124   122   ar
   147   118   117    1
   148    18    19    1
   149   175   176    1
   150   175   178    1
   151     4     3    2
   152   121   122   ar
   153   121   120    1
   154   176   177    2
   155   178   179    1
   156   178   180    1
   157     8     7    2
   158   120   117    1
   159   117   116    1
   160     6     7    1
   161     6     9    1
   162     6     5    1
   163     7    14   am
   164    10     9    1
   165    10    11    1
   166     3     5   am
   167     3     2    1
   168    11    13   am
   169    11    12    2
   170    14    15    1
   171    15    16    1
   172     2     1    1
   173    16    17    2
