@<TRIPOS>MOLECULE
tmp/3h0cB03.pdb
 216 211 0 0 0
SMALL
GASTEIGER

@<TRIPOS>ATOM
      1  N         56.7540   69.5900   72.4880 N.3    87  ARG87      -0.1231
      2  CA        57.6560   69.1820   73.5730 C.3    87  ARG87       0.1694
      3  C         57.0290   69.2890   74.9710 C.2    87  ARG87       0.2592
      4  O         57.0400   68.3150   75.7250 O.2    87  ARG87      -0.2718
      5  CB        58.9930   69.9190   73.5220 C.3    87  ARG87       0.0321
      6  CG        60.0740   69.2960   74.4170 C.3    87  ARG87       0.0489
      7  CD        61.3500   70.1120   74.5080 C.3    87  ARG87       0.2205
      8  NE        61.8770   70.4000   73.1790 N.pl3  87  ARG87      -0.0865
      9  CZ        62.9450   69.8230   72.6520 C.cat  87  ARG87       0.5346
     10  NH1       63.6410   68.9230   73.3380 N.pl3  87  ARG87       0.1354
     11  NH2       63.3270   70.1530   71.4290 N.pl3  87  ARG87       0.1354
     12  N         56.4760   70.4580   75.2970 N.am   88  HIS88      -0.1976
     13  CA        55.8410   70.6840   76.5930 C.3    88  HIS88       0.1656
     14  C         54.3010   70.7460   76.5490 C.2    88  HIS88       0.2291
     15  O         53.6480   70.4290   77.5440 O.2    88  HIS88      -0.2864
     16  CB        56.4100   71.9410   77.2700 C.3    88  HIS88       0.0771
     17  CG        57.9030   72.0880   77.1480 C.ar   88  HIS88       0.0820
     18  ND1       58.7890   71.4500   77.9910 N.ar   88  HIS88      -0.2267
     19  CD2       58.6610   72.8180   76.2920 C.ar   88  HIS88       0.1154
     20  CE1       60.0250   71.7760   77.6570 C.ar   88  HIS88       0.1986
     21  NE2       59.9760   72.6020   76.6270 N.ar   88  HIS88      -0.2212
     22  N         58.9510   76.2450   72.4300 N.3   167  GLU167     -0.1231
     23  CA        60.2220   75.5630   72.2050 C.3   167  GLU167      0.1699
     24  C         61.4430   76.3600   72.6710 C.2   167  GLU167      0.2592
     25  O         62.2580   75.8640   73.4460 O.2   167  GLU167     -0.2718
     26  CB        60.3680   75.2030   70.7250 C.3   167  GLU167      0.0402
     27  CG        61.7060   74.5810   70.3500 C.3   167  GLU167      0.1161
     28  CD        61.8350   73.1210   70.7620 C.2   167  GLU167      0.3649
     29  OE1       60.8230   72.5020   71.1650 O.co2 167  GLU167     -0.2457
     30  OE2       62.9600   72.5870   70.6730 O.co2 167  GLU167     -0.2457
     31  N         61.5610   77.5940   72.1930 N.am  168  GLU168     -0.1966
     32  CA        62.8050   78.3470   72.3320 C.3   168  GLU168      0.1733
     33  C         62.8710   79.2990   73.5220 C.2   168  GLU168      0.2616
     34  O         63.9400   79.4930   74.0780 O.2   168  GLU168     -0.2715
     35  CB        63.1280   79.0980   71.0360 C.3   168  GLU168      0.0429
     36  CG        63.0130   78.2620   69.7610 C.3   168  GLU168      0.1163
     37  CD        63.9870   77.0880   69.6800 C.2   168  GLU168      0.3649
     38  OE1       64.8890   76.9580   70.5330 O.co2 168  GLU168     -0.2457
     39  OE2       63.8480   76.2810   68.7390 O.co2 168  GLU168     -0.2457
     40  N         61.7450   79.8830   73.9170 N.am  169  VAL169     -0.1977
     41  CA        61.7650   80.9180   74.9480 C.3   169  VAL169      0.1596
     42  C         61.4990   80.3810   76.3610 C.2   169  VAL169      0.2287
     43  O         62.4200   80.2930   77.1800 O.2   169  VAL169     -0.2864
     44  CB        60.8040   82.0880   74.6040 C.3   169  VAL169      0.0276
     45  CG1       61.0050   83.2540   75.5530 C.3   169  VAL169      0.0022
     46  CG2       61.0040   82.5380   73.1590 C.3   169  VAL169      0.0022
     47  N         60.3280   77.2990   77.3870 N.3   171  SER171     -0.1217
     48  CA        60.3730   75.8540   77.6170 C.3   171  SER171      0.1889
     49  C         59.1490   75.3960   78.4230 C.2   171  SER171      0.2288
     50  O         59.2580   74.5480   79.3090 O.2   171  SER171     -0.2866
     51  CB        61.6720   75.4290   78.3240 C.3   171  SER171      0.2089
     52  OG        62.8080   76.0480   77.7520 O.3   171  SER171     -0.2183
     53  N         70.8990   80.9070   76.5790 N.3   319  PHE319     -0.1241
     54  CA        69.8990   80.8060   75.5040 C.3   319  PHE319      0.1605
     55  C         68.9210   81.9830   75.5460 C.2   319  PHE319      0.2264
     56  O         68.3720   82.3980   74.5190 O.2   319  PHE319     -0.2867
     57  CB        69.1390   79.4820   75.5830 C.3   319  PHE319      0.0534
     58  CG        70.0070   78.2860   75.3970 C.ar  319  PHE319     -0.0203
     59  CD1       70.2590   77.7890   74.1190 C.ar  319  PHE319     -0.0042
     60  CD2       70.5910   77.6570   76.4950 C.ar  319  PHE319     -0.0042
     61  CE1       71.0750   76.6720   73.9380 C.ar  319  PHE319     -0.0003
     62  CE2       71.4070   76.5460   76.3280 C.ar  319  PHE319     -0.0003
     63  CZ        71.6520   76.0510   75.0470 C.ar  319  PHE319     -0.0000
     64  N         77.2570   66.6930   69.3530 N.3   509  TYR509     -0.1241
     65  CA        76.1440   67.6310   69.3300 C.3   509  TYR509      0.1605
     66  C         76.6530   69.0010   68.8830 C.2   509  TYR509      0.2264
     67  O         76.1830   69.5500   67.8760 O.2   509  TYR509     -0.2867
     68  CB        75.4180   67.7190   70.6830 C.3   509  TYR509      0.0534
     69  CG        74.1670   68.5660   70.5800 C.ar  509  TYR509     -0.0201
     70  CD1       72.9950   68.0480   70.0370 C.ar  509  TYR509     -0.0009
     71  CD2       74.1780   69.9120   70.9590 C.ar  509  TYR509     -0.0009
     72  CE1       71.8540   68.8390   69.9110 C.ar  509  TYR509      0.0417
     73  CE2       73.0460   70.7100   70.8360 C.ar  509  TYR509      0.0417
     74  CZ        71.8890   70.1700   70.3080 C.ar  509  TYR509      0.1957
     75  OH        70.7690   70.9530   70.1870 O.3   509  TYR509     -0.2866
     76  N         76.6330   76.5200   73.2890 N.3   513  CYS513     -0.1221
     77  CA        76.4210   76.2940   74.7250 C.3   513  CYS513      0.1808
     78  C         76.1360   74.8340   75.1090 C.2   513  CYS513      0.2602
     79  O         75.5180   74.5540   76.1390 O.2   513  CYS513     -0.2717
     80  CB        75.3220   77.2170   75.2810 C.3   513  CYS513      0.0970
     81  SG        75.4490   77.4870   77.0630 S.3   513  CYS513     -0.0800
     82  N         76.5890   73.9000   74.2850 N.am  514  SER514     -0.1938
     83  CA        76.4190   72.4970   74.5980 C.3   514  SER514      0.2055
     84  C         77.5860   71.9850   75.4320 C.2   514  SER514      0.2643
     85  O         78.6660   72.5790   75.4620 O.2   514  SER514     -0.2714
     86  CB        76.2790   71.6700   73.3180 C.3   514  SER514      0.2130
     87  OG        77.4870   71.6530   72.5660 O.3   514  SER514     -0.2179
     88  N         77.3510   70.8760   76.1190 N.am  515  GLN515     -0.1963
     89  CA        78.4060   70.1710   76.8110 C.3   515  GLN515      0.1733
     90  C         78.1890   68.6740   76.6450 C.2   515  GLN515      0.2616
     91  O         77.1950   68.1240   77.1230 O.2   515  GLN515     -0.2715
     92  CB        78.4420   70.5540   78.2960 C.3   515  GLN515      0.0408
     93  CG        79.6390   69.9680   79.0240 C.3   515  GLN515      0.0908
     94  CD        79.8230   70.5370   80.4020 C.2   515  GLN515      0.2608
     95  OE1       79.0250   70.2680   81.3160 O.2   515  GLN515     -0.2717
     96  NE2       80.8750   71.3210   80.5700 N.am  515  GLN515     -0.0878
     97  N         79.1270   68.0190   75.9750 N.am  516  LYS516     -0.1977
     98  CA        79.0240   66.5870   75.7560 C.3   516  LYS516      0.1596
     99  C         80.1410   65.8170   76.4570 C.2   516  LYS516      0.2287
    100  O         80.2190   64.5950   76.3600 O.2   516  LYS516     -0.2864
    101  CB        78.9860   66.2880   74.2570 C.3   516  LYS516      0.0298
    102  CG        77.5880   66.2190   73.6940 C.3   516  LYS516      0.0038
    103  CD        77.3450   64.8780   73.0220 C.3   516  LYS516      0.0206
    104  CE        76.1850   64.1450   73.6540 C.3   516  LYS516      0.1093
    105  NZ        76.4100   62.6750   73.5800 N.3   516  LYS516     -0.1314
    106  N         79.8050   76.9790   79.1940 N.3   547  TYR547     -0.1241
    107  CA        80.3390   76.8540   80.5560 C.3   547  TYR547      0.1605
    108  C         81.8610   77.0930   80.7020 C.2   547  TYR547      0.2264
    109  O         82.4670   76.7400   81.7200 O.2   547  TYR547     -0.2867
    110  CB        79.8710   75.5250   81.1830 C.3   547  TYR547      0.0534
    111  CG        78.4040   75.2340   80.8900 C.ar  547  TYR547     -0.0201
    112  CD1       77.3830   75.9450   81.5370 C.ar  547  TYR547     -0.0009
    113  CD2       78.0360   74.2680   79.9470 C.ar  547  TYR547     -0.0009
    114  CE1       76.0430   75.6910   81.2590 C.ar  547  TYR547      0.0417
    115  CE2       76.7000   74.0160   79.6610 C.ar  547  TYR547      0.0417
    116  CZ        75.7170   74.7270   80.3220 C.ar  547  TYR547      0.1957
    117  OH        74.4070   74.4670   80.0470 O.3   547  TYR547     -0.2866
    118  N         69.8390   65.9340   65.7490 N.3   592  SER592     -0.1202
    119  CA        69.4360   67.3370   65.8470 C.3   592  SER592      0.2020
    120  C         70.5710   68.2070   65.3100 C.2   592  SER592      0.2618
    121  O         71.0540   67.9490   64.2070 O.2   592  SER592     -0.2717
    122  CB        69.1000   67.6830   67.3010 C.3   592  SER592      0.2103
    123  OG        67.9670   68.5130   67.4080 O.3   592  SER592     -0.2182
    124  N         71.0180   69.2050   66.0820 N.am  593  TYR593     -0.1975
    125  CA        72.2130   69.9790   65.7210 C.3   593  TYR593      0.1639
    126  C         73.3660   69.0390   65.3840 C.2   593  TYR593      0.2290
    127  O         74.0970   69.2740   64.4260 O.2   593  TYR593     -0.2864
    128  CB        72.6350   70.9650   66.8290 C.3   593  TYR593      0.0560
    129  CG        73.5210   72.1140   66.3410 C.ar  593  TYR593     -0.0198
    130  CD1       74.8570   71.8990   65.9720 C.ar  593  TYR593     -0.0009
    131  CD2       73.0200   73.4160   66.2510 C.ar  593  TYR593     -0.0009
    132  CE1       75.6670   72.9450   65.5140 C.ar  593  TYR593      0.0417
    133  CE2       73.8210   74.4710   65.7980 C.ar  593  TYR593      0.0417
    134  CZ        75.1430   74.2270   65.4300 C.ar  593  TYR593      0.1957
    135  OH        75.9300   75.2680   64.9820 O.3   593  TYR593     -0.2866
    136  N         69.3750   69.4050   60.8750 N.3   618  VAL618     -0.1245
    137  CA        69.2940   70.6540   60.1160 C.3   618  VAL618      0.1561
    138  C         70.1920   70.4840   58.8700 C.2   618  VAL618      0.2260
    139  O         71.1780   69.7360   58.8990 O.2   618  VAL618     -0.2867
    140  CB        69.7360   71.8870   60.9600 C.3   618  VAL618      0.0252
    141  CG1       69.6780   73.1880   60.1440 C.3   618  VAL618      0.0019
    142  CG2       68.8860   72.0310   62.2140 C.3   618  VAL618      0.0019
    143  N         70.0520   76.7310   57.3580 N.3   621  TRP621     -0.1241
    144  CA        69.5440   77.5020   58.4890 C.3   621  TRP621      0.1605
    145  C         68.2420   78.2500   58.2160 C.2   621  TRP621      0.2264
    146  O         67.5100   78.5950   59.1500 O.2   621  TRP621     -0.2867
    147  CB        70.6300   78.4080   59.0870 C.3   621  TRP621      0.0550
    148  CG        71.6320   77.6110   59.8790 C.ar  621  TRP621      0.0003
    149  CD1       72.9680   77.4810   59.6250 C.ar  621  TRP621      0.0946
    150  CD2       71.3660   76.7990   61.0290 C.ar  621  TRP621      0.0152
    151  NE1       73.5490   76.6440   60.5480 N.ar  621  TRP621     -0.2442
    152  CE2       72.5880   76.2120   61.4220 C.ar  621  TRP621      0.0810
    153  CE3       70.2140   76.5050   61.7710 C.ar  621  TRP621      0.0012
    154  CZ2       72.6880   75.3580   62.5150 C.ar  621  TRP621      0.0191
    155  CZ3       70.3150   75.6560   62.8520 C.ar  621  TRP621      0.0001
    156  CH2       71.5430   75.0940   63.2170 C.ar  621  TRP621      0.0015
    157  N         64.9550   76.4470   59.6280 N.3   624  TYR624     -0.1241
    158  CA        64.7000   76.3750   61.0690 C.3   624  TYR624      0.1605
    159  C         63.9860   77.6180   61.6310 C.2   624  TYR624      0.2264
    160  O         63.7750   78.5930   60.9160 O.2   624  TYR624     -0.2867
    161  CB        65.9960   76.0570   61.8350 C.3   624  TYR624      0.0534
    162  CG        65.7310   75.3680   63.1570 C.ar  624  TYR624     -0.0201
    163  CD1       65.0930   74.1300   63.1960 C.ar  624  TYR624     -0.0009
    164  CD2       66.0880   75.9650   64.3670 C.ar  624  TYR624     -0.0009
    165  CE1       64.8290   73.4970   64.3890 C.ar  624  TYR624      0.0417
    166  CE2       65.8240   75.3360   65.5710 C.ar  624  TYR624      0.0417
    167  CZ        65.1910   74.0950   65.5700 C.ar  624  TYR624      0.1957
    168  OH        64.9120   73.4450   66.7470 O.3   624  TYR624     -0.2866
    169  N         65.6330   80.7420   67.5060 N.3   628  TYR628     -0.1241
    170  CA        66.8790   80.0180   67.6920 C.3   628  TYR628      0.1605
    171  C         67.9210   80.4120   66.6390 C.2   628  TYR628      0.2264
    172  O         69.0380   80.7980   66.9800 O.2   628  TYR628     -0.2867
    173  CB        66.6050   78.5150   67.6680 C.3   628  TYR628      0.0534
    174  CG        67.7910   77.6250   67.9630 C.ar  628  TYR628     -0.0201
    175  CD1       68.6980   77.2730   66.9600 C.ar  628  TYR628     -0.0009
    176  CD2       67.9880   77.1050   69.2360 C.ar  628  TYR628     -0.0009
    177  CE1       69.7830   76.4350   67.2260 C.ar  628  TYR628      0.0417
    178  CE2       69.0660   76.2640   69.5140 C.ar  628  TYR628      0.0417
    179  CZ        69.9550   75.9320   68.5040 C.ar  628  TYR628      0.1957
    180  OH        71.0210   75.1060   68.7830 O.3   628  TYR628     -0.2866
    181  N         69.1450   84.1350   66.7450 N.3   631  ARG631     -0.1245
    182  CA        69.9650   84.3100   67.9370 C.3   631  ARG631      0.1563
    183  C         71.4640   84.2330   67.6180 C.2   631  ARG631      0.2260
    184  O         72.2450   85.0640   68.0890 O.2   631  ARG631     -0.2867
    185  CB        69.5780   83.2560   68.9850 C.3   631  ARG631      0.0307
    186  CG        70.4320   83.2050   70.2430 C.3   631  ARG631      0.0489
    187  CD        69.6280   82.8880   71.4830 C.3   631  ARG631      0.2205
    188  NE        69.4340   81.4520   71.6590 N.pl3 631  ARG631     -0.0865
    189  CZ        68.2560   80.8400   71.7680 C.cat 631  ARG631      0.5346
    190  NH1       67.1140   81.5230   71.7170 N.pl3 631  ARG631      0.1354
    191  NH2       68.2270   79.5250   71.9270 N.pl3 631  ARG631      0.1354
    192  N         59.4710   69.9390   64.5750 N.3   672  ASN672     -0.1225
    193  CA        60.6240   70.7410   64.9790 C.3   672  ASN672      0.1785
    194  C         61.6230   70.9670   63.8410 C.2   672  ASN672      0.2597
    195  O         61.6530   72.0430   63.2530 O.2   672  ASN672     -0.2718
    196  CB        61.3080   70.1040   66.1900 C.3   672  ASN672      0.1169
    197  CG        62.0950   71.1060   66.9990 C.2   672  ASN672      0.2627
    198  OD1       62.0970   71.0600   68.2310 O.2   672  ASN672     -0.2716
    199  ND2       62.7650   72.0270   66.3140 N.am  672  ASN672     -0.0877
    200  N         62.4450   69.9630   63.5470 N.am  673  VAL673     -0.1980
    201  CA        63.2520   69.9670   62.3340 C.3   673  VAL673      0.1595
    202  C         62.4520   69.2250   61.2680 C.2   673  VAL673      0.2287
    203  O         62.3470   67.9880   61.2880 O.2   673  VAL673     -0.2864
    204  CB        64.6280   69.2940   62.5260 C.3   673  VAL673      0.0276
    205  CG1       65.4310   69.3670   61.2470 C.3   673  VAL673      0.0022
    206  CG2       65.4030   69.9440   63.6570 C.3   673  VAL673      0.0022
    207  N         60.4320   64.5400   66.2950 N.3   702  HIS702     -0.1241
    208  CA        61.8670   64.7690   66.4530 C.3   702  HIS702      0.1621
    209  C         62.5240   63.8040   67.4280 C.2   702  HIS702      0.2264
    210  O         63.6940   63.4790   67.2740 O.2   702  HIS702     -0.2867
    211  CB        62.1470   66.2180   66.8670 C.3   702  HIS702      0.0745
    212  CG        63.5600   66.6550   66.6380 C.ar  702  HIS702      0.0817
    213  ND1       64.2250   66.4450   65.4470 N.ar  702  HIS702     -0.2268
    214  CD2       64.4360   67.2950   67.4470 C.ar  702  HIS702      0.1154
    215  CE1       65.4470   66.9410   65.5330 C.ar  702  HIS702      0.1986
    216  NE2       65.6010   67.4570   66.7380 N.ar  702  HIS702     -0.2212
@<TRIPOS>BOND
     1   143   144    1
     2   145   144    1
     3   145   146    2
     4   144   147    1
     5   138   139    2
     6   138   137    1
     7   147   148    1
     8   149   148   ar
     9   149   151   ar
    10   157   158    1
    11   148   150   ar
    12   137   136    1
    13   137   140    1
    14   141   140    1
    15   151   152   ar
    16   160   159    2
    17   140   142    1
    18   150   152   ar
    19   150   153   ar
    20   158   159    1
    21   158   161    1
    22   205   204    1
    23   202   203    2
    24   202   201    1
    25   152   154   ar
    26   153   155   ar
    27   161   162    1
    28   201   204    1
    29   201   200    1
    30   154   156   ar
    31   204   206    1
    32   155   156   ar
    33   162   163   ar
    34   162   164   ar
    35   163   165   ar
    36   195   194    2
    37   200   194   am
    38   194   193    1
    39   121   120    2
    40   164   166   ar
    41   165   167   ar
    42   127   126    2
    43   192   193    1
    44   193   196    1
    45   135   134    1
    46   120   119    1
    47   120   124   am
    48   126   125    1
    49   134   132   ar
    50   134   133   ar
    51   213   215   ar
    52   213   212   ar
    53   132   130   ar
    54   215   216   ar
    55   167   166   ar
    56   167   168    1
    57   125   124    1
    58   125   128    1
    59   118   119    1
    60   133   131   ar
    61   119   122    1
    62   130   129   ar
    63   196   197    1
    64   131   129   ar
    65   207   208    1
    66   199   197   am
    67   129   128    1
    68   208   211    1
    69   208   209    1
    70   212   211    1
    71   212   214   ar
    72   171   172    2
    73   171   170    1
    74   216   214   ar
    75   181   182    1
    76   175   177   ar
    77   175   174   ar
    78   197   198    2
    79   177   179   ar
    80   210   209    2
    81   122   123    1
    82   169   170    1
    83   183   182    1
    84   183   184    2
    85   173   170    1
    86   173   174    1
    87    67    66    2
    88   182   185    1
    89   174   176   ar
    90   179   180    1
    91   179   178   ar
    92    39    37   ar
    93    66    65    1
    94   185   186    1
    95   176   178   ar
    96    65    64    1
    97    65    68    1
    98    37    36    1
    99    37    38   ar
   100    36    35    1
   101    72    70   ar
   102    72    74   ar
   103    70    69   ar
   104    75    74    1
   105   186   187    1
   106    74    73   ar
   107    27    26    1
   108    27    28    1
   109    69    68    1
   110    69    71   ar
   111    30    28   ar
   112    26    23    1
   113    28    29   ar
   114    73    71   ar
   115    35    32    1
   116    11     9    1
   117   187   188    1
   118   188   189    2
   119   190   189    1
   120   189   191    1
   121    31    32    1
   122    31    24   am
   123    23    22    1
   124    23    24    1
   125    32    33    1
   126     1     2    1
   127    87    86    1
   128     9     8    2
   129     9    10    1
   130    24    25    2
   131   103   104    1
   132   103   102    1
   133    46    44    1
   134     8     7    1
   135    76    77    1
   136    86    83    1
   137     5     2    1
   138     5     6    1
   139    33    40   am
   140    33    34    2
   141     2     3    1
   142   105   104    1
   143   102   101    1
   144    40    41    1
   145    61    59   ar
   146    61    63   ar
   147    59    58   ar
   148   101    98    1
   149    82    83    1
   150    82    78   am
   151     6     7    1
   152    56    55    2
   153    83    84    1
   154    44    41    1
   155    44    45    1
   156    77    78    1
   157    77    80    1
   158    41    42    1
   159     3    12   am
   160     3     4    2
   161    63    62   ar
   162    78    79    2
   163    80    81    1
   164    12    13    1
   165    58    57    1
   166    58    60   ar
   167    84    85    2
   168    84    88   am
   169    54    55    1
   170    54    57    1
   171    54    53    1
   172    98    97    1
   173    98    99    1
   174    97    90   am
   175    88    89    1
   176    19    21   ar
   177    19    17   ar
   178    62    60   ar
   179   100    99    2
   180    42    43    2
   181    14    13    1
   182    14    15    2
   183    13    16    1
   184    21    20   ar
   185    90    89    1
   186    90    91    2
   187    89    92    1
   188    17    16    1
   189    17    18   ar
   190    47    48    1
   191    48    51    1
   192    48    49    1
   193    20    18   ar
   194    52    51    1
   195    92    93    1
   196    49    50    2
   197    93    94    1
   198   106   107    1
   199   115   113   ar
   200   115   116   ar
   201   113   111   ar
   202   117   116    1
   203   116   114   ar
   204    94    96   am
   205    94    95    2
   206   107   108    1
   207   107   110    1
   208   108   109    2
   209   111   110    1
   210   111   112   ar
   211   114   112   ar
