@<TRIPOS>MOLECULE
tmp/3h0eA00.pdb
 183 182 0 0 0
SMALL
GASTEIGER

@<TRIPOS>ATOM
      1  N         17.5710   45.8620   17.1810 N.3    28  MET28      -0.1230
      2  CA        18.7110   46.3470   16.4100 C.3    28  MET28       0.1702
      3  C         18.3690   46.4000   14.9220 C.2    28  MET28       0.2593
      4  O         17.6580   45.5360   14.4080 O.2    28  MET28      -0.2718
      5  CB        19.9360   45.4600   16.6410 C.3    28  MET28       0.0401
      6  CG        20.2140   45.1600   18.1040 C.3    28  MET28       0.0596
      7  SD        21.9110   44.6210   18.3880 S.3    28  MET28      -0.1393
      8  CE        22.7770   46.1620   18.1020 C.3    28  MET28       0.0692
      9  N         18.8810   47.4180   14.2380 N.am   29  THR29      -0.1953
     10  CA        18.5730   47.6330   12.8280 C.3    29  THR29       0.1897
     11  C         19.3760   46.7130   11.9130 C.2    29  THR29       0.2313
     12  O         20.4440   46.2300   12.2820 O.2    29  THR29      -0.2863
     13  CB        18.8550   49.0880   12.4160 C.3    29  THR29       0.1794
     14  OG1       20.2340   49.3920   12.6580 O.3    29  THR29      -0.2208
     15  CG2       17.9820   50.0460   13.2110 C.3    29  THR29       0.0378
     16  N         21.8770   45.7390    8.9640 N.3    31  ARG31      -0.1245
     17  CA        23.1280   46.3860    8.5650 C.3    31  ARG31       0.1563
     18  C         23.3370   46.3600    7.0450 C.2    31  ARG31       0.2260
     19  O         24.1110   45.5550    6.5210 O.2    31  ARG31      -0.2867
     20  CB        24.3220   45.7600    9.3000 C.3    31  ARG31       0.0307
     21  CG        24.2560   45.8940   10.8240 C.3    31  ARG31       0.0489
     22  CD        25.4420   45.2180   11.5240 C.3    31  ARG31       0.2205
     23  NE        26.7230   45.7430   11.0530 N.pl3  31  ARG31      -0.0865
     24  CZ        27.4840   45.1380   10.1460 C.cat  31  ARG31       0.5346
     25  NH1       27.1010   43.9790    9.6240 N.pl3  31  ARG31       0.1354
     26  NH2       28.6220   45.6890    9.7610 N.pl3  31  ARG31       0.1354
     27  N         29.4400   43.5220   12.3800 N.3    87  SER87      -0.1202
     28  CA        28.2200   43.5880   13.1720 C.3    87  SER87       0.2020
     29  C         28.0790   44.9320   13.8700 C.2    87  SER87       0.2619
     30  O         28.9140   45.8260   13.7000 O.2    87  SER87      -0.2717
     31  CB        28.2160   42.4660   14.2180 C.3    87  SER87       0.2103
     32  OG        26.9440   42.3410   14.8350 O.3    87  SER87      -0.2182
     33  N         27.0100   45.0740   14.6480 N.am   88  HIS88      -0.1961
     34  CA        26.8880   46.1940   15.5630 C.3    88  HIS88       0.1787
     35  C         27.8620   45.9540   16.7040 C.2    88  HIS88       0.2621
     36  O         28.3360   44.8340   16.8970 O.2    88  HIS88      -0.2715
     37  CB        25.4690   46.2960   16.1170 C.3    88  HIS88       0.0785
     38  CG        24.4430   46.6690   15.0920 C.ar   88  HIS88       0.0821
     39  ND1       24.5280   47.8210   14.3390 N.ar   88  HIS88      -0.2267
     40  CD2       23.3030   46.0490   14.7050 C.ar   88  HIS88       0.1154
     41  CE1       23.4880   47.8910   13.5260 C.ar   88  HIS88       0.1986
     42  NE2       22.7270   46.8300   13.7310 N.ar   88  HIS88      -0.2212
     43  N         28.1660   47.0020   17.4590 N.am   89  GLY89      -0.1940
     44  CA        29.0690   46.8540   18.5810 C.3    89  GLY89       0.2014
     45  C         29.0140   47.9960   19.5720 C.2    89  GLY89       0.2638
     46  O         28.3200   48.9930   19.3660 O.2    89  GLY89      -0.2714
     47  N         29.7360   47.8150   20.6710 N.am   90  GLU90      -0.1977
     48  CA        30.0260   48.8750   21.6220 C.3    90  GLU90       0.1602
     49  C         31.4680   48.6540   22.0490 C.2    90  GLU90       0.2287
     50  O         32.0890   47.6800   21.6210 O.2    90  GLU90      -0.2864
     51  CB        29.0750   48.8130   22.8180 C.3    90  GLU90       0.0415
     52  CG        27.6760   49.3420   22.5110 C.3    90  GLU90       0.1163
     53  CD        27.6780   50.8290   22.1920 C.2    90  GLU90       0.3649
     54  OE1       28.1280   51.6210   23.0510 O.co2  90  GLU90      -0.2457
     55  OE2       27.2300   51.2120   21.0860 O.co2  90  GLU90      -0.2457
     56  N         28.0390   42.3080   18.6100 N.3    95  PHE95      -0.1241
     57  CA        26.7010   41.7560   18.7920 C.3    95  PHE95       0.1605
     58  C         26.4160   40.5090   17.9680 C.2    95  PHE95       0.2264
     59  O         26.5820   40.5010   16.7460 O.2    95  PHE95      -0.2867
     60  CB        25.6390   42.8180   18.4940 C.3    95  PHE95       0.0534
     61  CG        25.4050   43.7690   19.6270 C.ar   95  PHE95      -0.0203
     62  CD1       26.1130   44.9550   19.7090 C.ar   95  PHE95      -0.0042
     63  CD2       24.4810   43.4750   20.6160 C.ar   95  PHE95      -0.0042
     64  CE1       25.9010   45.8330   20.7540 C.ar   95  PHE95      -0.0003
     65  CE2       24.2640   44.3500   21.6620 C.ar   95  PHE95      -0.0003
     66  CZ        24.9750   45.5290   21.7330 C.ar   95  PHE95      -0.0000
     67  N         34.8700   45.3300   12.1930 N.3   128  GLN128     -0.1231
     68  CA        34.0260   46.3860   11.6450 C.3   128  GLN128      0.1698
     69  C         32.7550   46.4610   12.4810 C.2   128  GLN128      0.2592
     70  O         31.8280   45.6670   12.2990 O.2   128  GLN128     -0.2718
     71  CB        33.6980   46.1070   10.1750 C.3   128  GLN128      0.0381
     72  CG        32.5880   46.9810    9.5860 C.3   128  GLN128      0.0905
     73  CD        32.8990   48.4630    9.6570 C.2   128  GLN128      0.2608
     74  OE1       34.0130   48.8920    9.3570 O.2   128  GLN128     -0.2717
     75  NE2       31.9100   49.2560   10.0460 N.am  128  GLN128     -0.0878
     76  N         32.7360   47.4090   13.4110 N.am  129  ALA129     -0.1966
     77  CA        31.6550   47.5420   14.3770 C.3   129  ALA129      0.1728
     78  C         31.8420   48.8190   15.1800 C.2   129  ALA129      0.2616
     79  O         32.9720   49.2480   15.4250 O.2   129  ALA129     -0.2715
     80  CB        31.6350   46.3370   15.3130 C.3   129  ALA129      0.0334
     81  N         30.7350   49.4280   15.5890 N.am  130  CYS130     -0.1968
     82  CA        30.7910   50.5850   16.4720 C.3   130  CYS130      0.1712
     83  C         31.5590   50.2450   17.7480 C.2   130  CYS130      0.2296
     84  O         31.5940   49.0900   18.1730 O.2   130  CYS130     -0.2864
     85  CB        29.3760   51.0550   16.8240 C.3   130  CYS130      0.0983
     86  SG        28.4990   51.8760   15.4640 S.3   130  CYS130     -0.0798
     87  N         29.0300   55.5100   20.4460 N.3   133  THR133     -0.1218
     88  CA        28.2210   56.3150   19.5320 C.3   133  THR133      0.1862
     89  C         28.7030   57.7500   19.3610 C.2   133  THR133      0.2287
     90  O         27.9610   58.5960   18.8630 O.2   133  THR133     -0.2866
     91  CB        26.7380   56.3460   19.9470 C.3   133  THR133      0.1770
     92  OG1       26.6350   56.7070   21.3300 O.3   133  THR133     -0.2211
     93  CG2       26.0930   54.9880   19.7240 C.3   133  THR133      0.0375
     94  N         31.5460   55.9010   16.5780 N.3   165  TYR165     -0.1227
     95  CA        30.7690   55.2440   15.5320 C.3   165  TYR165      0.1736
     96  C         31.6880   54.6720   14.4680 C.2   165  TYR165      0.2596
     97  O         32.8010   55.1560   14.2730 O.2   165  TYR165     -0.2718
     98  CB        29.8450   56.2580   14.8470 C.3   165  TYR165      0.0548
     99  CG        28.3870   56.1860   15.2380 C.ar  165  TYR165     -0.0200
    100  CD1       27.5740   55.1630   14.7720 C.ar  165  TYR165     -0.0009
    101  CD2       27.8170   57.1590   16.0480 C.ar  165  TYR165     -0.0009
    102  CE1       26.2390   55.0960   15.1180 C.ar  165  TYR165      0.0417
    103  CE2       26.4790   57.1050   16.3970 C.ar  165  TYR165      0.0417
    104  CZ        25.6940   56.0720   15.9310 C.ar  165  TYR165      0.1957
    105  OH        24.3630   56.0120   16.2760 O.3   165  TYR165     -0.2866
    106  N         31.2030   53.6570   13.7600 N.am  166  SER166     -0.1938
    107  CA        31.8840   53.1380   12.5840 C.3   166  SER166      0.2055
    108  C         30.9230   53.2320   11.3970 C.2   166  SER166      0.2643
    109  O         29.7940   52.7440   11.4670 O.2   166  SER166     -0.2714
    110  CB        32.3160   51.6880   12.8110 C.3   166  SER166      0.2130
    111  OG        33.0840   51.2110   11.7200 O.3   166  SER166     -0.2179
    112  N         31.3740   53.8550   10.3120 N.am  167  TRP167     -0.1959
    113  CA        30.4820   54.1970    9.2010 C.3   167  TRP167      0.1771
    114  C         30.3990   53.1430    8.1050 C.2   167  TRP167      0.2619
    115  O         31.3970   52.5280    7.7290 O.2   167  TRP167     -0.2715
    116  CB        30.8740   55.5460    8.5910 C.3   167  TRP167      0.0590
    117  CG        30.4890   56.7170    9.4400 C.ar  167  TRP167      0.0006
    118  CD1       31.1960   57.2450   10.4890 C.ar  167  TRP167      0.0946
    119  CD2       29.3070   57.5140    9.3130 C.ar  167  TRP167      0.0152
    120  NE1       30.5220   58.3160   11.0200 N.ar  167  TRP167     -0.2442
    121  CE2       29.3600   58.5040   10.3160 C.ar  167  TRP167      0.0810
    122  CE3       28.2050   57.4850    8.4490 C.ar  167  TRP167      0.0012
    123  CZ2       28.3560   59.4540   10.4790 C.ar  167  TRP167      0.0191
    124  CZ3       27.2090   58.4330    8.6110 C.ar  167  TRP167      0.0001
    125  CH2       27.2930   59.4050    9.6190 C.ar  167  TRP167      0.0015
    126  N         29.1930   52.9640    7.5780 N.am  168  ARG168     -0.1977
    127  CA        28.9380   51.9580    6.5620 C.3   168  ARG168      0.1597
    128  C         27.9810   52.4990    5.5060 C.2   168  ARG168      0.2287
    129  O         27.0240   53.2040    5.8240 O.2   168  ARG168     -0.2864
    130  CB        28.3800   50.6880    7.2110 C.3   168  ARG168      0.0334
    131  CG        27.8160   49.6610    6.2420 C.3   168  ARG168      0.0492
    132  CD        27.4980   48.3630    6.9760 C.3   168  ARG168      0.2205
    133  NE        27.0540   48.6200    8.3440 N.pl3 168  ARG168     -0.0865
    134  CZ        25.8370   49.0510    8.6680 C.cat 168  ARG168      0.5346
    135  NH1       24.9370   49.2770    7.7200 N.pl3 168  ARG168      0.1354
    136  NH2       25.5230   49.2600    9.9400 N.pl3 168  ARG168      0.1354
    137  N         27.5920   62.2960    4.2310 N.3   211  PHE211     -0.1227
    138  CA        26.6300   63.2630    3.7210 C.3   211  PHE211      0.1736
    139  C         25.2510   62.7880    4.1560 C.2   211  PHE211      0.2596
    140  O         24.8760   61.6450    3.9000 O.2   211  PHE211     -0.2718
    141  CB        26.7070   63.3500    2.1950 C.3   211  PHE211      0.0547
    142  CG        25.6610   64.2480    1.5780 C.ar  211  PHE211     -0.0202
    143  CD1       25.8730   65.6130    1.4750 C.ar  211  PHE211     -0.0042
    144  CD2       24.4720   63.7230    1.1000 C.ar  211  PHE211     -0.0042
    145  CE1       24.9170   66.4400    0.9080 C.ar  211  PHE211     -0.0003
    146  CE2       23.5130   64.5450    0.5310 C.ar  211  PHE211     -0.0003
    147  CZ        23.7360   65.9030    0.4360 C.ar  211  PHE211     -0.0000
    148  N         24.5030   63.6550    4.8280 N.am  212  SER212     -0.1938
    149  CA        23.1950   63.2750    5.3480 C.3   212  SER212      0.2055
    150  C         22.2190   64.4470    5.3670 C.2   212  SER212      0.2643
    151  O         22.6120   65.5850    5.6210 O.2   212  SER212     -0.2714
    152  CB        23.3400   62.6940    6.7580 C.3   212  SER212      0.2130
    153  OG        22.0730   62.4600    7.3490 O.3   212  SER212     -0.2179
    154  N         20.9460   64.1610    5.0940 N.am  213  PHE213     -0.1959
    155  CA        19.9020   65.1760    5.2110 C.3   213  PHE213      0.1771
    156  C         19.6770   65.5050    6.6800 C.2   213  PHE213      0.2619
    157  O         19.1520   66.5660    7.0190 O.2   213  PHE213     -0.2715
    158  CB        18.5960   64.7050    4.5660 C.3   213  PHE213      0.0574
    159  CG        18.7200   64.4040    3.1020 C.ar  213  PHE213     -0.0200
    160  CD1       19.5170   65.1910    2.2860 C.ar  213  PHE213     -0.0042
    161  CD2       18.0310   63.3440    2.5390 C.ar  213  PHE213     -0.0042
    162  CE1       19.6350   64.9170    0.9370 C.ar  213  PHE213     -0.0003
    163  CE2       18.1390   63.0680    1.1880 C.ar  213  PHE213     -0.0003
    164  CZ        18.9420   63.8560    0.3850 C.ar  213  PHE213     -0.0000
    165  N         20.0790   64.5820    7.5470 N.am  214  ASP214     -0.1971
    166  CA        20.0520   64.8130    8.9820 C.3   214  ASP214      0.1709
    167  C         21.3740   65.4510    9.3950 C.2   214  ASP214      0.2293
    168  O         22.4360   64.8400    9.2630 O.2   214  ASP214     -0.2864
    169  CB        19.8380   63.4930    9.7250 C.3   214  ASP214      0.1436
    170  CG        19.6450   63.6840   11.2180 C.2   214  ASP214      0.3671
    171  OD1       19.8210   64.8200   11.7070 O.co2 214  ASP214     -0.2456
    172  OD2       19.3150   62.6920   11.9020 O.co2 214  ASP214     -0.2456
    173  N         24.1270   63.6100   11.4360 N.3   217  PHE217     -0.1241
    174  CA        24.9630   62.5930   10.8130 C.3   217  PHE217      0.1605
    175  C         25.7590   63.1240    9.6260 C.2   217  PHE217      0.2264
    176  O         26.3550   62.3490    8.8800 O.2   217  PHE217     -0.2867
    177  CB        24.1080   61.4060   10.3620 C.3   217  PHE217      0.0534
    178  CG        23.4960   60.6320   11.4940 C.ar  217  PHE217     -0.0203
    179  CD1       24.2920   59.8940   12.3580 C.ar  217  PHE217     -0.0042
    180  CD2       22.1250   60.6350   11.6900 C.ar  217  PHE217     -0.0042
    181  CE1       23.7300   59.1790   13.3990 C.ar  217  PHE217     -0.0003
    182  CE2       21.5570   59.9210   12.7270 C.ar  217  PHE217     -0.0003
    183  CZ        22.3600   59.1930   13.5840 C.ar  217  PHE217     -0.0000
@<TRIPOS>BOND
     1   164   162   ar
     2   164   163   ar
     3   147   146   ar
     4   147   145   ar
     5   146   144   ar
     6   145   143   ar
     7   162   160   ar
     8   144   142   ar
     9   163   161   ar
    10   143   142   ar
    11   142   141    1
    12   141   138    1
    13   160   159   ar
    14   161   159   ar
    15   159   158    1
    16   138   139    1
    17   138   137    1
    18   140   139    2
    19   139   148   am
    20   158   155    1
    21   148   149    1
    22   154   155    1
    23   154   150   am
    24   155   156    1
    25   149   150    1
    26   149   152    1
    27   150   151    2
    28   128   129    2
    29   128   127    1
    30   131   132    1
    31   131   130    1
    32    19    18    2
    33   127   130    1
    34   127   126    1
    35   156   157    2
    36   156   165   am
    37   152   153    1
    38   132   133    1
    39    18    17    1
    40   165   166    1
    41   126   114   am
    42   135   134    1
    43   115   114    2
    44   114   113    1
    45   133   134    2
    46   122   124   ar
    47   122   119   ar
    48    17    16    1
    49    17    20    1
    50   116   113    1
    51   116   117    1
    52   124   125   ar
    53   134   136    1
    54   176   175    2
    55   166   167    1
    56   166   169    1
    57   113   112    1
    58   168   167    2
    59    20    21    1
    60   119   117   ar
    61   119   121   ar
    62    74    73    2
    63   117   118   ar
    64    72    73    1
    65    72    71    1
    66   125   123   ar
    67    25    24    1
    68   175   174    1
    69    73    75   am
    70   169   170    1
    71    26    24    1
    72    24    23    2
    73    71    68    1
    74   112   108   am
    75   121   123   ar
    76   121   120   ar
    77   177   174    1
    78   177   178    1
    79   118   120   ar
    80   174   173    1
    81    21    22    1
    82    23    22    1
    83   170   171   ar
    84   170   172   ar
    85   108   109    2
    86   108   107    1
    87   178   180   ar
    88   178   179   ar
    89    68    67    1
    90    68    69    1
    91   180   182   ar
    92   111   110    1
    93    11    12    2
    94    11    10    1
    95    70    69    2
    96   179   181   ar
    97    27    28    1
    98    13    14    1
    99    13    10    1
   100    13    15    1
   101    69    76   am
   102   107   110    1
   103   107   106    1
   104   182   183   ar
   105    10     9    1
   106    28    29    1
   107    28    31    1
   108   181   183   ar
   109    76    77    1
   110    41    42   ar
   111    41    39   ar
   112    30    29    2
   113    42    40   ar
   114   106    96   am
   115    29    33   am
   116    31    32    1
   117     9     3   am
   118    97    96    2
   119    39    38   ar
   120    77    78    1
   121    77    80    1
   122     4     3    2
   123    96    95    1
   124    33    34    1
   125    40    38   ar
   126   100   102   ar
   127   100    99   ar
   128    98    99    1
   129    98    95    1
   130     3     2    1
   131    38    37    1
   132   102   104   ar
   133    78    79    2
   134    78    81   am
   135    99   101   ar
   136    86    85    1
   137    95    94    1
   138    34    37    1
   139    34    35    1
   140    81    82    1
   141   104   105    1
   142   104   103   ar
   143   101   103   ar
   144     2     5    1
   145     2     1    1
   146    82    85    1
   147    82    83    1
   148     5     6    1
   149    35    36    2
   150    35    43   am
   151    59    58    2
   152    43    44    1
   153    83    84    2
   154    58    57    1
   155     8     7    1
   156     6     7    1
   157    60    57    1
   158    60    61    1
   159    44    45    1
   160    56    57    1
   161    90    89    2
   162    89    88    1
   163    46    45    2
   164    88    91    1
   165    88    87    1
   166    45    47   am
   167    61    62   ar
   168    61    63   ar
   169    62    64   ar
   170    93    91    1
   171    91    92    1
   172    63    65   ar
   173    47    48    1
   174    64    66   ar
   175    55    53   ar
   176    50    49    2
   177    48    49    1
   178    48    51    1
   179    65    66   ar
   180    53    52    1
   181    53    54   ar
   182    52    51    1
