@<TRIPOS>MOLECULE
tmp/3h0lW00.pdb
 116 111 0 0 0
SMALL
GASTEIGER

@<TRIPOS>ATOM
      1  N        -71.3990   70.9100 -115.6120 N.3     6  VAL6       -0.1245
      2  CA       -72.3050   71.9680 -115.1670 C.3     6  VAL6        0.1561
      3  C        -71.7340   72.5530 -113.8800 C.2     6  VAL6        0.2260
      4  O        -71.5660   71.8400 -112.8980 O.2     6  VAL6       -0.2867
      5  CB       -73.7450   71.4440 -114.9610 C.3     6  VAL6        0.0252
      6  CG1      -74.7550   72.5850 -115.0440 C.3     6  VAL6        0.0019
      7  CG2      -74.0890   70.3760 -115.9960 C.3     6  VAL6        0.0019
      8  N        -71.6000   75.8250 -110.9890 N.3     8  GLY8       -0.1210
      9  CA       -72.1260   77.0080 -110.3280 C.3     8  GLY8        0.1956
     10  C        -71.1910   77.4380 -109.2120 C.2     8  GLY8        0.2612
     11  O        -70.5210   76.5950 -108.5990 O.2     8  GLY8       -0.2717
     12  N        -71.1380   78.7420 -108.9330 N.am    9  LEU9       -0.1965
     13  CA       -70.2410   79.2540 -107.9020 C.3     9  LEU9        0.1728
     14  C        -70.9710   80.1000 -106.8660 C.2     9  LEU9        0.2616
     15  O        -71.9880   80.7400 -107.1600 O.2     9  LEU9       -0.2715
     16  CB       -69.0730   80.0430 -108.5140 C.3     9  LEU9        0.0311
     17  CG       -68.3090   79.5310 -109.7390 C.3     9  LEU9        0.0022
     18  CD1      -67.2630   80.5530 -110.1760 C.3     9  LEU9        0.0001
     19  CD2      -67.6740   78.1430 -109.5400 C.3     9  LEU9        0.0001
     20  N        -70.4350   80.0800 -105.6460 N.am   10  GLU10      -0.1977
     21  CA       -70.9360   80.8800 -104.5370 C.3    10  GLU10       0.1602
     22  C        -69.8030   81.7580 -104.0550 C.2    10  GLU10       0.2287
     23  O        -68.8490   81.2730 -103.4620 O.2    10  GLU10      -0.2864
     24  CB       -71.4060   79.9640 -103.3920 C.3    10  GLU10       0.0415
     25  CG       -72.5820   79.0520 -103.7630 C.3    10  GLU10       0.1163
     26  CD       -73.1810   78.3420 -102.5670 C.2    10  GLU10       0.3649
     27  OE1      -72.4230   77.6720 -101.8080 O.co2  10  GLU10      -0.2457
     28  OE2      -74.4210   78.4440 -102.4000 O.co2  10  GLU10      -0.2457
     29  N        -77.9160   84.4710 -109.7190 N.3   120  ARG120     -0.1245
     30  CA       -79.1300   83.9750 -109.0870 C.3   120  ARG120      0.1563
     31  C        -79.5450   84.9540 -107.9910 C.2   120  ARG120      0.2260
     32  O        -80.7130   85.3350 -107.9160 O.2   120  ARG120     -0.2867
     33  CB       -78.9240   82.5300 -108.5710 C.3   120  ARG120      0.0307
     34  CG       -80.1210   81.8860 -107.8800 C.3   120  ARG120      0.0489
     35  CD       -80.0980   80.3350 -107.9710 C.3   120  ARG120      0.2205
     36  NE       -81.2710   79.7280 -107.3180 N.pl3 120  ARG120     -0.0865
     37  CZ       -82.4310   79.3770 -107.9160 C.cat 120  ARG120      0.5346
     38  NH1      -82.6370   79.5500 -109.2270 N.pl3 120  ARG120      0.1354
     39  NH2      -83.4110   78.8430 -107.1950 N.pl3 120  ARG120      0.1354
     40  N        -74.4160   84.3910 -105.7870 N.3   153  VAL153     -0.1231
     41  CA       -74.6290   83.0210 -106.2180 C.3   153  VAL153      0.1692
     42  C        -74.9580   83.0250 -107.7060 C.2   153  VAL153      0.2593
     43  O        -75.7620   83.8000 -108.1800 O.2   153  VAL153     -0.2718
     44  CB       -75.7090   82.3220 -105.3720 C.3   153  VAL153      0.0266
     45  CG1      -75.9410   80.8760 -105.8360 C.3   153  VAL153      0.0020
     46  CG2      -75.3190   82.3570 -103.9100 C.3   153  VAL153      0.0020
     47  N        -74.2660   82.1620 -108.4260 N.am  154  THR154     -0.1939
     48  CA       -74.3620   81.9810 -109.8530 C.3   154  THR154      0.2028
     49  C        -75.4140   80.9200 -110.1510 C.2   154  THR154      0.2642
     50  O        -75.6520   80.0690 -109.3120 O.2   154  THR154     -0.2714
     51  CB       -72.9810   81.4660 -110.2760 C.3   154  THR154      0.1808
     52  OG1      -72.1330   82.5860 -110.5460 O.3   154  THR154     -0.2208
     53  CG2      -73.0340   80.5860 -111.4470 C.3   154  THR154      0.0379
     54  N        -76.0560   80.9720 -111.3170 N.am  155  GLU155     -0.1963
     55  CA       -76.7870   79.7860 -111.8120 C.3   155  GLU155      0.1718
     56  C        -75.7850   78.7510 -112.3710 C.2   155  GLU155      0.2458
     57  O        -74.6550   79.1100 -112.7090 O.2   155  GLU155     -0.2730
     58  CB       -77.8020   80.1790 -112.8900 C.3   155  GLU155      0.0428
     59  CG       -78.9640   81.0190 -112.3810 C.3   155  GLU155      0.1163
     60  CD       -79.9800   80.2070 -111.6120 C.2   155  GLU155      0.3649
     61  OE1      -79.9420   78.9410 -111.6280 O.co2 155  GLU155     -0.2457
     62  OE2      -80.8220   80.8340 -110.9790 O.co2 155  GLU155     -0.2457
     63  N        -76.1780   77.4660 -112.4970 N.am  156  PRO156     -0.2727
     64  CA       -75.1640   76.5300 -113.0030 C.3   156  PRO156      0.1402
     65  C        -74.9310   76.6780 -114.5180 C.2   156  PRO156      0.2269
     66  O        -75.1030   75.7270 -115.2910 O.2   156  PRO156     -0.2865
     67  CB       -75.7240   75.1630 -112.6200 C.3   156  PRO156      0.0296
     68  CG       -77.1850   75.3480 -112.5530 C.3   156  PRO156      0.0237
     69  CD       -77.4660   76.7950 -112.2420 C.3   156  PRO156      0.0939
     70  N        -69.3980   74.3740 -107.1390 N.3   195  ASN195     -0.1225
     71  CA       -70.3510   73.2800 -107.2340 C.3   195  ASN195      0.1785
     72  C        -70.3110   72.7640 -108.6530 C.2   195  ASN195      0.2597
     73  O        -70.3670   73.5490 -109.6060 O.2   195  ASN195     -0.2718
     74  CB       -71.7750   73.7210 -106.9100 C.3   195  ASN195      0.1169
     75  CG       -71.8500   74.6200 -105.7130 C.2   195  ASN195      0.2627
     76  OD1      -72.0980   74.1610 -104.6010 O.2   195  ASN195     -0.2716
     77  ND2      -71.6480   75.9220 -105.9280 N.am  195  ASN195     -0.0877
     78  N        -70.2170   71.4440 -108.7940 N.am  196  VAL196     -0.1966
     79  CA       -70.0280   70.8360 -110.1120 C.3   196  VAL196      0.1727
     80  C        -70.6560   69.4500 -110.2560 C.2   196  VAL196      0.2616
     81  O        -70.5340   68.6030 -109.3680 O.2   196  VAL196     -0.2715
     82  CB       -68.5310   70.8450 -110.5160 C.3   196  VAL196      0.0290
     83  CG1      -67.6850   70.1840 -109.4370 C.3   196  VAL196      0.0023
     84  CG2      -68.3280   70.2040 -111.8720 C.3   196  VAL196      0.0023
     85  N        -71.3410   69.2570 -111.3830 N.am  197  SER197     -0.1950
     86  CA       -71.9270   67.9760 -111.7660 C.3   197  SER197      0.1924
     87  C        -71.6080   67.6980 -113.2310 C.2   197  SER197      0.2314
     88  O        -71.2060   68.6090 -113.9600 O.2   197  SER197     -0.2863
     89  CB       -73.4420   67.9950 -111.5560 C.3   197  SER197      0.2116
     90  OG       -74.0810   68.8550 -112.4810 O.3   197  SER197     -0.2180
     91  N        -80.1550   67.2660 -114.5390 N.3   206  PHE206     -0.1227
     92  CA       -78.9650   67.6380 -113.7740 C.3   206  PHE206      0.1736
     93  C        -78.3320   66.4650 -113.0470 C.2   206  PHE206      0.2596
     94  O        -79.0190   65.7000 -112.3550 O.2   206  PHE206     -0.2718
     95  CB       -79.2810   68.7490 -112.7790 C.3   206  PHE206      0.0547
     96  CG       -79.3160   70.1010 -113.3960 C.ar  206  PHE206     -0.0202
     97  CD1      -78.1710   70.8800 -113.4440 C.ar  206  PHE206     -0.0042
     98  CD2      -80.4940   70.5940 -113.9460 C.ar  206  PHE206     -0.0042
     99  CE1      -78.1970   72.1370 -114.0240 C.ar  206  PHE206     -0.0003
    100  CE2      -80.5300   71.8580 -114.5350 C.ar  206  PHE206     -0.0003
    101  CZ       -79.3750   72.6300 -114.5730 C.ar  206  PHE206     -0.0000
    102  N        -77.0150   66.3360 -113.2060 N.am  207  GLY207     -0.1957
    103  CA       -76.2500   65.2780 -112.5490 C.3   207  GLY207      0.1869
    104  C        -76.0380   65.5980 -111.0900 C.2   207  GLY207      0.2309
    105  O        -76.2660   66.7300 -110.6710 O.2   207  GLY207     -0.2863
    106  N        -74.4220   66.5620 -107.5800 N.3   209  ARG209     -0.1245
    107  CA       -73.5980   67.7390 -107.3280 C.3   209  ARG209      0.1563
    108  C        -72.5280   67.5250 -106.2660 C.2   209  ARG209      0.2260
    109  O        -72.8270   67.0580 -105.1640 O.2   209  ARG209     -0.2867
    110  CB       -74.5130   68.9020 -106.9170 C.3   209  ARG209      0.0307
    111  CG       -73.8900   69.9130 -105.9740 C.3   209  ARG209      0.0489
    112  CD       -74.5380   71.2530 -106.1210 C.3   209  ARG209      0.2205
    113  NE       -75.7690   71.3560 -105.3530 N.pl3 209  ARG209     -0.0865
    114  CZ       -75.8650   71.9810 -104.1850 C.cat 209  ARG209      0.5346
    115  NH1      -74.7950   72.5560 -103.6470 N.pl3 209  ARG209      0.1354
    116  NH2      -77.0340   72.0390 -103.5550 N.pl3 209  ARG209      0.1354
@<TRIPOS>BOND
     1     7     5    1
     2     1     2    1
     3    66    65    2
     4     2     5    1
     5     2     3    1
     6     6     5    1
     7   101   100   ar
     8   101    99   ar
     9    91    92    1
    10   100    98   ar
    11    65    64    1
    12    99    97   ar
    13    88    87    2
    14    98    96   ar
    15     3     4    2
    16    92    93    1
    17    92    95    1
    18    97    96   ar
    19    96    95    1
    20    87    86    1
    21   102    93   am
    22   102   103    1
    23    93    94    2
    24    64    67    1
    25    64    63    1
    26    58    59    1
    27    58    55    1
    28    57    56    2
    29    67    68    1
    30    68    69    1
    31   103   104    1
    32    63    56   am
    33    63    69    1
    34    90    89    1
    35    59    60    1
    36    56    55    1
    37    84    82    1
    38    55    54    1
    39    86    89    1
    40    86    85    1
    41    61    60   ar
    42    60    62   ar
    43    53    51    1
    44    85    80   am
    45    54    49   am
    46   104   105    2
    47     8     9    1
    48    52    51    1
    49    82    79    1
    50    82    83    1
    51     9    10    1
    52    51    48    1
    53    80    79    1
    54    80    81    2
    55    18    17    1
    56    49    48    1
    57    49    50    2
    58    79    78    1
    59    48    47    1
    60    17    19    1
    61    17    16    1
    62    29    30    1
    63    73    72    2
    64    38    37    1
    65    10    12   am
    66    10    11    2
    67    30    33    1
    68    30    31    1
    69    12    13    1
    70    78    72   am
    71    72    71    1
    72    33    34    1
    73    16    13    1
    74    47    42   am
    75    43    42    2
    76    31    32    2
    77    35    34    1
    78    35    36    1
    79    37    36    2
    80    37    39    1
    81    13    14    1
    82    42    41    1
    83   106   107    1
    84   107   110    1
    85   107   108    1
    86    71    70    1
    87    71    74    1
    88    15    14    2
    89   110   111    1
    90    74    75    1
    91    14    20   am
    92   108   109    2
    93    41    40    1
    94    41    44    1
    95   112   111    1
    96   112   113    1
    97    77    75   am
    98    45    44    1
    99    75    76    2
   100    20    21    1
   101    44    46    1
   102   113   114    2
   103    21    22    1
   104    21    24    1
   105   114   115    1
   106   114   116    1
   107    22    23    2
   108    25    24    1
   109    25    26    1
   110    26    28   ar
   111    26    27   ar
