@<TRIPOS>MOLECULE
tmp/3h0mJ00.pdb
 102 98 0 0 0
SMALL
GASTEIGER

@<TRIPOS>ATOM
      1  N       -143.6400   19.1700   51.0110 N.3   121  ALA121     -0.1231
      2  CA      -144.9070   19.9030   51.0020 C.3   121  ALA121      0.1694
      3  C       -146.0820   19.0680   50.4930 C.2   121  ALA121      0.2592
      4  O       -147.1100   19.6030   50.0610 O.2   121  ALA121     -0.2718
      5  CB      -144.7720   21.2130   50.2450 C.3   121  ALA121      0.0304
      6  N       -145.9310   17.7570   50.5840 N.am  122  MET122     -0.1965
      7  CA      -146.9570   16.8460   50.1300 C.3   122  MET122      0.1736
      8  C       -147.6970   16.1570   51.2870 C.2   122  MET122      0.2617
      9  O       -147.1790   15.2080   51.9090 O.2   122  MET122     -0.2715
     10  CB      -146.3670   15.8170   49.1800 C.3   122  MET122      0.0427
     11  CG      -145.9000   16.3950   47.8760 C.3   122  MET122      0.0599
     12  SD      -145.1880   15.1280   46.8000 S.3   122  MET122     -0.1393
     13  CE      -144.7160   16.2230   45.4560 C.3   122  MET122      0.0692
     14  N       -148.9230   16.6270   51.5490 N.am  123  GLY123     -0.1940
     15  CA      -149.7680   16.0860   52.6070 C.3   123  GLY123      0.2014
     16  C       -150.6170   17.1420   53.2760 C.2   123  GLY123      0.2639
     17  O       -150.4440   18.3470   53.0410 O.2   123  GLY123     -0.2714
     18  N       -151.5110   16.6950   54.1570 N.am  124  SER124     -0.1949
     19  CA      -152.5200   17.5800   54.7330 C.3   124  SER124      0.1924
     20  C       -152.5300   17.6170   56.2740 C.2   124  SER124      0.2314
     21  O       -153.5210   18.0710   56.8830 O.2   124  SER124     -0.2863
     22  CB      -153.9090   17.1860   54.1920 C.3   124  SER124      0.2116
     23  OG      -154.0140   17.3830   52.7790 O.3   124  SER124     -0.2180
     24  N       -151.7430   20.3750   57.0700 N.3   146  GLY146     -0.1225
     25  CA      -150.5350   20.3740   56.2270 C.3   146  GLY146      0.1811
     26  C       -150.7440   20.9130   54.8250 C.2   146  GLY146      0.2280
     27  O       -151.8790   20.9770   54.3480 O.2   146  GLY146     -0.2866
     28  N       -150.1480   24.6910   47.5010 N.3   168  THR168     -0.1203
     29  CA      -150.2180   24.0400   46.2010 C.3   168  THR168      0.1994
     30  C       -151.6540   23.5030   45.9600 C.2   168  THR168      0.2618
     31  O       -152.1890   23.5310   44.8450 O.2   168  THR168     -0.2717
     32  CB      -149.1400   22.9380   46.1440 C.3   168  THR168      0.1784
     33  OG1     -147.8470   23.5550   46.1290 O.3   168  THR168     -0.2211
     34  CG2     -149.2880   22.0630   44.9320 C.3   168  THR168      0.0376
     35  N       -152.2810   23.0300   47.0250 N.am  169  GLY169     -0.1942
     36  CA      -153.6710   22.6100   46.9650 C.3   169  GLY169      0.2014
     37  C       -154.3930   22.8490   48.2710 C.2   169  GLY169      0.2639
     38  O       -155.2660   22.0570   48.6590 O.2   169  GLY169     -0.2714
     39  N       -154.0250   23.9350   48.9450 N.am  170  GLY170     -0.1939
     40  CA      -154.6120   24.2560   50.2360 C.3   170  GLY170      0.2014
     41  C       -153.6540   24.2810   51.4180 C.2   170  GLY170      0.2639
     42  O       -154.1030   24.3020   52.5530 O.2   170  GLY170     -0.2714
     43  N       -152.3430   24.3340   51.1510 N.am  171  SER171     -0.1949
     44  CA      -151.3070   24.1450   52.1910 C.3   171  SER171      0.1924
     45  C       -151.0280   25.3320   53.1050 C.2   171  SER171      0.2314
     46  O       -150.2530   25.2090   54.0670 O.2   171  SER171     -0.2863
     47  CB      -149.9960   23.6550   51.5880 C.3   171  SER171      0.2116
     48  OG      -150.1900   22.3770   51.0170 O.3   171  SER171     -0.2180
     49  N       -142.7630   21.8930   44.0520 N.3   199  PHE199     -0.1241
     50  CA      -143.5890   20.6870   44.1010 C.3   199  PHE199      0.1605
     51  C       -144.3570   20.6160   42.7540 C.2   199  PHE199      0.2264
     52  O       -144.0680   19.7600   41.8900 O.2   199  PHE199     -0.2867
     53  CB      -144.5190   20.8040   45.3320 C.3   199  PHE199      0.0534
     54  CG      -145.6840   19.8350   45.3740 C.ar  199  PHE199     -0.0203
     55  CD1     -145.7260   18.6890   44.5780 C.ar  199  PHE199     -0.0042
     56  CD2     -146.7270   20.0620   46.2800 C.ar  199  PHE199     -0.0042
     57  CE1     -146.8010   17.8240   44.6500 C.ar  199  PHE199     -0.0003
     58  CE2     -147.7840   19.1950   46.3700 C.ar  199  PHE199     -0.0003
     59  CZ      -147.8290   18.0810   45.5400 C.ar  199  PHE199     -0.0000
     60  N       -156.5770   17.4280   40.3320 N.3   302  TYR302     -0.1227
     61  CA      -155.4120   17.9230   41.0580 C.3   302  TYR302      0.1736
     62  C       -154.4780   16.7820   41.3910 C.2   302  TYR302      0.2595
     63  O       -153.2700   16.9220   41.3650 O.2   302  TYR302     -0.2718
     64  CB      -155.8540   18.6830   42.2990 C.3   302  TYR302      0.0548
     65  CG      -154.7620   19.0860   43.2570 C.ar  302  TYR302     -0.0200
     66  CD1     -154.3830   20.4080   43.3750 C.ar  302  TYR302     -0.0009
     67  CD2     -154.1470   18.1490   44.0860 C.ar  302  TYR302     -0.0009
     68  CE1     -153.3810   20.7850   44.2750 C.ar  302  TYR302      0.0417
     69  CE2     -153.1570   18.5080   44.9770 C.ar  302  TYR302      0.0417
     70  CZ      -152.7850   19.8300   45.0790 C.ar  302  TYR302      0.1957
     71  OH      -151.8040   20.1870   45.9730 O.3   302  TYR302     -0.2866
     72  N       -155.0360   15.6310   41.6590 N.am  303  TYR303     -0.1976
     73  CA      -154.1840   14.5160   42.0030 C.3   303  TYR303      0.1639
     74  C       -153.7110   13.7580   40.7830 C.2   303  TYR303      0.2290
     75  O       -153.2690   12.6080   40.8890 O.2   303  TYR303     -0.2864
     76  CB      -154.8260   13.6270   43.0800 C.3   303  TYR303      0.0560
     77  CG      -154.6330   14.1840   44.4950 C.ar  303  TYR303     -0.0198
     78  CD1     -153.3570   14.2450   45.0930 C.ar  303  TYR303     -0.0009
     79  CD2     -155.7180   14.6580   45.2310 C.ar  303  TYR303     -0.0009
     80  CE1     -153.1770   14.7560   46.3840 C.ar  303  TYR303      0.0417
     81  CE2     -155.5490   15.1750   46.5220 C.ar  303  TYR303      0.0417
     82  CZ      -154.2790   15.2130   47.0950 C.ar  303  TYR303      0.1957
     83  OH      -154.1360   15.7220   48.3720 O.3   303  TYR303     -0.2866
     84  N       -146.2100    9.7830   45.0000 N.3   351  ARG351     -0.1245
     85  CA      -146.5070   10.8180   44.0820 C.3   351  ARG351      0.1563
     86  C       -145.5910   10.7990   42.8970 C.2   351  ARG351      0.2260
     87  O       -145.9830   11.1320   41.8180 O.2   351  ARG351     -0.2867
     88  CB      -146.4120   12.1390   44.8040 C.3   351  ARG351      0.0307
     89  CG      -147.4780   12.3190   45.8160 C.3   351  ARG351      0.0489
     90  CD      -147.3630   13.6230   46.4990 C.3   351  ARG351      0.2205
     91  NE      -148.3550   13.7390   47.5350 N.pl3 351  ARG351     -0.0865
     92  CZ      -149.5950   14.1050   47.3120 C.cat 351  ARG351      0.5346
     93  NH1     -149.9230   14.6240   46.1660 N.pl3 351  ARG351      0.1354
     94  NH2     -150.5020   13.9560   48.2310 N.pl3 351  ARG351      0.1354
     95  N       -158.6580   17.8730   51.1900 N.3   418  ASP418     -0.1239
     96  CA      -158.3890   18.9910   50.2880 C.3   418  ASP418      0.1674
     97  C       -159.5530   19.4040   49.3830 C.2   418  ASP418      0.2266
     98  O       -159.4290   20.3600   48.5950 O.2   418  ASP418     -0.2867
     99  CB      -157.1760   18.6470   49.4470 C.3   418  ASP418      0.1410
    100  CG      -155.9140   18.4690   50.2830 C.2   418  ASP418      0.3668
    101  OD1     -155.7850   19.1320   51.3440 O.co2 418  ASP418     -0.2456
    102  OD2     -155.0400   17.6740   49.8680 O.co2 418  ASP418     -0.2456
@<TRIPOS>BOND
     1    60    61    1
     2    74    75    2
     3    74    73    1
     4    61    62    1
     5    61    64    1
     6    63    62    2
     7    62    72   am
     8    72    73    1
     9    87    86    2
    10    52    51    2
    11    73    76    1
    12    64    65    1
    13    51    50    1
    14    86    85    1
    15    76    77    1
    16    65    66   ar
    17    65    67   ar
    18    66    68   ar
    19    49    50    1
    20    85    88    1
    21    85    84    1
    22    67    69   ar
    23    50    53    1
    24    68    70   ar
    25    77    78   ar
    26    77    79   ar
    27    55    57   ar
    28    55    54   ar
    29    57    59   ar
    30    88    89    1
    31    31    30    2
    32    34    32    1
    33    69    70   ar
    34    70    71    1
    35    78    80   ar
    36    79    81   ar
    37    53    54    1
    38    54    56   ar
    39    13    12    1
    40    59    58   ar
    41    89    90    1
    42    30    29    1
    43    30    35   am
    44    33    32    1
    45    32    29    1
    46    93    92    1
    47    29    28    1
    48    56    58   ar
    49    80    82   ar
    50    90    91    1
    51    81    82   ar
    52    12    11    1
    53    36    35    1
    54    36    37    1
    55    82    83    1
    56    92    91    2
    57    92    94    1
    58    11    10    1
    59    37    38    2
    60    37    39   am
    61    98    97    2
    62    39    40    1
    63    10     7    1
    64    97    96    1
    65    99   100    1
    66    99    96    1
    67   102   100   ar
    68     4     3    2
    69     7     6    1
    70     7     8    1
    71    40    41    1
    72     5     2    1
    73   100   101   ar
    74    96    95    1
    75     3     6   am
    76     3     2    1
    77     2     1    1
    78    48    47    1
    79    43    41   am
    80    43    44    1
    81     8    14   am
    82     8     9    2
    83    41    42    2
    84    14    15    1
    85    47    44    1
    86    44    45    1
    87    15    16    1
    88    23    22    1
    89    17    16    2
    90    45    46    2
    91    16    18   am
    92    18    19    1
    93    22    19    1
    94    27    26    2
    95    19    20    1
    96    26    25    1
    97    25    24    1
    98    20    21    2
