@<TRIPOS>MOLECULE
tmp/3h0qA00.pdb
 132 126 0 0 0
SMALL
GASTEIGER

@<TRIPOS>ATOM
      1  N         11.0490   34.0560   11.7210 N.3   439  PRO439     -0.2116
      2  CA        11.7990   33.7950   12.9550 C.3   439  PRO439      0.1372
      3  C         12.3590   32.3870   12.9440 C.2   439  PRO439      0.2244
      4  O         11.7030   31.4550   12.4850 O.2   439  PRO439     -0.2868
      5  CB        10.7490   33.9700   14.0590 C.3   439  PRO439      0.0268
      6  CG         9.6870   34.8200   13.4200 C.3   439  PRO439      0.0207
      7  CD         9.6300   34.3170   12.0090 C.3   439  PRO439      0.0892
      8  N         11.0420   28.2700   14.1970 N.3   442  VAL442     -0.1245
      9  CA         9.5960   28.3190   14.0880 C.3   442  VAL442      0.1561
     10  C          9.1540   27.8350   12.7150 C.2   442  VAL442      0.2260
     11  O          9.6250   28.3360   11.6870 O.2   442  VAL442     -0.2867
     12  CB         9.0560   29.7430   14.2810 C.3   442  VAL442      0.0252
     13  CG1        7.5400   29.7550   14.0430 C.3   442  VAL442      0.0019
     14  CG2        9.3850   30.2370   15.6810 C.3   442  VAL442      0.0019
     15  N          6.7860   27.5010    9.5660 N.3   444  HIS444     -0.1241
     16  CA         5.8500   28.3390    8.8380 C.3   444  HIS444      0.1621
     17  C          5.2680   27.4450    7.7450 C.2   444  HIS444      0.2264
     18  O          5.7800   26.3480    7.4870 O.2   444  HIS444     -0.2867
     19  CB         6.5600   29.5420    8.2100 C.3   444  HIS444      0.0745
     20  CG         7.0370   30.5420    9.2140 C.ar  444  HIS444      0.0817
     21  ND1        8.2240   30.3990    9.9030 N.ar  444  HIS444     -0.2268
     22  CD2        6.4440   31.6540    9.7100 C.ar  444  HIS444      0.1154
     23  CE1        8.3380   31.3770   10.7830 C.ar  444  HIS444      0.1986
     24  NE2        7.2720   32.1520   10.6870 N.ar  444  HIS444     -0.2212
     25  N         10.5360   25.7310   18.1180 N.3   473  ARG473     -0.1231
     26  CA         9.8120   26.1910   19.3080 C.3   473  ARG473      0.1694
     27  C          8.3420   25.8200   19.1350 C.2   473  ARG473      0.2593
     28  O          7.6110   25.6180   20.1090 O.2   473  ARG473     -0.2718
     29  CB         9.9040   27.7100   19.4580 C.3   473  ARG473      0.0321
     30  CG        11.2950   28.3000   19.3660 C.3   473  ARG473      0.0489
     31  CD        11.7760   28.8120   20.7070 C.3   473  ARG473      0.2205
     32  NE        10.9460   29.8850   21.2550 N.pl3 473  ARG473     -0.0865
     33  CZ        10.7910   31.0870   20.7050 C.cat 473  ARG473      0.5346
     34  NH1       11.4040   31.3920   19.5690 N.pl3 473  ARG473      0.1354
     35  NH2       10.0430   31.9990   21.3120 N.pl3 473  ARG473      0.1354
     36  N          7.9170   25.7550   17.8780 N.am  474  GLY474     -0.1942
     37  CA         6.5440   25.4160   17.5620 C.3   474  GLY474      0.2014
     38  C          6.2220   25.9170   16.1690 C.2   474  GLY474      0.2639
     39  O          7.1350   26.2400   15.4010 O.2   474  GLY474     -0.2714
     40  N          4.9350   25.9640   15.8330 N.am  475  PHE475     -0.1959
     41  CA         4.4990   26.4570   14.5320 C.3   475  PHE475      0.1771
     42  C          4.0600   27.9030   14.7220 C.2   475  PHE475      0.2620
     43  O          3.7200   28.3010   15.8300 O.2   475  PHE475     -0.2715
     44  CB         3.3060   25.6440   14.0040 C.3   475  PHE475      0.0574
     45  CG         3.6270   24.2130   13.6940 C.ar  475  PHE475     -0.0200
     46  CD1        3.6370   23.2570   14.6920 C.ar  475  PHE475     -0.0042
     47  CD2        3.9380   23.8260   12.4060 C.ar  475  PHE475     -0.0042
     48  CE1        3.9520   21.9390   14.4120 C.ar  475  PHE475     -0.0003
     49  CE2        4.2570   22.5020   12.1210 C.ar  475  PHE475     -0.0003
     50  CZ         4.2630   21.5630   13.1250 C.ar  475  PHE475     -0.0000
     51  N          4.0660   28.6930   13.6540 N.am  476  SER476     -0.1936
     52  CA         3.6300   30.0820   13.7600 C.3   476  SER476      0.2055
     53  C          2.1140   30.0920   13.9070 C.2   476  SER476      0.2644
     54  O          1.3940   29.6720   13.0040 O.2   476  SER476     -0.2714
     55  CB         4.0290   30.8700   12.5160 C.3   476  SER476      0.2130
     56  OG         3.5690   32.2100   12.6110 O.3   476  SER476     -0.2179
     57  N          1.6420   30.5680   15.0530 N.am  477  GLY477     -0.1939
     58  CA         0.2170   30.6210   15.3350 C.3   477  GLY477      0.2014
     59  C         -0.4380   31.9750   15.1100 C.2   477  GLY477      0.2639
     60  O         -1.5850   32.1910   15.5130 O.2   477  GLY477     -0.2714
     61  N          0.2880   32.8880   14.4740 N.am  478  GLY478     -0.1954
     62  CA        -0.2690   34.1960   14.1870 C.3   478  GLY478      0.1869
     63  C         -1.3720   34.0540   13.1570 C.2   478  GLY478      0.2309
     64  O         -1.5750   32.9670   12.6090 O.2   478  GLY478     -0.2863
     65  N         -0.1610   33.2570    9.1130 N.3   481  ASP481     -0.1239
     66  CA         0.2840   31.8830    8.9100 C.3   481  ASP481      0.1674
     67  C         -0.8150   30.8680    9.2060 C.2   481  ASP481      0.2266
     68  O         -0.8280   29.7690    8.6510 O.2   481  ASP481     -0.2867
     69  CB         1.5080   31.5710    9.7780 C.3   481  ASP481      0.1410
     70  CG         2.7310   32.3510    9.3580 C.2   481  ASP481      0.3668
     71  OD1        2.9810   32.4490    8.1380 O.co2 481  ASP481     -0.2456
     72  OD2        3.4460   32.8570   10.2490 O.co2 481  ASP481     -0.2456
     73  N          8.8710   21.9580   21.9020 N.3   515  ARG515     -0.1245
     74  CA         7.7920   22.3690   22.7900 C.3   515  ARG515      0.1563
     75  C          6.4610   21.7460   22.3670 C.2   515  ARG515      0.2260
     76  O          6.3910   21.0250   21.3670 O.2   515  ARG515     -0.2867
     77  CB         7.6790   23.8940   22.8100 C.3   515  ARG515      0.0307
     78  CG         8.9670   24.5920   23.2260 C.3   515  ARG515      0.0489
     79  CD         9.3790   24.2510   24.6570 C.3   515  ARG515      0.2205
     80  NE        10.6920   24.8170   24.9550 N.pl3 515  ARG515     -0.0865
     81  CZ        11.3300   24.6960   26.1160 C.cat 515  ARG515      0.5346
     82  NH1       10.7860   24.0210   27.1270 N.pl3 515  ARG515      0.1354
     83  NH2       12.5260   25.2530   26.2570 N.pl3 515  ARG515      0.1354
     84  N          6.1750   21.1610   27.4730 N.3   543  VAL543     -0.1231
     85  CA         5.0310   21.7390   26.7700 C.3   543  VAL543      0.1692
     86  C          5.2100   23.2350   26.5430 C.2   543  VAL543      0.2592
     87  O          5.0660   23.7220   25.4300 O.2   543  VAL543     -0.2718
     88  CB         3.7170   21.5240   27.5430 C.3   543  VAL543      0.0266
     89  CG1        2.5530   22.0450   26.7200 C.3   543  VAL543      0.0020
     90  CG2        3.5330   20.0510   27.8780 C.3   543  VAL543      0.0020
     91  N          5.5250   23.9650   27.6020 N.am  544  LEU544     -0.1966
     92  CA         5.7160   25.4050   27.4900 C.3   544  LEU544      0.1728
     93  C          7.1590   25.7930   27.7660 C.2   544  LEU544      0.2616
     94  O          7.9260   25.0150   28.3330 O.2   544  LEU544     -0.2715
     95  CB         4.8200   26.1410   28.4910 C.3   544  LEU544      0.0311
     96  CG         3.3090   25.9840   28.3260 C.3   544  LEU544      0.0022
     97  CD1        2.5880   26.6860   29.4640 C.3   544  LEU544      0.0001
     98  CD2        2.8920   26.5520   26.9730 C.3   544  LEU544      0.0001
     99  N          7.5280   26.9950   27.3470 N.am  545  GLU545     -0.1977
    100  CA         8.8620   27.5000   27.6230 C.3   545  GLU545      0.1602
    101  C          8.7890   27.9460   29.0840 C.2   545  GLU545      0.2287
    102  O          7.6970   28.1030   29.6340 O.2   545  GLU545     -0.2864
    103  CB         9.1780   28.6810   26.7090 C.3   545  GLU545      0.0415
    104  CG        10.1820   28.3430   25.6380 C.3   545  GLU545      0.1163
    105  CD         9.9950   29.1680   24.3880 C.2   545  GLU545      0.3649
    106  OE1        9.7740   30.3910   24.5030 O.co2 545  GLU545     -0.2457
    107  OE2       10.0790   28.5890   23.2840 O.co2 545  GLU545     -0.2457
    108  N          9.1970   30.8210   30.5760 N.3   547  GLN547     -0.1231
    109  CA         8.3940   32.0220   30.7570 C.3   547  GLN547      0.1698
    110  C          6.9130   31.6690   30.7730 C.2   547  GLN547      0.2592
    111  O          6.1750   32.0810   31.6710 O.2   547  GLN547     -0.2718
    112  CB         8.6590   33.0260   29.6390 C.3   547  GLN547      0.0381
    113  CG        10.1110   33.4440   29.5010 C.3   547  GLN547      0.0905
    114  CD        10.2760   34.9560   29.4140 C.2   547  GLN547      0.2608
    115  OE1       10.1590   35.6700   30.4200 O.2   547  GLN547     -0.2717
    116  NE2       10.5370   35.4540   28.2050 N.am  547  GLN547     -0.0878
    117  N          6.4780   30.9000   29.7790 N.am  548  GLY548     -0.1957
    118  CA         5.0820   30.5120   29.7150 C.3   548  GLY548      0.1869
    119  C          4.6180   29.6760   30.8920 C.2   548  GLY548      0.2309
    120  O          3.4870   29.8090   31.3550 O.2   548  GLY548     -0.2863
    121  N          4.2700   31.8800   34.0070 N.3   551  GLY551     -0.1210
    122  CA         3.1280   32.7460   33.7890 C.3   551  GLY551      0.1956
    123  C          1.7960   32.0580   34.0090 C.2   551  GLY551      0.2611
    124  O          0.7440   32.6880   33.8980 O.2   551  GLY551     -0.2717
    125  N          1.8310   30.7690   34.3350 N.am  552  ILE552     -0.1979
    126  CA         0.6090   30.0040   34.5510 C.3   552  ILE552      0.1595
    127  C          0.6260   29.1810   35.8390 C.2   552  ILE552      0.2287
    128  O         -0.3750   29.1060   36.5470 O.2   552  ILE552     -0.2864
    129  CB         0.3550   29.0430   33.3660 C.3   552  ILE552      0.0276
    130  CG1        0.1840   29.8430   32.0750 C.3   552  ILE552      0.0022
    131  CG2       -0.8660   28.1850   33.6420 C.3   552  ILE552      0.0022
    132  CD1        0.0580   28.9800   30.8410 C.3   552  ILE552      0.0001
@<TRIPOS>BOND
     1    18    17    2
     2    17    16    1
     3    71    70   ar
     4    19    16    1
     5    19    20    1
     6    68    67    2
     7    16    15    1
     8    66    65    1
     9    66    67    1
    10    66    69    1
    11    20    22   ar
    12    20    21   ar
    13    70    69    1
    14    70    72   ar
    15    22    24   ar
    16    21    23   ar
    17    24    23   ar
    18    11    10    2
    19     1     7    1
    20     1     2    1
    21     7     6    1
    22    49    47   ar
    23    49    50   ar
    24    47    45   ar
    25     4     3    2
    26    55    56    1
    27    55    52    1
    28    64    63    2
    29    10     9    1
    30     3     2    1
    31     2     5    1
    32    54    53    2
    33    50    48   ar
    34    63    62    1
    35     6     5    1
    36    51    52    1
    37    51    42   am
    38    45    44    1
    39    45    46   ar
    40    52    53    1
    41    53    57   am
    42    44    41    1
    43    13    12    1
    44     9     8    1
    45     9    12    1
    46    62    61    1
    47    12    14    1
    48    48    46   ar
    49    61    59   am
    50    41    42    1
    51    41    40    1
    52    42    43    2
    53    57    58    1
    54    59    58    1
    55    59    60    2
    56    39    38    2
    57    40    38   am
    58    38    37    1
    59    37    36    1
    60    36    27   am
    61    25    26    1
    62    27    26    1
    63    27    28    2
    64    26    29    1
    65    30    29    1
    66    30    31    1
    67    34    33    1
    68    33    32    2
    69    33    35    1
    70    31    32    1
    71    76    75    2
    72    73    74    1
    73    75    74    1
    74    74    77    1
    75    77    78    1
    76    78    79    1
    77   107   105   ar
    78   105   106   ar
    79   105   104    1
    80    79    80    1
    81    80    81    2
    82    87    86    2
    83   104   103    1
    84    81    83    1
    85    81    82    1
    86    86    85    1
    87    86    91   am
    88   103   100    1
    89    89    88    1
    90    85    84    1
    91    85    88    1
    92    98    96    1
    93    99   100    1
    94    99    93   am
    95    92    91    1
    96    92    93    1
    97    92    95    1
    98    88    90    1
    99   100   101    1
   100    93    94    2
   101   116   114   am
   102    96    95    1
   103    96    97    1
   104   101   102    2
   105   114   113    1
   106   114   115    2
   107   113   112    1
   108   112   109    1
   109   118   117    1
   110   118   119    1
   111   117   110   am
   112   108   109    1
   113   109   110    1
   114   110   111    2
   115   132   130    1
   116   119   120    2
   117   130   129    1
   118   129   131    1
   119   129   126    1
   120   122   121    1
   121   122   123    1
   122   124   123    2
   123   123   125   am
   124   125   126    1
   125   126   127    1
   126   127   128    2
