@<TRIPOS>MOLECULE
tmp/3h0rP00.pdb
 109 103 0 0 0
SMALL
GASTEIGER

@<TRIPOS>ATOM
      1  N       -107.6660   84.8640   18.7810 N.3   121  ALA121     -0.1245
      2  CA      -106.3760   85.5540   18.7490 C.3   121  ALA121      0.1562
      3  C       -105.2260   84.7310   19.2840 C.2   121  ALA121      0.2260
      4  O       -104.2400   85.2740   19.7280 O.2   121  ALA121     -0.2867
      5  CB      -106.4500   86.9610   19.4190 C.3   121  ALA121      0.0290
      6  N       -102.4160   82.2750   18.2410 N.3   123  GLY123     -0.1210
      7  CA      -101.5780   81.7180   17.1720 C.3   123  GLY123      0.1956
      8  C       -100.7000   82.7740   16.5320 C.2   123  GLY123      0.2612
      9  O       -100.8070   83.9480   16.8570 O.2   123  GLY123     -0.2717
     10  N        -99.8460   82.3580   15.6040 N.am  124  SER124     -0.1952
     11  CA       -98.8660   83.2540   15.0510 C.3   124  SER124      0.1924
     12  C        -98.7860   83.1810   13.5400 C.2   124  SER124      0.2314
     13  O        -97.7490   83.4710   12.9730 O.2   124  SER124     -0.2863
     14  CB       -97.5140   82.9820   15.6940 C.3   124  SER124      0.2116
     15  OG       -97.6340   83.0640   17.1070 O.3   124  SER124     -0.2180
     16  N        -99.5680   86.1880   12.7560 N.3   146  GLY146     -0.1210
     17  CA      -100.7860   86.1430   13.5410 C.3   146  GLY146      0.1956
     18  C       -100.5670   86.5720   14.9660 C.2   146  GLY146      0.2612
     19  O        -99.4350   86.5750   15.4310 O.2   146  GLY146     -0.2717
     20  N       -101.6370   86.8850   15.6870 N.am  147  SER147     -0.1952
     21  CA      -102.9980   86.6150   15.2390 C.3   147  SER147      0.1924
     22  C       -103.6730   87.6580   14.3640 C.2   147  SER147      0.2314
     23  O       -104.6130   87.3080   13.6540 O.2   147  SER147     -0.2863
     24  CB      -103.9070   86.3490   16.4330 C.3   147  SER147      0.2116
     25  OG      -103.6980   87.3120   17.4520 O.3   147  SER147     -0.2180
     26  N       -101.1770   90.2960   22.2830 N.3   168  THR168     -0.1203
     27  CA      -101.1100   89.5960   23.5710 C.3   168  THR168      0.1994
     28  C        -99.6670   89.1310   23.8150 C.2   168  THR168      0.2618
     29  O        -99.1650   89.1160   24.9400 O.2   168  THR168     -0.2717
     30  CB      -102.0480   88.3700   23.5630 C.3   168  THR168      0.1784
     31  OG1     -103.3870   88.7720   23.2490 O.3   168  THR168     -0.2211
     32  CG2     -102.0500   87.6890   24.9000 C.3   168  THR168      0.0376
     33  N        -99.0020   88.7600   22.7390 N.am  169  GLY169     -0.1942
     34  CA       -97.6430   88.2900   22.8280 C.3   169  GLY169      0.2014
     35  C        -96.9170   88.5180   21.5250 C.2   169  GLY169      0.2639
     36  O        -95.9760   87.7870   21.1830 O.2   169  GLY169     -0.2714
     37  N        -97.3610   89.5370   20.7980 N.am  170  GLY170     -0.1939
     38  CA       -96.7430   89.9140   19.5280 C.3   170  GLY170      0.2014
     39  C        -97.7130   89.9630   18.3510 C.2   170  GLY170      0.2639
     40  O        -97.2890   90.0830   17.1960 O.2   170  GLY170     -0.2714
     41  N        -99.0140   89.9040   18.6500 N.am  171  SER171     -0.1949
     42  CA      -100.0310   89.7160   17.6330 C.3   171  SER171      0.1924
     43  C       -100.3010   90.9120   16.7100 C.2   171  SER171      0.2314
     44  O       -101.0090   90.7320   15.7090 O.2   171  SER171     -0.2863
     45  CB      -101.3360   89.2250   18.2690 C.3   171  SER171      0.2116
     46  OG      -101.2280   87.9230   18.8240 O.3   171  SER171     -0.2180
     47  N        -95.6330   90.9200   14.9550 N.3   174  GLN174     -0.1245
     48  CA       -95.1350   89.8540   14.0540 C.3   174  GLN174      0.1566
     49  C        -95.8830   89.7880   12.7300 C.2   174  GLN174      0.2260
     50  O        -95.2540   89.5640   11.6980 O.2   174  GLN174     -0.2867
     51  CB       -95.0620   88.4800   14.7150 C.3   174  GLN174      0.0367
     52  CG       -96.1480   87.5160   14.2920 C.3   174  GLN174      0.0905
     53  CD       -95.6590   86.2760   13.5870 C.2   174  GLN174      0.2608
     54  OE1      -94.4890   85.8910   13.6740 O.2   174  GLN174     -0.2717
     55  NE2      -96.5710   85.6250   12.9020 N.am  174  GLN174     -0.0878
     56  N       -108.5420   87.4790   25.6930 N.3   199  PHE199     -0.1241
     57  CA      -107.7070   86.2870   25.5890 C.3   199  PHE199      0.1605
     58  C       -106.9590   86.2070   26.9170 C.2   199  PHE199      0.2264
     59  O       -107.3120   85.4080   27.7880 O.2   199  PHE199     -0.2867
     60  CB      -106.7720   86.4690   24.3740 C.3   199  PHE199      0.0534
     61  CG      -105.6010   85.5200   24.3060 C.ar  199  PHE199     -0.0203
     62  CD1     -105.4860   84.4230   25.1410 C.ar  199  PHE199     -0.0042
     63  CD2     -104.6260   85.7180   23.3500 C.ar  199  PHE199     -0.0042
     64  CE1     -104.3960   83.5760   25.0430 C.ar  199  PHE199     -0.0003
     65  CE2     -103.5460   84.8750   23.2580 C.ar  199  PHE199     -0.0003
     66  CZ      -103.4290   83.8050   24.1060 C.ar  199  PHE199     -0.0000
     67  N        -94.7860   83.1950   29.4740 N.3   302  TYR302     -0.1227
     68  CA       -95.9650   83.5580   28.6930 C.3   302  TYR302      0.1736
     69  C        -96.8830   82.3730   28.3930 C.2   302  TYR302      0.2595
     70  O        -98.0930   82.5000   28.4460 O.2   302  TYR302     -0.2718
     71  CB       -95.5260   84.2100   27.3920 C.3   302  TYR302      0.0548
     72  CG       -96.6390   84.5670   26.4300 C.ar  302  TYR302     -0.0200
     73  CD1      -97.1200   85.8630   26.3630 C.ar  302  TYR302     -0.0009
     74  CD2      -97.1790   83.6170   25.5660 C.ar  302  TYR302     -0.0009
     75  CE1      -98.1120   86.2030   25.4930 C.ar  302  TYR302      0.0417
     76  CE2      -98.1810   83.9650   24.6770 C.ar  302  TYR302      0.0417
     77  CZ       -98.6340   85.2730   24.6450 C.ar  302  TYR302      0.1957
     78  OH       -99.6190   85.6430   23.7750 O.3   302  TYR302     -0.2866
     79  N        -96.3130   81.2220   28.0800 N.am  303  TYR303     -0.1976
     80  CA       -97.1550   80.0810   27.7390 C.3   303  TYR303      0.1639
     81  C        -97.6700   79.3280   28.9640 C.2   303  TYR303      0.2290
     82  O        -98.1990   78.2230   28.8430 O.2   303  TYR303     -0.2864
     83  CB       -96.5120   79.1900   26.6780 C.3   303  TYR303      0.0560
     84  CG       -96.7130   79.7380   25.2750 C.ar  303  TYR303     -0.0198
     85  CD1      -97.9450   79.6130   24.6110 C.ar  303  TYR303     -0.0009
     86  CD2      -95.6860   80.4080   24.6120 C.ar  303  TYR303     -0.0009
     87  CE1      -98.1390   80.1470   23.3160 C.ar  303  TYR303      0.0417
     88  CE2      -95.8720   80.9440   23.3150 C.ar  303  TYR303      0.0417
     89  CZ       -97.0870   80.8080   22.6770 C.ar  303  TYR303      0.1957
     90  OH       -97.2300   81.3290   21.4030 O.3   303  TYR303     -0.2866
     91  N       -104.9890   75.3330   24.8100 N.3   351  ARG351     -0.1245
     92  CA      -104.7200   76.3760   25.7940 C.3   351  ARG351      0.1563
     93  C       -105.7160   76.3750   26.9490 C.2   351  ARG351      0.2260
     94  O       -105.3660   76.7120   28.0910 O.2   351  ARG351     -0.2867
     95  CB      -104.7210   77.7400   25.1100 C.3   351  ARG351      0.0307
     96  CG      -103.7730   77.7630   23.9530 C.3   351  ARG351      0.0489
     97  CD      -103.2940   79.1100   23.6850 C.3   351  ARG351      0.2205
     98  NE      -102.2900   79.0480   22.6500 N.pl3 351  ARG351     -0.0865
     99  CZ      -101.7100   80.1240   22.1410 C.cat 351  ARG351      0.5346
    100  NH1     -102.0400   81.3380   22.5920 N.pl3 351  ARG351      0.1354
    101  NH2     -100.8030   79.9920   21.1790 N.pl3 351  ARG351      0.1354
    102  N        -92.7370   83.5340   18.6460 N.3   418  ASP418     -0.1239
    103  CA       -93.0020   84.6160   19.5660 C.3   418  ASP418      0.1674
    104  C        -91.8110   85.0340   20.4320 C.2   418  ASP418      0.2266
    105  O        -91.9160   85.9580   21.2530 O.2   418  ASP418     -0.2867
    106  CB       -94.1140   84.1510   20.4920 C.3   418  ASP418      0.1410
    107  CG       -95.4130   83.8520   19.7570 C.2   418  ASP418      0.3668
    108  OD1      -95.5180   84.0900   18.5290 O.co2 418  ASP418     -0.2456
    109  OD2      -96.3550   83.3740   20.4160 O.co2 418  ASP418     -0.2456
@<TRIPOS>BOND
     1    50    49    2
     2    49    48    1
     3    16    17    1
     4    55    53   am
     5    13    12    2
     6    12    11    1
     7    17    18    1
     8    53    54    2
     9    53    52    1
    10    23    22    2
    11    48    51    1
    12    48    47    1
    13    52    51    1
    14    22    21    1
    15    18    19    2
    16    18    20   am
    17    11    10    1
    18    11    14    1
    19    21    20    1
    20    21    24    1
    21    10     8   am
    22    14    15    1
    23    44    43    2
    24    24    25    1
    25     8     9    2
    26     8     7    1
    27    43    42    1
    28     7     6    1
    29    40    39    2
    30    42    45    1
    31    42    41    1
    32    45    46    1
    33    39    41   am
    34    39    38    1
    35   108   107   ar
    36   102   103    1
    37     2     1    1
    38     2     3    1
    39     2     5    1
    40     3     4    2
    41    38    37    1
    42   103   104    1
    43   103   106    1
    44   107   109   ar
    45   107   106    1
    46   104   105    2
    47    37    35   am
    48   101    99    1
    49    36    35    2
    50    90    89    1
    51    35    34    1
    52    99   100    1
    53    99    98    2
    54    26    27    1
    55    98    97    1
    56    89    88   ar
    57    89    87   ar
    58    33    34    1
    59    33    28   am
    60    31    30    1
    61    65    63   ar
    62    65    66   ar
    63    88    86   ar
    64    87    85   ar
    65    63    61   ar
    66    30    27    1
    67    30    32    1
    68    27    28    1
    69    97    96    1
    70    78    77    1
    71    28    29    2
    72    96    95    1
    73    66    64   ar
    74    61    60    1
    75    61    62   ar
    76    60    57    1
    77    85    84   ar
    78    86    84   ar
    79    77    76   ar
    80    77    75   ar
    81    76    74   ar
    82    91    92    1
    83    64    62   ar
    84    95    92    1
    85    84    83    1
    86    75    73   ar
    87    74    72   ar
    88    57    56    1
    89    57    58    1
    90    92    93    1
    91    73    72   ar
    92    72    71    1
    93    83    80    1
    94    58    59    2
    95    93    94    2
    96    71    68    1
    97    80    79    1
    98    80    81    1
    99    79    69   am
   100    69    70    2
   101    69    68    1
   102    68    67    1
   103    82    81    2
